data_str_m1_o10_o18_pcu_sym.23
_audit_creation_date              2020-01-03
_audit_creation_method            'Materials Studio'
_symmetry_space_group_name_H-M    'P1'
_symmetry_Int_Tables_number       1
_symmetry_cell_setting            triclinic
loop_
_symmetry_equiv_pos_as_xyz
  x,y,z
_cell_length_a                    32.7312
_cell_length_b                    32.5163
_cell_length_c                    35.5243
_cell_angle_alpha                 97.5754
_cell_angle_beta                  73.0029
_cell_angle_gamma                 98.4325
loop_
_atom_site_label
_atom_site_type_symbol
_atom_site_fract_x
_atom_site_fract_y
_atom_site_fract_z
_atom_site_U_iso_or_equiv
_atom_site_adp_type
_atom_site_occupancy
C1     C     0.05284   0.16016   0.25867   0.00000  Uiso   1.00
C2     C     0.20146   0.12792   0.45716   0.00000  Uiso   1.00
C3     C     0.22866   0.11782   0.47730   0.00000  Uiso   1.00
C4     C     0.28107   0.17337   0.24128   0.00000  Uiso   1.00
C5     C     0.21894   0.12484   0.01849   0.00000  Uiso   1.00
C6     C     0.17829   0.13790   0.04033   0.00000  Uiso   1.00
C7     C     0.24865   0.11821   0.03844   0.00000  Uiso   1.00
C8     C     0.23827   0.12496   0.07951   0.00000  Uiso   1.00
C9     C     0.16845   0.14320   0.08194   0.00000  Uiso   1.00
C10    C     0.32687   0.17413   0.23696   0.00000  Uiso   1.00
C11    C     0.00767   0.15797   0.26342   0.00000  Uiso   1.00
C12    C     0.08746   0.19225   0.41888   0.00000  Uiso   1.00
C13    C     0.18100   0.32206   0.23643   0.00000  Uiso   1.00
C14    C     0.15285   0.01222   0.26214   0.00000  Uiso   1.00
C15    C     0.15560   0.05625   0.25944   0.00000  Uiso   1.00
C16    C     0.17683   0.27763   0.24093   0.00000  Uiso   1.00
C17    C     0.18826   0.14554   0.14394   0.00000  Uiso   1.00
C18    C     0.14564   0.18767   0.35621   0.00000  Uiso   1.00
C19    C     0.13113   0.18973   0.39960   0.00000  Uiso   1.00
C20    C     0.19824   0.13704   0.10114   0.00000  Uiso   1.00
C21    C     0.07104   0.18557   0.45867   0.00000  Uiso   1.00
C22    C     0.20761   0.33198   0.16680   0.00000  Uiso   1.00
C23    C     0.15876   0.18217   0.42124   0.00000  Uiso   1.00
C24    C     0.21964   0.23017   0.43124   0.00000  Uiso   1.00
C25    C     0.14049   0.16670   0.45879   0.00000  Uiso   1.00
C26    C     0.09716   0.17252   0.47872   0.00000  Uiso   1.00
C27    C     0.16456   0.14792   0.47805   0.00000  Uiso   1.00
C28    C     0.14982   0.14714   0.01979   0.00000  Uiso   1.00
C29    C     0.10699   0.15504   0.03926   0.00000  Uiso   1.00
C30    C     0.08064   0.16579   0.01857   0.00000  Uiso   1.00
Cl31   Cl    0.30001   0.10309   0.01331   0.00000  Uiso   1.00
Cl32   Cl    0.03014   0.19637   0.19530   0.00000  Uiso   1.00
Cl33   Cl    0.30853   0.13849   0.30819   0.00000  Uiso   1.00
Cl34   Cl    0.21078   0.10700   0.40725   0.00000  Uiso   1.00
H35    H     0.04757   0.17032   0.03420   0.00000  Uiso   1.00
H36    H     0.17995   0.01470   0.16661   0.00000  Uiso   1.00
H37    H     0.20096   0.29800   0.15868   0.00000  Uiso   1.00
H38    H     0.23659   0.01109   0.14427   0.00000  Uiso   1.00
H39    H     0.21631   0.19828   0.37799   0.00000  Uiso   1.00
H40    H     0.25507   0.23676   0.41939   0.00000  Uiso   1.00
H41    H     0.21251   0.22345   0.46248   0.00000  Uiso   1.00
H42    H     0.20464   0.25830   0.43000   0.00000  Uiso   1.00
H43    H     0.12733   0.33236   0.28607   0.00000  Uiso   1.00
H44    H     0.13894   0.15447   0.10021   0.00000  Uiso   1.00
H45    H     0.26143   0.12065   0.09469   0.00000  Uiso   1.00
H46    H     0.25723   0.10378   0.46027   0.00000  Uiso   1.00
H47    H     0.03750   0.18896   0.47333   0.00000  Uiso   1.00
H48    H     0.06579   0.19860   0.40296   0.00000  Uiso   1.00
H49    H     0.09228   0.15133   0.07018   0.00000  Uiso   1.00
H50    H     0.22744   0.03645   0.21151   0.00000  Uiso   1.00
N51    N     0.21524   0.00604   0.20535   0.00000  Uiso   1.00
N52    N     0.20400   0.19495   0.40773   0.00000  Uiso   1.00
O53    O     0.16667   0.16667   0.25000   0.00000  Uiso   1.00
O54    O     0.15693   0.12393   0.16625   0.00000  Uiso   1.00
O55    O     0.12687   0.20646   0.33749   0.00000  Uiso   1.00
O56    O     0.21088   0.17493   0.15877   0.00000  Uiso   1.00
O57    O     0.17198   0.16135   0.33749   0.00000  Uiso   1.00
O58    O     0.17849   0.08101   0.27820   0.00000  Uiso   1.00
O59    O     0.14581   0.26136   0.26767   0.00000  Uiso   1.00
O60    O     0.07452   0.13251   0.23607   0.00000  Uiso   1.00
O61    O     0.26785   0.19179   0.21805   0.00000  Uiso   1.00
O62    O     0.06990   0.18960   0.27820   0.00000  Uiso   1.00
O63    O     0.25440   0.15277   0.26767   0.00000  Uiso   1.00
O64    O     0.13800   0.06903   0.23607   0.00000  Uiso   1.00
O65    O     0.20437   0.25527   0.21805   0.00000  Uiso   1.00
Zn66   Zn    0.19244   0.14090   0.28277   0.00000  Uiso   1.00
Zn67   Zn    0.13459   0.12378   0.22257   0.00000  Uiso   1.00
Zn68   Zn    0.21166   0.19664   0.21188   0.00000  Uiso   1.00
Zn69   Zn    0.12798   0.20535   0.28277   0.00000  Uiso   1.00
C70    C     0.38617   0.16016   0.25867   0.00000  Uiso   1.00
C71    C     0.53480   0.12792   0.45716   0.00000  Uiso   1.00
C72    C     0.56199   0.11782   0.47730   0.00000  Uiso   1.00
C73    C     0.61440   0.17337   0.24128   0.00000  Uiso   1.00
C74    C     0.55228   0.12484   0.01849   0.00000  Uiso   1.00
C75    C     0.51162   0.13790   0.04033   0.00000  Uiso   1.00
C76    C     0.58198   0.11821   0.03844   0.00000  Uiso   1.00
C77    C     0.57160   0.12496   0.07951   0.00000  Uiso   1.00
C78    C     0.50178   0.14320   0.08194   0.00000  Uiso   1.00
C79    C     0.66020   0.17413   0.23696   0.00000  Uiso   1.00
C80    C     0.34100   0.15797   0.26342   0.00000  Uiso   1.00
C81    C     0.42079   0.19225   0.41888   0.00000  Uiso   1.00
C82    C     0.51433   0.32206   0.23643   0.00000  Uiso   1.00
C83    C     0.48618   0.01222   0.26214   0.00000  Uiso   1.00
C84    C     0.48893   0.05625   0.25944   0.00000  Uiso   1.00
C85    C     0.51016   0.27763   0.24093   0.00000  Uiso   1.00
C86    C     0.52160   0.14554   0.14394   0.00000  Uiso   1.00
C87    C     0.47897   0.18767   0.35621   0.00000  Uiso   1.00
C88    C     0.46446   0.18973   0.39960   0.00000  Uiso   1.00
C89    C     0.53158   0.13704   0.10114   0.00000  Uiso   1.00
C90    C     0.40438   0.18557   0.45867   0.00000  Uiso   1.00
C91    C     0.54094   0.33198   0.16680   0.00000  Uiso   1.00
C92    C     0.49209   0.18217   0.42124   0.00000  Uiso   1.00
C93    C     0.55298   0.23017   0.43124   0.00000  Uiso   1.00
C94    C     0.47383   0.16670   0.45879   0.00000  Uiso   1.00
C95    C     0.43050   0.17252   0.47872   0.00000  Uiso   1.00
C96    C     0.49789   0.14792   0.47805   0.00000  Uiso   1.00
C97    C     0.48316   0.14714   0.01979   0.00000  Uiso   1.00
C98    C     0.44032   0.15504   0.03926   0.00000  Uiso   1.00
C99    C     0.41397   0.16579   0.01857   0.00000  Uiso   1.00
Cl100  Cl    0.63334   0.10309   0.01331   0.00000  Uiso   1.00
Cl101  Cl    0.36348   0.19637   0.19530   0.00000  Uiso   1.00
Cl102  Cl    0.64186   0.13849   0.30819   0.00000  Uiso   1.00
Cl103  Cl    0.54411   0.10700   0.40725   0.00000  Uiso   1.00
H104   H     0.38090   0.17032   0.03420   0.00000  Uiso   1.00
H105   H     0.51328   0.01470   0.16661   0.00000  Uiso   1.00
H106   H     0.53429   0.29800   0.15868   0.00000  Uiso   1.00
H107   H     0.56993   0.01109   0.14427   0.00000  Uiso   1.00
H108   H     0.54964   0.19828   0.37799   0.00000  Uiso   1.00
H109   H     0.58840   0.23676   0.41939   0.00000  Uiso   1.00
H110   H     0.54585   0.22345   0.46248   0.00000  Uiso   1.00
H111   H     0.53797   0.25830   0.43000   0.00000  Uiso   1.00
H112   H     0.46066   0.33236   0.28607   0.00000  Uiso   1.00
H113   H     0.47227   0.15447   0.10021   0.00000  Uiso   1.00
H114   H     0.59476   0.12065   0.09469   0.00000  Uiso   1.00
H115   H     0.59056   0.10378   0.46027   0.00000  Uiso   1.00
H116   H     0.37083   0.18896   0.47333   0.00000  Uiso   1.00
H117   H     0.39912   0.19860   0.40296   0.00000  Uiso   1.00
H118   H     0.42562   0.15133   0.07018   0.00000  Uiso   1.00
H119   H     0.56077   0.03645   0.21151   0.00000  Uiso   1.00
N120   N     0.54858   0.00604   0.20535   0.00000  Uiso   1.00
N121   N     0.53734   0.19495   0.40773   0.00000  Uiso   1.00
O122   O     0.50000   0.16667   0.25000   0.00000  Uiso   1.00
O123   O     0.49027   0.12393   0.16625   0.00000  Uiso   1.00
O124   O     0.46020   0.20646   0.33749   0.00000  Uiso   1.00
O125   O     0.54421   0.17493   0.15877   0.00000  Uiso   1.00
O126   O     0.50532   0.16135   0.33749   0.00000  Uiso   1.00
O127   O     0.51182   0.08101   0.27820   0.00000  Uiso   1.00
O128   O     0.47914   0.26136   0.26767   0.00000  Uiso   1.00
O129   O     0.40785   0.13251   0.23607   0.00000  Uiso   1.00
O130   O     0.60119   0.19179   0.21805   0.00000  Uiso   1.00
O131   O     0.40323   0.18960   0.27820   0.00000  Uiso   1.00
O132   O     0.58773   0.15277   0.26767   0.00000  Uiso   1.00
O133   O     0.47133   0.06903   0.23607   0.00000  Uiso   1.00
O134   O     0.53771   0.25527   0.21805   0.00000  Uiso   1.00
Zn135  Zn    0.52577   0.14090   0.28277   0.00000  Uiso   1.00
Zn136  Zn    0.46792   0.12378   0.22257   0.00000  Uiso   1.00
Zn137  Zn    0.54500   0.19664   0.21188   0.00000  Uiso   1.00
Zn138  Zn    0.46131   0.20535   0.28277   0.00000  Uiso   1.00
C139   C     0.71951   0.16016   0.25867   0.00000  Uiso   1.00
C140   C     0.86813   0.12792   0.45716   0.00000  Uiso   1.00
C141   C     0.89532   0.11782   0.47730   0.00000  Uiso   1.00
C142   C     0.94774   0.17337   0.24128   0.00000  Uiso   1.00
C143   C     0.88561   0.12484   0.01849   0.00000  Uiso   1.00
C144   C     0.84496   0.13790   0.04033   0.00000  Uiso   1.00
C145   C     0.91532   0.11821   0.03844   0.00000  Uiso   1.00
C146   C     0.90494   0.12496   0.07951   0.00000  Uiso   1.00
C147   C     0.83512   0.14320   0.08194   0.00000  Uiso   1.00
C148   C     0.99354   0.17413   0.23696   0.00000  Uiso   1.00
C149   C     0.67433   0.15797   0.26342   0.00000  Uiso   1.00
C150   C     0.75412   0.19225   0.41888   0.00000  Uiso   1.00
C151   C     0.84767   0.32206   0.23643   0.00000  Uiso   1.00
C152   C     0.81952   0.01222   0.26214   0.00000  Uiso   1.00
C153   C     0.82226   0.05625   0.25944   0.00000  Uiso   1.00
C154   C     0.84349   0.27763   0.24093   0.00000  Uiso   1.00
C155   C     0.85493   0.14554   0.14394   0.00000  Uiso   1.00
C156   C     0.81230   0.18767   0.35621   0.00000  Uiso   1.00
C157   C     0.79780   0.18973   0.39960   0.00000  Uiso   1.00
C158   C     0.86491   0.13704   0.10114   0.00000  Uiso   1.00
C159   C     0.73771   0.18557   0.45867   0.00000  Uiso   1.00
C160   C     0.87428   0.33198   0.16680   0.00000  Uiso   1.00
C161   C     0.82543   0.18217   0.42124   0.00000  Uiso   1.00
C162   C     0.88631   0.23017   0.43124   0.00000  Uiso   1.00
C163   C     0.80716   0.16670   0.45879   0.00000  Uiso   1.00
C164   C     0.76383   0.17252   0.47872   0.00000  Uiso   1.00
C165   C     0.83123   0.14792   0.47805   0.00000  Uiso   1.00
C166   C     0.81649   0.14714   0.01979   0.00000  Uiso   1.00
C167   C     0.77366   0.15504   0.03926   0.00000  Uiso   1.00
C168   C     0.74730   0.16579   0.01857   0.00000  Uiso   1.00
Cl169  Cl    0.96668   0.10309   0.01331   0.00000  Uiso   1.00
Cl170  Cl    0.69681   0.19637   0.19530   0.00000  Uiso   1.00
Cl171  Cl    0.97519   0.13849   0.30819   0.00000  Uiso   1.00
Cl172  Cl    0.87745   0.10700   0.40725   0.00000  Uiso   1.00
H173   H     0.71423   0.17032   0.03420   0.00000  Uiso   1.00
H174   H     0.84661   0.01470   0.16661   0.00000  Uiso   1.00
H175   H     0.86763   0.29800   0.15868   0.00000  Uiso   1.00
H176   H     0.90326   0.01109   0.14427   0.00000  Uiso   1.00
H177   H     0.88298   0.19828   0.37799   0.00000  Uiso   1.00
H178   H     0.92174   0.23676   0.41939   0.00000  Uiso   1.00
H179   H     0.87918   0.22345   0.46248   0.00000  Uiso   1.00
H180   H     0.87131   0.25830   0.43000   0.00000  Uiso   1.00
H181   H     0.79400   0.33236   0.28607   0.00000  Uiso   1.00
H182   H     0.80560   0.15447   0.10021   0.00000  Uiso   1.00
H183   H     0.92810   0.12065   0.09469   0.00000  Uiso   1.00
H184   H     0.92390   0.10378   0.46027   0.00000  Uiso   1.00
H185   H     0.70416   0.18896   0.47333   0.00000  Uiso   1.00
H186   H     0.73246   0.19860   0.40296   0.00000  Uiso   1.00
H187   H     0.75895   0.15133   0.07018   0.00000  Uiso   1.00
H188   H     0.89411   0.03645   0.21151   0.00000  Uiso   1.00
N189   N     0.88191   0.00604   0.20535   0.00000  Uiso   1.00
N190   N     0.87067   0.19495   0.40773   0.00000  Uiso   1.00
O191   O     0.83333   0.16667   0.25000   0.00000  Uiso   1.00
O192   O     0.82360   0.12393   0.16625   0.00000  Uiso   1.00
O193   O     0.79354   0.20646   0.33749   0.00000  Uiso   1.00
O194   O     0.87755   0.17493   0.15877   0.00000  Uiso   1.00
O195   O     0.83865   0.16135   0.33749   0.00000  Uiso   1.00
O196   O     0.84515   0.08101   0.27820   0.00000  Uiso   1.00
O197   O     0.81247   0.26136   0.26767   0.00000  Uiso   1.00
O198   O     0.74119   0.13251   0.23607   0.00000  Uiso   1.00
O199   O     0.93452   0.19179   0.21805   0.00000  Uiso   1.00
O200   O     0.73656   0.18960   0.27820   0.00000  Uiso   1.00
O201   O     0.92106   0.15277   0.26767   0.00000  Uiso   1.00
O202   O     0.80467   0.06903   0.23607   0.00000  Uiso   1.00
O203   O     0.87104   0.25527   0.21805   0.00000  Uiso   1.00
Zn204  Zn    0.85910   0.14090   0.28277   0.00000  Uiso   1.00
Zn205  Zn    0.80125   0.12378   0.22257   0.00000  Uiso   1.00
Zn206  Zn    0.87833   0.19664   0.21188   0.00000  Uiso   1.00
Zn207  Zn    0.79465   0.20535   0.28277   0.00000  Uiso   1.00
C208   C     0.05284   0.49349   0.25867   0.00000  Uiso   1.00
C209   C     0.20146   0.46126   0.45716   0.00000  Uiso   1.00
C210   C     0.22866   0.45116   0.47730   0.00000  Uiso   1.00
C211   C     0.28107   0.50670   0.24128   0.00000  Uiso   1.00
C212   C     0.21894   0.45818   0.01849   0.00000  Uiso   1.00
C213   C     0.17829   0.47123   0.04033   0.00000  Uiso   1.00
C214   C     0.24865   0.45155   0.03844   0.00000  Uiso   1.00
C215   C     0.23827   0.45829   0.07951   0.00000  Uiso   1.00
C216   C     0.16845   0.47653   0.08194   0.00000  Uiso   1.00
C217   C     0.32687   0.50747   0.23696   0.00000  Uiso   1.00
C218   C     0.00767   0.49131   0.26342   0.00000  Uiso   1.00
C219   C     0.08746   0.52559   0.41888   0.00000  Uiso   1.00
C220   C     0.18100   0.65540   0.23643   0.00000  Uiso   1.00
C221   C     0.15285   0.34555   0.26214   0.00000  Uiso   1.00
C222   C     0.15560   0.38959   0.25944   0.00000  Uiso   1.00
C223   C     0.17683   0.61096   0.24093   0.00000  Uiso   1.00
C224   C     0.18826   0.47887   0.14394   0.00000  Uiso   1.00
C225   C     0.14564   0.52101   0.35621   0.00000  Uiso   1.00
C226   C     0.13113   0.52306   0.39960   0.00000  Uiso   1.00
C227   C     0.19824   0.47037   0.10114   0.00000  Uiso   1.00
C228   C     0.07104   0.51891   0.45867   0.00000  Uiso   1.00
C229   C     0.20761   0.66532   0.16680   0.00000  Uiso   1.00
C230   C     0.15876   0.51551   0.42124   0.00000  Uiso   1.00
C231   C     0.21964   0.56350   0.43124   0.00000  Uiso   1.00
C232   C     0.14049   0.50003   0.45879   0.00000  Uiso   1.00
C233   C     0.09716   0.50586   0.47872   0.00000  Uiso   1.00
C234   C     0.16456   0.48125   0.47805   0.00000  Uiso   1.00
C235   C     0.14982   0.48047   0.01979   0.00000  Uiso   1.00
C236   C     0.10699   0.48838   0.03926   0.00000  Uiso   1.00
C237   C     0.08064   0.49912   0.01857   0.00000  Uiso   1.00
Cl238  Cl    0.30001   0.43642   0.01331   0.00000  Uiso   1.00
Cl239  Cl    0.03014   0.52970   0.19530   0.00000  Uiso   1.00
Cl240  Cl    0.30853   0.47182   0.30819   0.00000  Uiso   1.00
Cl241  Cl    0.21078   0.44033   0.40725   0.00000  Uiso   1.00
H242   H     0.04757   0.50366   0.03420   0.00000  Uiso   1.00
H243   H     0.17995   0.34803   0.16661   0.00000  Uiso   1.00
H244   H     0.20096   0.63133   0.15868   0.00000  Uiso   1.00
H245   H     0.23659   0.34443   0.14427   0.00000  Uiso   1.00
H246   H     0.21631   0.53161   0.37799   0.00000  Uiso   1.00
H247   H     0.25507   0.57010   0.41939   0.00000  Uiso   1.00
H248   H     0.21251   0.55678   0.46248   0.00000  Uiso   1.00
H249   H     0.20464   0.59164   0.43000   0.00000  Uiso   1.00
H250   H     0.12733   0.66569   0.28607   0.00000  Uiso   1.00
H251   H     0.13894   0.48781   0.10021   0.00000  Uiso   1.00
H252   H     0.26143   0.45398   0.09469   0.00000  Uiso   1.00
H253   H     0.25723   0.43711   0.46027   0.00000  Uiso   1.00
H254   H     0.03750   0.52229   0.47333   0.00000  Uiso   1.00
H255   H     0.06579   0.53194   0.40296   0.00000  Uiso   1.00
H256   H     0.09228   0.48466   0.07018   0.00000  Uiso   1.00
H257   H     0.22744   0.36979   0.21151   0.00000  Uiso   1.00
N258   N     0.21524   0.33937   0.20535   0.00000  Uiso   1.00
N259   N     0.20400   0.52828   0.40773   0.00000  Uiso   1.00
O260   O     0.16667   0.50000   0.25000   0.00000  Uiso   1.00
O261   O     0.15693   0.45726   0.16625   0.00000  Uiso   1.00
O262   O     0.12687   0.53979   0.33749   0.00000  Uiso   1.00
O263   O     0.21088   0.50826   0.15877   0.00000  Uiso   1.00
O264   O     0.17198   0.49468   0.33749   0.00000  Uiso   1.00
O265   O     0.17849   0.41434   0.27820   0.00000  Uiso   1.00
O266   O     0.14581   0.59469   0.26767   0.00000  Uiso   1.00
O267   O     0.07452   0.46584   0.23607   0.00000  Uiso   1.00
O268   O     0.26785   0.52512   0.21805   0.00000  Uiso   1.00
O269   O     0.06990   0.52293   0.27820   0.00000  Uiso   1.00
O270   O     0.25440   0.48610   0.26767   0.00000  Uiso   1.00
O271   O     0.13800   0.40236   0.23607   0.00000  Uiso   1.00
O272   O     0.20437   0.58860   0.21805   0.00000  Uiso   1.00
Zn273  Zn    0.19244   0.47423   0.28277   0.00000  Uiso   1.00
Zn274  Zn    0.13459   0.45711   0.22257   0.00000  Uiso   1.00
Zn275  Zn    0.21166   0.52997   0.21188   0.00000  Uiso   1.00
Zn276  Zn    0.12798   0.53868   0.28277   0.00000  Uiso   1.00
C277   C     0.38617   0.49349   0.25867   0.00000  Uiso   1.00
C278   C     0.53480   0.46126   0.45716   0.00000  Uiso   1.00
C279   C     0.56199   0.45116   0.47730   0.00000  Uiso   1.00
C280   C     0.61440   0.50670   0.24128   0.00000  Uiso   1.00
C281   C     0.55228   0.45818   0.01849   0.00000  Uiso   1.00
C282   C     0.51162   0.47123   0.04033   0.00000  Uiso   1.00
C283   C     0.58198   0.45155   0.03844   0.00000  Uiso   1.00
C284   C     0.57160   0.45829   0.07951   0.00000  Uiso   1.00
C285   C     0.50178   0.47653   0.08194   0.00000  Uiso   1.00
C286   C     0.66020   0.50747   0.23696   0.00000  Uiso   1.00
C287   C     0.34100   0.49131   0.26342   0.00000  Uiso   1.00
C288   C     0.42079   0.52559   0.41888   0.00000  Uiso   1.00
C289   C     0.51433   0.65540   0.23643   0.00000  Uiso   1.00
C290   C     0.48618   0.34555   0.26214   0.00000  Uiso   1.00
C291   C     0.48893   0.38959   0.25944   0.00000  Uiso   1.00
C292   C     0.51016   0.61096   0.24093   0.00000  Uiso   1.00
C293   C     0.52160   0.47887   0.14394   0.00000  Uiso   1.00
C294   C     0.47897   0.52101   0.35621   0.00000  Uiso   1.00
C295   C     0.46446   0.52306   0.39960   0.00000  Uiso   1.00
C296   C     0.53158   0.47037   0.10114   0.00000  Uiso   1.00
C297   C     0.40438   0.51891   0.45867   0.00000  Uiso   1.00
C298   C     0.54094   0.66532   0.16680   0.00000  Uiso   1.00
C299   C     0.49209   0.51551   0.42124   0.00000  Uiso   1.00
C300   C     0.55298   0.56350   0.43124   0.00000  Uiso   1.00
C301   C     0.47383   0.50003   0.45879   0.00000  Uiso   1.00
C302   C     0.43050   0.50586   0.47872   0.00000  Uiso   1.00
C303   C     0.49789   0.48125   0.47805   0.00000  Uiso   1.00
C304   C     0.48316   0.48047   0.01979   0.00000  Uiso   1.00
C305   C     0.44032   0.48838   0.03926   0.00000  Uiso   1.00
C306   C     0.41397   0.49912   0.01857   0.00000  Uiso   1.00
Cl307  Cl    0.63334   0.43642   0.01331   0.00000  Uiso   1.00
Cl308  Cl    0.36348   0.52970   0.19530   0.00000  Uiso   1.00
Cl309  Cl    0.64186   0.47182   0.30819   0.00000  Uiso   1.00
Cl310  Cl    0.54411   0.44033   0.40725   0.00000  Uiso   1.00
H311   H     0.38090   0.50366   0.03420   0.00000  Uiso   1.00
H312   H     0.51328   0.34803   0.16661   0.00000  Uiso   1.00
H313   H     0.53429   0.63133   0.15868   0.00000  Uiso   1.00
H314   H     0.56993   0.34443   0.14427   0.00000  Uiso   1.00
H315   H     0.54964   0.53161   0.37799   0.00000  Uiso   1.00
H316   H     0.58840   0.57010   0.41939   0.00000  Uiso   1.00
H317   H     0.54585   0.55678   0.46248   0.00000  Uiso   1.00
H318   H     0.53797   0.59164   0.43000   0.00000  Uiso   1.00
H319   H     0.46066   0.66569   0.28607   0.00000  Uiso   1.00
H320   H     0.47227   0.48781   0.10021   0.00000  Uiso   1.00
H321   H     0.59476   0.45398   0.09469   0.00000  Uiso   1.00
H322   H     0.59056   0.43711   0.46027   0.00000  Uiso   1.00
H323   H     0.37083   0.52229   0.47333   0.00000  Uiso   1.00
H324   H     0.39912   0.53194   0.40296   0.00000  Uiso   1.00
H325   H     0.42562   0.48466   0.07018   0.00000  Uiso   1.00
H326   H     0.56077   0.36979   0.21151   0.00000  Uiso   1.00
N327   N     0.54858   0.33937   0.20535   0.00000  Uiso   1.00
N328   N     0.53734   0.52828   0.40773   0.00000  Uiso   1.00
O329   O     0.50000   0.50000   0.25000   0.00000  Uiso   1.00
O330   O     0.49027   0.45726   0.16625   0.00000  Uiso   1.00
O331   O     0.46020   0.53979   0.33749   0.00000  Uiso   1.00
O332   O     0.54421   0.50826   0.15877   0.00000  Uiso   1.00
O333   O     0.50532   0.49468   0.33749   0.00000  Uiso   1.00
O334   O     0.51182   0.41434   0.27820   0.00000  Uiso   1.00
O335   O     0.47914   0.59469   0.26767   0.00000  Uiso   1.00
O336   O     0.40785   0.46584   0.23607   0.00000  Uiso   1.00
O337   O     0.60119   0.52512   0.21805   0.00000  Uiso   1.00
O338   O     0.40323   0.52293   0.27820   0.00000  Uiso   1.00
O339   O     0.58773   0.48610   0.26767   0.00000  Uiso   1.00
O340   O     0.47133   0.40236   0.23607   0.00000  Uiso   1.00
O341   O     0.53771   0.58860   0.21805   0.00000  Uiso   1.00
Zn342  Zn    0.52577   0.47423   0.28277   0.00000  Uiso   1.00
Zn343  Zn    0.46792   0.45711   0.22257   0.00000  Uiso   1.00
Zn344  Zn    0.54500   0.52997   0.21188   0.00000  Uiso   1.00
Zn345  Zn    0.46131   0.53868   0.28277   0.00000  Uiso   1.00
C346   C     0.71951   0.49349   0.25867   0.00000  Uiso   1.00
C347   C     0.86813   0.46126   0.45716   0.00000  Uiso   1.00
C348   C     0.89532   0.45116   0.47730   0.00000  Uiso   1.00
C349   C     0.94774   0.50670   0.24128   0.00000  Uiso   1.00
C350   C     0.88561   0.45818   0.01849   0.00000  Uiso   1.00
C351   C     0.84496   0.47123   0.04033   0.00000  Uiso   1.00
C352   C     0.91532   0.45155   0.03844   0.00000  Uiso   1.00
C353   C     0.90494   0.45829   0.07951   0.00000  Uiso   1.00
C354   C     0.83512   0.47653   0.08194   0.00000  Uiso   1.00
C355   C     0.99354   0.50747   0.23696   0.00000  Uiso   1.00
C356   C     0.67433   0.49131   0.26342   0.00000  Uiso   1.00
C357   C     0.75412   0.52559   0.41888   0.00000  Uiso   1.00
C358   C     0.84767   0.65540   0.23643   0.00000  Uiso   1.00
C359   C     0.81952   0.34555   0.26214   0.00000  Uiso   1.00
C360   C     0.82226   0.38959   0.25944   0.00000  Uiso   1.00
C361   C     0.84349   0.61096   0.24093   0.00000  Uiso   1.00
C362   C     0.85493   0.47887   0.14394   0.00000  Uiso   1.00
C363   C     0.81230   0.52101   0.35621   0.00000  Uiso   1.00
C364   C     0.79780   0.52306   0.39960   0.00000  Uiso   1.00
C365   C     0.86491   0.47037   0.10114   0.00000  Uiso   1.00
C366   C     0.73771   0.51891   0.45867   0.00000  Uiso   1.00
C367   C     0.87428   0.66532   0.16680   0.00000  Uiso   1.00
C368   C     0.82543   0.51551   0.42124   0.00000  Uiso   1.00
C369   C     0.88631   0.56350   0.43124   0.00000  Uiso   1.00
C370   C     0.80716   0.50003   0.45879   0.00000  Uiso   1.00
C371   C     0.76383   0.50586   0.47872   0.00000  Uiso   1.00
C372   C     0.83123   0.48125   0.47805   0.00000  Uiso   1.00
C373   C     0.81649   0.48047   0.01979   0.00000  Uiso   1.00
C374   C     0.77366   0.48838   0.03926   0.00000  Uiso   1.00
C375   C     0.74730   0.49912   0.01857   0.00000  Uiso   1.00
Cl376  Cl    0.96668   0.43642   0.01331   0.00000  Uiso   1.00
Cl377  Cl    0.69681   0.52970   0.19530   0.00000  Uiso   1.00
Cl378  Cl    0.97519   0.47182   0.30819   0.00000  Uiso   1.00
Cl379  Cl    0.87745   0.44033   0.40725   0.00000  Uiso   1.00
H380   H     0.71423   0.50366   0.03420   0.00000  Uiso   1.00
H381   H     0.84661   0.34803   0.16661   0.00000  Uiso   1.00
H382   H     0.86763   0.63133   0.15868   0.00000  Uiso   1.00
H383   H     0.90326   0.34443   0.14427   0.00000  Uiso   1.00
H384   H     0.88298   0.53161   0.37799   0.00000  Uiso   1.00
H385   H     0.92174   0.57010   0.41939   0.00000  Uiso   1.00
H386   H     0.87918   0.55678   0.46248   0.00000  Uiso   1.00
H387   H     0.87131   0.59164   0.43000   0.00000  Uiso   1.00
H388   H     0.79400   0.66569   0.28607   0.00000  Uiso   1.00
H389   H     0.80560   0.48781   0.10021   0.00000  Uiso   1.00
H390   H     0.92810   0.45398   0.09469   0.00000  Uiso   1.00
H391   H     0.92390   0.43711   0.46027   0.00000  Uiso   1.00
H392   H     0.70416   0.52229   0.47333   0.00000  Uiso   1.00
H393   H     0.73246   0.53194   0.40296   0.00000  Uiso   1.00
H394   H     0.75895   0.48466   0.07018   0.00000  Uiso   1.00
H395   H     0.89411   0.36979   0.21151   0.00000  Uiso   1.00
N396   N     0.88191   0.33937   0.20535   0.00000  Uiso   1.00
N397   N     0.87067   0.52828   0.40773   0.00000  Uiso   1.00
O398   O     0.83333   0.50000   0.25000   0.00000  Uiso   1.00
O399   O     0.82360   0.45726   0.16625   0.00000  Uiso   1.00
O400   O     0.79354   0.53979   0.33749   0.00000  Uiso   1.00
O401   O     0.87755   0.50826   0.15877   0.00000  Uiso   1.00
O402   O     0.83865   0.49468   0.33749   0.00000  Uiso   1.00
O403   O     0.84515   0.41434   0.27820   0.00000  Uiso   1.00
O404   O     0.81247   0.59469   0.26767   0.00000  Uiso   1.00
O405   O     0.74119   0.46584   0.23607   0.00000  Uiso   1.00
O406   O     0.93452   0.52512   0.21805   0.00000  Uiso   1.00
O407   O     0.73656   0.52293   0.27820   0.00000  Uiso   1.00
O408   O     0.92106   0.48610   0.26767   0.00000  Uiso   1.00
O409   O     0.80467   0.40236   0.23607   0.00000  Uiso   1.00
O410   O     0.87104   0.58860   0.21805   0.00000  Uiso   1.00
Zn411  Zn    0.85910   0.47423   0.28277   0.00000  Uiso   1.00
Zn412  Zn    0.80125   0.45711   0.22257   0.00000  Uiso   1.00
Zn413  Zn    0.87833   0.52997   0.21188   0.00000  Uiso   1.00
Zn414  Zn    0.79465   0.53868   0.28277   0.00000  Uiso   1.00
C415   C     0.05284   0.82683   0.25867   0.00000  Uiso   1.00
C416   C     0.20146   0.79459   0.45716   0.00000  Uiso   1.00
C417   C     0.22866   0.78449   0.47730   0.00000  Uiso   1.00
C418   C     0.28107   0.84004   0.24128   0.00000  Uiso   1.00
C419   C     0.21894   0.79151   0.01849   0.00000  Uiso   1.00
C420   C     0.17829   0.80456   0.04033   0.00000  Uiso   1.00
C421   C     0.24865   0.78488   0.03844   0.00000  Uiso   1.00
C422   C     0.23827   0.79163   0.07951   0.00000  Uiso   1.00
C423   C     0.16845   0.80987   0.08194   0.00000  Uiso   1.00
C424   C     0.32687   0.84080   0.23696   0.00000  Uiso   1.00
C425   C     0.00767   0.82464   0.26342   0.00000  Uiso   1.00
C426   C     0.08746   0.85892   0.41888   0.00000  Uiso   1.00
C427   C     0.18100   0.98873   0.23643   0.00000  Uiso   1.00
C428   C     0.15285   0.67889   0.26214   0.00000  Uiso   1.00
C429   C     0.15560   0.72292   0.25944   0.00000  Uiso   1.00
C430   C     0.17683   0.94430   0.24093   0.00000  Uiso   1.00
C431   C     0.18826   0.81221   0.14394   0.00000  Uiso   1.00
C432   C     0.14564   0.85434   0.35621   0.00000  Uiso   1.00
C433   C     0.13113   0.85639   0.39960   0.00000  Uiso   1.00
C434   C     0.19824   0.80371   0.10114   0.00000  Uiso   1.00
C435   C     0.07104   0.85224   0.45867   0.00000  Uiso   1.00
C436   C     0.20761   0.99865   0.16680   0.00000  Uiso   1.00
C437   C     0.15876   0.84884   0.42124   0.00000  Uiso   1.00
C438   C     0.21964   0.89684   0.43124   0.00000  Uiso   1.00
C439   C     0.14049   0.83337   0.45879   0.00000  Uiso   1.00
C440   C     0.09716   0.83919   0.47872   0.00000  Uiso   1.00
C441   C     0.16456   0.81458   0.47805   0.00000  Uiso   1.00
C442   C     0.14982   0.81381   0.01979   0.00000  Uiso   1.00
C443   C     0.10699   0.82171   0.03926   0.00000  Uiso   1.00
C444   C     0.08064   0.83246   0.01857   0.00000  Uiso   1.00
Cl445  Cl    0.30001   0.76975   0.01331   0.00000  Uiso   1.00
Cl446  Cl    0.03014   0.86303   0.19530   0.00000  Uiso   1.00
Cl447  Cl    0.30853   0.80516   0.30819   0.00000  Uiso   1.00
Cl448  Cl    0.21078   0.77366   0.40725   0.00000  Uiso   1.00
H449   H     0.04757   0.83699   0.03420   0.00000  Uiso   1.00
H450   H     0.17995   0.68136   0.16661   0.00000  Uiso   1.00
H451   H     0.20096   0.96466   0.15868   0.00000  Uiso   1.00
H452   H     0.23659   0.67776   0.14427   0.00000  Uiso   1.00
H453   H     0.21631   0.86494   0.37799   0.00000  Uiso   1.00
H454   H     0.25507   0.90343   0.41939   0.00000  Uiso   1.00
H455   H     0.21251   0.89012   0.46248   0.00000  Uiso   1.00
H456   H     0.20464   0.92497   0.43000   0.00000  Uiso   1.00
H457   H     0.12733   0.99903   0.28607   0.00000  Uiso   1.00
H458   H     0.13894   0.82114   0.10021   0.00000  Uiso   1.00
H459   H     0.26143   0.78731   0.09469   0.00000  Uiso   1.00
H460   H     0.25723   0.77044   0.46027   0.00000  Uiso   1.00
H461   H     0.03750   0.85562   0.47333   0.00000  Uiso   1.00
H462   H     0.06579   0.86527   0.40296   0.00000  Uiso   1.00
H463   H     0.09228   0.81800   0.07018   0.00000  Uiso   1.00
H464   H     0.22744   0.70312   0.21151   0.00000  Uiso   1.00
N465   N     0.21524   0.67270   0.20535   0.00000  Uiso   1.00
N466   N     0.20400   0.86162   0.40773   0.00000  Uiso   1.00
O467   O     0.16667   0.83333   0.25000   0.00000  Uiso   1.00
O468   O     0.15693   0.79060   0.16625   0.00000  Uiso   1.00
O469   O     0.12687   0.87313   0.33749   0.00000  Uiso   1.00
O470   O     0.21088   0.84159   0.15877   0.00000  Uiso   1.00
O471   O     0.17198   0.82802   0.33749   0.00000  Uiso   1.00
O472   O     0.17849   0.74768   0.27820   0.00000  Uiso   1.00
O473   O     0.14581   0.92803   0.26767   0.00000  Uiso   1.00
O474   O     0.07452   0.79917   0.23607   0.00000  Uiso   1.00
O475   O     0.26785   0.85845   0.21805   0.00000  Uiso   1.00
O476   O     0.06990   0.85627   0.27820   0.00000  Uiso   1.00
O477   O     0.25440   0.81944   0.26767   0.00000  Uiso   1.00
O478   O     0.13800   0.73570   0.23607   0.00000  Uiso   1.00
O479   O     0.20437   0.92193   0.21805   0.00000  Uiso   1.00
Zn480  Zn    0.19244   0.80756   0.28277   0.00000  Uiso   1.00
Zn481  Zn    0.13459   0.79044   0.22257   0.00000  Uiso   1.00
Zn482  Zn    0.21166   0.86331   0.21188   0.00000  Uiso   1.00
Zn483  Zn    0.12798   0.87202   0.28277   0.00000  Uiso   1.00
C484   C     0.38617   0.82683   0.25867   0.00000  Uiso   1.00
C485   C     0.53480   0.79459   0.45716   0.00000  Uiso   1.00
C486   C     0.56199   0.78449   0.47730   0.00000  Uiso   1.00
C487   C     0.61440   0.84004   0.24128   0.00000  Uiso   1.00
C488   C     0.55228   0.79151   0.01849   0.00000  Uiso   1.00
C489   C     0.51162   0.80456   0.04033   0.00000  Uiso   1.00
C490   C     0.58198   0.78488   0.03844   0.00000  Uiso   1.00
C491   C     0.57160   0.79163   0.07951   0.00000  Uiso   1.00
C492   C     0.50178   0.80987   0.08194   0.00000  Uiso   1.00
C493   C     0.66020   0.84080   0.23696   0.00000  Uiso   1.00
C494   C     0.34100   0.82464   0.26342   0.00000  Uiso   1.00
C495   C     0.42079   0.85892   0.41888   0.00000  Uiso   1.00
C496   C     0.51433   0.98873   0.23643   0.00000  Uiso   1.00
C497   C     0.48618   0.67889   0.26214   0.00000  Uiso   1.00
C498   C     0.48893   0.72292   0.25944   0.00000  Uiso   1.00
C499   C     0.51016   0.94430   0.24093   0.00000  Uiso   1.00
C500   C     0.52160   0.81221   0.14394   0.00000  Uiso   1.00
C501   C     0.47897   0.85434   0.35621   0.00000  Uiso   1.00
C502   C     0.46446   0.85639   0.39960   0.00000  Uiso   1.00
C503   C     0.53158   0.80371   0.10114   0.00000  Uiso   1.00
C504   C     0.40438   0.85224   0.45867   0.00000  Uiso   1.00
C505   C     0.54094   0.99865   0.16680   0.00000  Uiso   1.00
C506   C     0.49209   0.84884   0.42124   0.00000  Uiso   1.00
C507   C     0.55298   0.89684   0.43124   0.00000  Uiso   1.00
C508   C     0.47383   0.83337   0.45879   0.00000  Uiso   1.00
C509   C     0.43050   0.83919   0.47872   0.00000  Uiso   1.00
C510   C     0.49789   0.81458   0.47805   0.00000  Uiso   1.00
C511   C     0.48316   0.81381   0.01979   0.00000  Uiso   1.00
C512   C     0.44032   0.82171   0.03926   0.00000  Uiso   1.00
C513   C     0.41397   0.83246   0.01857   0.00000  Uiso   1.00
Cl514  Cl    0.63334   0.76975   0.01331   0.00000  Uiso   1.00
Cl515  Cl    0.36348   0.86303   0.19530   0.00000  Uiso   1.00
Cl516  Cl    0.64186   0.80516   0.30819   0.00000  Uiso   1.00
Cl517  Cl    0.54411   0.77366   0.40725   0.00000  Uiso   1.00
H518   H     0.38090   0.83699   0.03420   0.00000  Uiso   1.00
H519   H     0.51328   0.68136   0.16661   0.00000  Uiso   1.00
H520   H     0.53429   0.96466   0.15868   0.00000  Uiso   1.00
H521   H     0.56993   0.67776   0.14427   0.00000  Uiso   1.00
H522   H     0.54964   0.86494   0.37799   0.00000  Uiso   1.00
H523   H     0.58840   0.90343   0.41939   0.00000  Uiso   1.00
H524   H     0.54585   0.89012   0.46248   0.00000  Uiso   1.00
H525   H     0.53797   0.92497   0.43000   0.00000  Uiso   1.00
H526   H     0.46066   0.99903   0.28607   0.00000  Uiso   1.00
H527   H     0.47227   0.82114   0.10021   0.00000  Uiso   1.00
H528   H     0.59476   0.78731   0.09469   0.00000  Uiso   1.00
H529   H     0.59056   0.77044   0.46027   0.00000  Uiso   1.00
H530   H     0.37083   0.85562   0.47333   0.00000  Uiso   1.00
H531   H     0.39912   0.86527   0.40296   0.00000  Uiso   1.00
H532   H     0.42562   0.81800   0.07018   0.00000  Uiso   1.00
H533   H     0.56077   0.70312   0.21151   0.00000  Uiso   1.00
N534   N     0.54858   0.67270   0.20535   0.00000  Uiso   1.00
N535   N     0.53734   0.86162   0.40773   0.00000  Uiso   1.00
O536   O     0.50000   0.83333   0.25000   0.00000  Uiso   1.00
O537   O     0.49027   0.79060   0.16625   0.00000  Uiso   1.00
O538   O     0.46020   0.87313   0.33749   0.00000  Uiso   1.00
O539   O     0.54421   0.84159   0.15877   0.00000  Uiso   1.00
O540   O     0.50532   0.82802   0.33749   0.00000  Uiso   1.00
O541   O     0.51182   0.74768   0.27820   0.00000  Uiso   1.00
O542   O     0.47914   0.92803   0.26767   0.00000  Uiso   1.00
O543   O     0.40785   0.79917   0.23607   0.00000  Uiso   1.00
O544   O     0.60119   0.85845   0.21805   0.00000  Uiso   1.00
O545   O     0.40323   0.85627   0.27820   0.00000  Uiso   1.00
O546   O     0.58773   0.81944   0.26767   0.00000  Uiso   1.00
O547   O     0.47133   0.73570   0.23607   0.00000  Uiso   1.00
O548   O     0.53771   0.92193   0.21805   0.00000  Uiso   1.00
Zn549  Zn    0.52577   0.80756   0.28277   0.00000  Uiso   1.00
Zn550  Zn    0.46792   0.79044   0.22257   0.00000  Uiso   1.00
Zn551  Zn    0.54500   0.86331   0.21188   0.00000  Uiso   1.00
Zn552  Zn    0.46131   0.87202   0.28277   0.00000  Uiso   1.00
C553   C     0.71951   0.82683   0.25867   0.00000  Uiso   1.00
C554   C     0.86813   0.79459   0.45716   0.00000  Uiso   1.00
C555   C     0.89532   0.78449   0.47730   0.00000  Uiso   1.00
C556   C     0.94774   0.84004   0.24128   0.00000  Uiso   1.00
C557   C     0.88561   0.79151   0.01849   0.00000  Uiso   1.00
C558   C     0.84496   0.80456   0.04033   0.00000  Uiso   1.00
C559   C     0.91532   0.78488   0.03844   0.00000  Uiso   1.00
C560   C     0.90494   0.79163   0.07951   0.00000  Uiso   1.00
C561   C     0.83512   0.80987   0.08194   0.00000  Uiso   1.00
C562   C     0.99354   0.84080   0.23696   0.00000  Uiso   1.00
C563   C     0.67433   0.82464   0.26342   0.00000  Uiso   1.00
C564   C     0.75412   0.85892   0.41888   0.00000  Uiso   1.00
C565   C     0.84767   0.98873   0.23643   0.00000  Uiso   1.00
C566   C     0.81952   0.67889   0.26214   0.00000  Uiso   1.00
C567   C     0.82226   0.72292   0.25944   0.00000  Uiso   1.00
C568   C     0.84349   0.94430   0.24093   0.00000  Uiso   1.00
C569   C     0.85493   0.81221   0.14394   0.00000  Uiso   1.00
C570   C     0.81230   0.85434   0.35621   0.00000  Uiso   1.00
C571   C     0.79780   0.85639   0.39960   0.00000  Uiso   1.00
C572   C     0.86491   0.80371   0.10114   0.00000  Uiso   1.00
C573   C     0.73771   0.85224   0.45867   0.00000  Uiso   1.00
C574   C     0.87428   0.99865   0.16680   0.00000  Uiso   1.00
C575   C     0.82543   0.84884   0.42124   0.00000  Uiso   1.00
C576   C     0.88631   0.89684   0.43124   0.00000  Uiso   1.00
C577   C     0.80716   0.83337   0.45879   0.00000  Uiso   1.00
C578   C     0.76383   0.83919   0.47872   0.00000  Uiso   1.00
C579   C     0.83123   0.81458   0.47805   0.00000  Uiso   1.00
C580   C     0.81649   0.81381   0.01979   0.00000  Uiso   1.00
C581   C     0.77366   0.82171   0.03926   0.00000  Uiso   1.00
C582   C     0.74730   0.83246   0.01857   0.00000  Uiso   1.00
Cl583  Cl    0.96668   0.76975   0.01331   0.00000  Uiso   1.00
Cl584  Cl    0.69681   0.86303   0.19530   0.00000  Uiso   1.00
Cl585  Cl    0.97519   0.80516   0.30819   0.00000  Uiso   1.00
Cl586  Cl    0.87745   0.77366   0.40725   0.00000  Uiso   1.00
H587   H     0.71423   0.83699   0.03420   0.00000  Uiso   1.00
H588   H     0.84661   0.68136   0.16661   0.00000  Uiso   1.00
H589   H     0.86763   0.96466   0.15868   0.00000  Uiso   1.00
H590   H     0.90326   0.67776   0.14427   0.00000  Uiso   1.00
H591   H     0.88298   0.86494   0.37799   0.00000  Uiso   1.00
H592   H     0.92174   0.90343   0.41939   0.00000  Uiso   1.00
H593   H     0.87918   0.89012   0.46248   0.00000  Uiso   1.00
H594   H     0.87131   0.92497   0.43000   0.00000  Uiso   1.00
H595   H     0.79400   0.99903   0.28607   0.00000  Uiso   1.00
H596   H     0.80560   0.82114   0.10021   0.00000  Uiso   1.00
H597   H     0.92810   0.78731   0.09469   0.00000  Uiso   1.00
H598   H     0.92390   0.77044   0.46027   0.00000  Uiso   1.00
H599   H     0.70416   0.85562   0.47333   0.00000  Uiso   1.00
H600   H     0.73246   0.86527   0.40296   0.00000  Uiso   1.00
H601   H     0.75895   0.81800   0.07018   0.00000  Uiso   1.00
H602   H     0.89411   0.70312   0.21151   0.00000  Uiso   1.00
N603   N     0.88191   0.67270   0.20535   0.00000  Uiso   1.00
N604   N     0.87067   0.86162   0.40773   0.00000  Uiso   1.00
O605   O     0.83333   0.83333   0.25000   0.00000  Uiso   1.00
O606   O     0.82360   0.79060   0.16625   0.00000  Uiso   1.00
O607   O     0.79354   0.87313   0.33749   0.00000  Uiso   1.00
O608   O     0.87755   0.84159   0.15877   0.00000  Uiso   1.00
O609   O     0.83865   0.82802   0.33749   0.00000  Uiso   1.00
O610   O     0.84515   0.74768   0.27820   0.00000  Uiso   1.00
O611   O     0.81247   0.92803   0.26767   0.00000  Uiso   1.00
O612   O     0.74119   0.79917   0.23607   0.00000  Uiso   1.00
O613   O     0.93452   0.85845   0.21805   0.00000  Uiso   1.00
O614   O     0.73656   0.85627   0.27820   0.00000  Uiso   1.00
O615   O     0.92106   0.81944   0.26767   0.00000  Uiso   1.00
O616   O     0.80467   0.73570   0.23607   0.00000  Uiso   1.00
O617   O     0.87104   0.92193   0.21805   0.00000  Uiso   1.00
Zn618  Zn    0.85910   0.80756   0.28277   0.00000  Uiso   1.00
Zn619  Zn    0.80125   0.79044   0.22257   0.00000  Uiso   1.00
Zn620  Zn    0.87833   0.86331   0.21188   0.00000  Uiso   1.00
Zn621  Zn    0.79465   0.87202   0.28277   0.00000  Uiso   1.00
C622   C     0.05284   0.16016   0.75867   0.00000  Uiso   1.00
C623   C     0.20146   0.12792   0.95716   0.00000  Uiso   1.00
C624   C     0.22866   0.11782   0.97730   0.00000  Uiso   1.00
C625   C     0.28107   0.17337   0.74128   0.00000  Uiso   1.00
C626   C     0.21894   0.12484   0.51849   0.00000  Uiso   1.00
C627   C     0.17829   0.13790   0.54033   0.00000  Uiso   1.00
C628   C     0.24865   0.11821   0.53844   0.00000  Uiso   1.00
C629   C     0.23827   0.12496   0.57951   0.00000  Uiso   1.00
C630   C     0.16845   0.14320   0.58194   0.00000  Uiso   1.00
C631   C     0.32687   0.17413   0.73696   0.00000  Uiso   1.00
C632   C     0.00767   0.15797   0.76342   0.00000  Uiso   1.00
C633   C     0.08746   0.19225   0.91888   0.00000  Uiso   1.00
C634   C     0.18100   0.32206   0.73643   0.00000  Uiso   1.00
C635   C     0.15285   0.01222   0.76214   0.00000  Uiso   1.00
C636   C     0.15560   0.05625   0.75944   0.00000  Uiso   1.00
C637   C     0.17683   0.27763   0.74093   0.00000  Uiso   1.00
C638   C     0.18826   0.14554   0.64394   0.00000  Uiso   1.00
C639   C     0.14564   0.18767   0.85621   0.00000  Uiso   1.00
C640   C     0.13113   0.18973   0.89960   0.00000  Uiso   1.00
C641   C     0.19824   0.13704   0.60114   0.00000  Uiso   1.00
C642   C     0.07104   0.18557   0.95867   0.00000  Uiso   1.00
C643   C     0.20761   0.33198   0.66680   0.00000  Uiso   1.00
C644   C     0.15876   0.18217   0.92124   0.00000  Uiso   1.00
C645   C     0.21964   0.23017   0.93124   0.00000  Uiso   1.00
C646   C     0.14049   0.16670   0.95879   0.00000  Uiso   1.00
C647   C     0.09716   0.17252   0.97872   0.00000  Uiso   1.00
C648   C     0.16456   0.14792   0.97805   0.00000  Uiso   1.00
C649   C     0.14982   0.14714   0.51979   0.00000  Uiso   1.00
C650   C     0.10699   0.15504   0.53926   0.00000  Uiso   1.00
C651   C     0.08064   0.16579   0.51857   0.00000  Uiso   1.00
Cl652  Cl    0.30001   0.10309   0.51331   0.00000  Uiso   1.00
Cl653  Cl    0.03014   0.19637   0.69530   0.00000  Uiso   1.00
Cl654  Cl    0.30853   0.13849   0.80819   0.00000  Uiso   1.00
Cl655  Cl    0.21078   0.10700   0.90725   0.00000  Uiso   1.00
H656   H     0.04757   0.17032   0.53420   0.00000  Uiso   1.00
H657   H     0.17995   0.01470   0.66661   0.00000  Uiso   1.00
H658   H     0.20096   0.29800   0.65868   0.00000  Uiso   1.00
H659   H     0.23659   0.01109   0.64427   0.00000  Uiso   1.00
H660   H     0.21631   0.19828   0.87799   0.00000  Uiso   1.00
H661   H     0.25507   0.23676   0.91939   0.00000  Uiso   1.00
H662   H     0.21251   0.22345   0.96248   0.00000  Uiso   1.00
H663   H     0.20464   0.25830   0.93000   0.00000  Uiso   1.00
H664   H     0.12733   0.33236   0.78607   0.00000  Uiso   1.00
H665   H     0.13894   0.15447   0.60021   0.00000  Uiso   1.00
H666   H     0.26143   0.12065   0.59469   0.00000  Uiso   1.00
H667   H     0.25723   0.10378   0.96027   0.00000  Uiso   1.00
H668   H     0.03750   0.18896   0.97333   0.00000  Uiso   1.00
H669   H     0.06579   0.19860   0.90296   0.00000  Uiso   1.00
H670   H     0.09228   0.15133   0.57018   0.00000  Uiso   1.00
H671   H     0.22744   0.03645   0.71151   0.00000  Uiso   1.00
N672   N     0.21524   0.00604   0.70535   0.00000  Uiso   1.00
N673   N     0.20400   0.19495   0.90773   0.00000  Uiso   1.00
O674   O     0.16667   0.16667   0.75000   0.00000  Uiso   1.00
O675   O     0.15693   0.12393   0.66625   0.00000  Uiso   1.00
O676   O     0.12687   0.20646   0.83749   0.00000  Uiso   1.00
O677   O     0.21088   0.17493   0.65877   0.00000  Uiso   1.00
O678   O     0.17198   0.16135   0.83749   0.00000  Uiso   1.00
O679   O     0.17849   0.08101   0.77820   0.00000  Uiso   1.00
O680   O     0.14581   0.26136   0.76767   0.00000  Uiso   1.00
O681   O     0.07452   0.13251   0.73607   0.00000  Uiso   1.00
O682   O     0.26785   0.19179   0.71805   0.00000  Uiso   1.00
O683   O     0.06990   0.18960   0.77820   0.00000  Uiso   1.00
O684   O     0.25440   0.15277   0.76767   0.00000  Uiso   1.00
O685   O     0.13800   0.06903   0.73607   0.00000  Uiso   1.00
O686   O     0.20437   0.25527   0.71805   0.00000  Uiso   1.00
Zn687  Zn    0.19244   0.14090   0.78277   0.00000  Uiso   1.00
Zn688  Zn    0.13459   0.12378   0.72257   0.00000  Uiso   1.00
Zn689  Zn    0.21166   0.19664   0.71188   0.00000  Uiso   1.00
Zn690  Zn    0.12798   0.20535   0.78277   0.00000  Uiso   1.00
C691   C     0.38617   0.16016   0.75867   0.00000  Uiso   1.00
C692   C     0.53480   0.12792   0.95716   0.00000  Uiso   1.00
C693   C     0.56199   0.11782   0.97730   0.00000  Uiso   1.00
C694   C     0.61440   0.17337   0.74128   0.00000  Uiso   1.00
C695   C     0.55228   0.12484   0.51849   0.00000  Uiso   1.00
C696   C     0.51162   0.13790   0.54033   0.00000  Uiso   1.00
C697   C     0.58198   0.11821   0.53844   0.00000  Uiso   1.00
C698   C     0.57160   0.12496   0.57951   0.00000  Uiso   1.00
C699   C     0.50178   0.14320   0.58194   0.00000  Uiso   1.00
C700   C     0.66020   0.17413   0.73696   0.00000  Uiso   1.00
C701   C     0.34100   0.15797   0.76342   0.00000  Uiso   1.00
C702   C     0.42079   0.19225   0.91888   0.00000  Uiso   1.00
C703   C     0.51433   0.32206   0.73643   0.00000  Uiso   1.00
C704   C     0.48618   0.01222   0.76214   0.00000  Uiso   1.00
C705   C     0.48893   0.05625   0.75944   0.00000  Uiso   1.00
C706   C     0.51016   0.27763   0.74093   0.00000  Uiso   1.00
C707   C     0.52160   0.14554   0.64394   0.00000  Uiso   1.00
C708   C     0.47897   0.18767   0.85621   0.00000  Uiso   1.00
C709   C     0.46446   0.18973   0.89960   0.00000  Uiso   1.00
C710   C     0.53158   0.13704   0.60114   0.00000  Uiso   1.00
C711   C     0.40438   0.18557   0.95867   0.00000  Uiso   1.00
C712   C     0.54094   0.33198   0.66680   0.00000  Uiso   1.00
C713   C     0.49209   0.18217   0.92124   0.00000  Uiso   1.00
C714   C     0.55298   0.23017   0.93124   0.00000  Uiso   1.00
C715   C     0.47383   0.16670   0.95879   0.00000  Uiso   1.00
C716   C     0.43050   0.17252   0.97872   0.00000  Uiso   1.00
C717   C     0.49789   0.14792   0.97805   0.00000  Uiso   1.00
C718   C     0.48316   0.14714   0.51979   0.00000  Uiso   1.00
C719   C     0.44032   0.15504   0.53926   0.00000  Uiso   1.00
C720   C     0.41397   0.16579   0.51857   0.00000  Uiso   1.00
Cl721  Cl    0.63334   0.10309   0.51331   0.00000  Uiso   1.00
Cl722  Cl    0.36348   0.19637   0.69530   0.00000  Uiso   1.00
Cl723  Cl    0.64186   0.13849   0.80819   0.00000  Uiso   1.00
Cl724  Cl    0.54411   0.10700   0.90725   0.00000  Uiso   1.00
H725   H     0.38090   0.17032   0.53420   0.00000  Uiso   1.00
H726   H     0.51328   0.01470   0.66661   0.00000  Uiso   1.00
H727   H     0.53429   0.29800   0.65868   0.00000  Uiso   1.00
H728   H     0.56993   0.01109   0.64427   0.00000  Uiso   1.00
H729   H     0.54964   0.19828   0.87799   0.00000  Uiso   1.00
H730   H     0.58840   0.23676   0.91939   0.00000  Uiso   1.00
H731   H     0.54585   0.22345   0.96248   0.00000  Uiso   1.00
H732   H     0.53797   0.25830   0.93000   0.00000  Uiso   1.00
H733   H     0.46066   0.33236   0.78607   0.00000  Uiso   1.00
H734   H     0.47227   0.15447   0.60021   0.00000  Uiso   1.00
H735   H     0.59476   0.12065   0.59469   0.00000  Uiso   1.00
H736   H     0.59056   0.10378   0.96027   0.00000  Uiso   1.00
H737   H     0.37083   0.18896   0.97333   0.00000  Uiso   1.00
H738   H     0.39912   0.19860   0.90296   0.00000  Uiso   1.00
H739   H     0.42562   0.15133   0.57018   0.00000  Uiso   1.00
H740   H     0.56077   0.03645   0.71151   0.00000  Uiso   1.00
N741   N     0.54858   0.00604   0.70535   0.00000  Uiso   1.00
N742   N     0.53734   0.19495   0.90773   0.00000  Uiso   1.00
O743   O     0.50000   0.16667   0.75000   0.00000  Uiso   1.00
O744   O     0.49027   0.12393   0.66625   0.00000  Uiso   1.00
O745   O     0.46020   0.20646   0.83749   0.00000  Uiso   1.00
O746   O     0.54421   0.17493   0.65877   0.00000  Uiso   1.00
O747   O     0.50532   0.16135   0.83749   0.00000  Uiso   1.00
O748   O     0.51182   0.08101   0.77820   0.00000  Uiso   1.00
O749   O     0.47914   0.26136   0.76767   0.00000  Uiso   1.00
O750   O     0.40785   0.13251   0.73607   0.00000  Uiso   1.00
O751   O     0.60119   0.19179   0.71805   0.00000  Uiso   1.00
O752   O     0.40323   0.18960   0.77820   0.00000  Uiso   1.00
O753   O     0.58773   0.15277   0.76767   0.00000  Uiso   1.00
O754   O     0.47133   0.06903   0.73607   0.00000  Uiso   1.00
O755   O     0.53771   0.25527   0.71805   0.00000  Uiso   1.00
Zn756  Zn    0.52577   0.14090   0.78277   0.00000  Uiso   1.00
Zn757  Zn    0.46792   0.12378   0.72257   0.00000  Uiso   1.00
Zn758  Zn    0.54500   0.19664   0.71188   0.00000  Uiso   1.00
Zn759  Zn    0.46131   0.20535   0.78277   0.00000  Uiso   1.00
C760   C     0.71951   0.16016   0.75867   0.00000  Uiso   1.00
C761   C     0.86813   0.12792   0.95716   0.00000  Uiso   1.00
C762   C     0.89532   0.11782   0.97730   0.00000  Uiso   1.00
C763   C     0.94774   0.17337   0.74128   0.00000  Uiso   1.00
C764   C     0.88561   0.12484   0.51849   0.00000  Uiso   1.00
C765   C     0.84496   0.13790   0.54033   0.00000  Uiso   1.00
C766   C     0.91532   0.11821   0.53844   0.00000  Uiso   1.00
C767   C     0.90494   0.12496   0.57951   0.00000  Uiso   1.00
C768   C     0.83512   0.14320   0.58194   0.00000  Uiso   1.00
C769   C     0.99354   0.17413   0.73696   0.00000  Uiso   1.00
C770   C     0.67433   0.15797   0.76342   0.00000  Uiso   1.00
C771   C     0.75412   0.19225   0.91888   0.00000  Uiso   1.00
C772   C     0.84767   0.32206   0.73643   0.00000  Uiso   1.00
C773   C     0.81952   0.01222   0.76214   0.00000  Uiso   1.00
C774   C     0.82226   0.05625   0.75944   0.00000  Uiso   1.00
C775   C     0.84349   0.27763   0.74093   0.00000  Uiso   1.00
C776   C     0.85493   0.14554   0.64394   0.00000  Uiso   1.00
C777   C     0.81230   0.18767   0.85621   0.00000  Uiso   1.00
C778   C     0.79780   0.18973   0.89960   0.00000  Uiso   1.00
C779   C     0.86491   0.13704   0.60114   0.00000  Uiso   1.00
C780   C     0.73771   0.18557   0.95867   0.00000  Uiso   1.00
C781   C     0.87428   0.33198   0.66680   0.00000  Uiso   1.00
C782   C     0.82543   0.18217   0.92124   0.00000  Uiso   1.00
C783   C     0.88631   0.23017   0.93124   0.00000  Uiso   1.00
C784   C     0.80716   0.16670   0.95879   0.00000  Uiso   1.00
C785   C     0.76383   0.17252   0.97872   0.00000  Uiso   1.00
C786   C     0.83123   0.14792   0.97805   0.00000  Uiso   1.00
C787   C     0.81649   0.14714   0.51979   0.00000  Uiso   1.00
C788   C     0.77366   0.15504   0.53926   0.00000  Uiso   1.00
C789   C     0.74730   0.16579   0.51857   0.00000  Uiso   1.00
Cl790  Cl    0.96668   0.10309   0.51331   0.00000  Uiso   1.00
Cl791  Cl    0.69681   0.19637   0.69530   0.00000  Uiso   1.00
Cl792  Cl    0.97519   0.13849   0.80819   0.00000  Uiso   1.00
Cl793  Cl    0.87745   0.10700   0.90725   0.00000  Uiso   1.00
H794   H     0.71423   0.17032   0.53420   0.00000  Uiso   1.00
H795   H     0.84661   0.01470   0.66661   0.00000  Uiso   1.00
H796   H     0.86763   0.29800   0.65868   0.00000  Uiso   1.00
H797   H     0.90326   0.01109   0.64427   0.00000  Uiso   1.00
H798   H     0.88298   0.19828   0.87799   0.00000  Uiso   1.00
H799   H     0.92174   0.23676   0.91939   0.00000  Uiso   1.00
H800   H     0.87918   0.22345   0.96248   0.00000  Uiso   1.00
H801   H     0.87131   0.25830   0.93000   0.00000  Uiso   1.00
H802   H     0.79400   0.33236   0.78607   0.00000  Uiso   1.00
H803   H     0.80560   0.15447   0.60021   0.00000  Uiso   1.00
H804   H     0.92810   0.12065   0.59469   0.00000  Uiso   1.00
H805   H     0.92390   0.10378   0.96027   0.00000  Uiso   1.00
H806   H     0.70416   0.18896   0.97333   0.00000  Uiso   1.00
H807   H     0.73246   0.19860   0.90296   0.00000  Uiso   1.00
H808   H     0.75895   0.15133   0.57018   0.00000  Uiso   1.00
H809   H     0.89411   0.03645   0.71151   0.00000  Uiso   1.00
N810   N     0.88191   0.00604   0.70535   0.00000  Uiso   1.00
N811   N     0.87067   0.19495   0.90773   0.00000  Uiso   1.00
O812   O     0.83333   0.16667   0.75000   0.00000  Uiso   1.00
O813   O     0.82360   0.12393   0.66625   0.00000  Uiso   1.00
O814   O     0.79354   0.20646   0.83749   0.00000  Uiso   1.00
O815   O     0.87755   0.17493   0.65877   0.00000  Uiso   1.00
O816   O     0.83865   0.16135   0.83749   0.00000  Uiso   1.00
O817   O     0.84515   0.08101   0.77820   0.00000  Uiso   1.00
O818   O     0.81247   0.26136   0.76767   0.00000  Uiso   1.00
O819   O     0.74119   0.13251   0.73607   0.00000  Uiso   1.00
O820   O     0.93452   0.19179   0.71805   0.00000  Uiso   1.00
O821   O     0.73656   0.18960   0.77820   0.00000  Uiso   1.00
O822   O     0.92106   0.15277   0.76767   0.00000  Uiso   1.00
O823   O     0.80467   0.06903   0.73607   0.00000  Uiso   1.00
O824   O     0.87104   0.25527   0.71805   0.00000  Uiso   1.00
Zn825  Zn    0.85910   0.14090   0.78277   0.00000  Uiso   1.00
Zn826  Zn    0.80125   0.12378   0.72257   0.00000  Uiso   1.00
Zn827  Zn    0.87833   0.19664   0.71188   0.00000  Uiso   1.00
Zn828  Zn    0.79465   0.20535   0.78277   0.00000  Uiso   1.00
C829   C     0.05284   0.49349   0.75867   0.00000  Uiso   1.00
C830   C     0.20146   0.46126   0.95716   0.00000  Uiso   1.00
C831   C     0.22866   0.45116   0.97730   0.00000  Uiso   1.00
C832   C     0.28107   0.50670   0.74128   0.00000  Uiso   1.00
C833   C     0.21894   0.45818   0.51849   0.00000  Uiso   1.00
C834   C     0.17829   0.47123   0.54033   0.00000  Uiso   1.00
C835   C     0.24865   0.45155   0.53844   0.00000  Uiso   1.00
C836   C     0.23827   0.45829   0.57951   0.00000  Uiso   1.00
C837   C     0.16845   0.47653   0.58194   0.00000  Uiso   1.00
C838   C     0.32687   0.50747   0.73696   0.00000  Uiso   1.00
C839   C     0.00767   0.49131   0.76342   0.00000  Uiso   1.00
C840   C     0.08746   0.52559   0.91888   0.00000  Uiso   1.00
C841   C     0.18100   0.65540   0.73643   0.00000  Uiso   1.00
C842   C     0.15285   0.34555   0.76214   0.00000  Uiso   1.00
C843   C     0.15560   0.38959   0.75944   0.00000  Uiso   1.00
C844   C     0.17683   0.61096   0.74093   0.00000  Uiso   1.00
C845   C     0.18826   0.47887   0.64394   0.00000  Uiso   1.00
C846   C     0.14564   0.52101   0.85621   0.00000  Uiso   1.00
C847   C     0.13113   0.52306   0.89960   0.00000  Uiso   1.00
C848   C     0.19824   0.47037   0.60114   0.00000  Uiso   1.00
C849   C     0.07104   0.51891   0.95867   0.00000  Uiso   1.00
C850   C     0.20761   0.66532   0.66680   0.00000  Uiso   1.00
C851   C     0.15876   0.51551   0.92124   0.00000  Uiso   1.00
C852   C     0.21964   0.56350   0.93124   0.00000  Uiso   1.00
C853   C     0.14049   0.50003   0.95879   0.00000  Uiso   1.00
C854   C     0.09716   0.50586   0.97872   0.00000  Uiso   1.00
C855   C     0.16456   0.48125   0.97805   0.00000  Uiso   1.00
C856   C     0.14982   0.48047   0.51979   0.00000  Uiso   1.00
C857   C     0.10699   0.48838   0.53926   0.00000  Uiso   1.00
C858   C     0.08064   0.49912   0.51857   0.00000  Uiso   1.00
Cl859  Cl    0.30001   0.43642   0.51331   0.00000  Uiso   1.00
Cl860  Cl    0.03014   0.52970   0.69530   0.00000  Uiso   1.00
Cl861  Cl    0.30853   0.47182   0.80819   0.00000  Uiso   1.00
Cl862  Cl    0.21078   0.44033   0.90725   0.00000  Uiso   1.00
H863   H     0.04757   0.50366   0.53420   0.00000  Uiso   1.00
H864   H     0.17995   0.34803   0.66661   0.00000  Uiso   1.00
H865   H     0.20096   0.63133   0.65868   0.00000  Uiso   1.00
H866   H     0.23659   0.34443   0.64427   0.00000  Uiso   1.00
H867   H     0.21631   0.53161   0.87799   0.00000  Uiso   1.00
H868   H     0.25507   0.57010   0.91939   0.00000  Uiso   1.00
H869   H     0.21251   0.55678   0.96248   0.00000  Uiso   1.00
H870   H     0.20464   0.59164   0.93000   0.00000  Uiso   1.00
H871   H     0.12733   0.66569   0.78607   0.00000  Uiso   1.00
H872   H     0.13894   0.48781   0.60021   0.00000  Uiso   1.00
H873   H     0.26143   0.45398   0.59469   0.00000  Uiso   1.00
H874   H     0.25723   0.43711   0.96027   0.00000  Uiso   1.00
H875   H     0.03750   0.52229   0.97333   0.00000  Uiso   1.00
H876   H     0.06579   0.53194   0.90296   0.00000  Uiso   1.00
H877   H     0.09228   0.48466   0.57018   0.00000  Uiso   1.00
H878   H     0.22744   0.36979   0.71151   0.00000  Uiso   1.00
N879   N     0.21524   0.33937   0.70535   0.00000  Uiso   1.00
N880   N     0.20400   0.52828   0.90773   0.00000  Uiso   1.00
O881   O     0.16667   0.50000   0.75000   0.00000  Uiso   1.00
O882   O     0.15693   0.45726   0.66625   0.00000  Uiso   1.00
O883   O     0.12687   0.53979   0.83749   0.00000  Uiso   1.00
O884   O     0.21088   0.50826   0.65877   0.00000  Uiso   1.00
O885   O     0.17198   0.49468   0.83749   0.00000  Uiso   1.00
O886   O     0.17849   0.41434   0.77820   0.00000  Uiso   1.00
O887   O     0.14581   0.59469   0.76767   0.00000  Uiso   1.00
O888   O     0.07452   0.46584   0.73607   0.00000  Uiso   1.00
O889   O     0.26785   0.52512   0.71805   0.00000  Uiso   1.00
O890   O     0.06990   0.52293   0.77820   0.00000  Uiso   1.00
O891   O     0.25440   0.48610   0.76767   0.00000  Uiso   1.00
O892   O     0.13800   0.40236   0.73607   0.00000  Uiso   1.00
O893   O     0.20437   0.58860   0.71805   0.00000  Uiso   1.00
Zn894  Zn    0.19244   0.47423   0.78277   0.00000  Uiso   1.00
Zn895  Zn    0.13459   0.45711   0.72257   0.00000  Uiso   1.00
Zn896  Zn    0.21166   0.52997   0.71188   0.00000  Uiso   1.00
Zn897  Zn    0.12798   0.53868   0.78277   0.00000  Uiso   1.00
C898   C     0.38617   0.49349   0.75867   0.00000  Uiso   1.00
C899   C     0.53480   0.46126   0.95716   0.00000  Uiso   1.00
C900   C     0.56199   0.45116   0.97730   0.00000  Uiso   1.00
C901   C     0.61440   0.50670   0.74128   0.00000  Uiso   1.00
C902   C     0.55228   0.45818   0.51849   0.00000  Uiso   1.00
C903   C     0.51162   0.47123   0.54033   0.00000  Uiso   1.00
C904   C     0.58198   0.45155   0.53844   0.00000  Uiso   1.00
C905   C     0.57160   0.45829   0.57951   0.00000  Uiso   1.00
C906   C     0.50178   0.47653   0.58194   0.00000  Uiso   1.00
C907   C     0.66020   0.50747   0.73696   0.00000  Uiso   1.00
C908   C     0.34100   0.49131   0.76342   0.00000  Uiso   1.00
C909   C     0.42079   0.52559   0.91888   0.00000  Uiso   1.00
C910   C     0.51433   0.65540   0.73643   0.00000  Uiso   1.00
C911   C     0.48618   0.34555   0.76214   0.00000  Uiso   1.00
C912   C     0.48893   0.38959   0.75944   0.00000  Uiso   1.00
C913   C     0.51016   0.61096   0.74093   0.00000  Uiso   1.00
C914   C     0.52160   0.47887   0.64394   0.00000  Uiso   1.00
C915   C     0.47897   0.52101   0.85621   0.00000  Uiso   1.00
C916   C     0.46446   0.52306   0.89960   0.00000  Uiso   1.00
C917   C     0.53158   0.47037   0.60114   0.00000  Uiso   1.00
C918   C     0.40438   0.51891   0.95867   0.00000  Uiso   1.00
C919   C     0.54094   0.66532   0.66680   0.00000  Uiso   1.00
C920   C     0.49209   0.51551   0.92124   0.00000  Uiso   1.00
C921   C     0.55298   0.56350   0.93124   0.00000  Uiso   1.00
C922   C     0.47383   0.50003   0.95879   0.00000  Uiso   1.00
C923   C     0.43050   0.50586   0.97872   0.00000  Uiso   1.00
C924   C     0.49789   0.48125   0.97805   0.00000  Uiso   1.00
C925   C     0.48316   0.48047   0.51979   0.00000  Uiso   1.00
C926   C     0.44032   0.48838   0.53926   0.00000  Uiso   1.00
C927   C     0.41397   0.49912   0.51857   0.00000  Uiso   1.00
Cl928  Cl    0.63334   0.43642   0.51331   0.00000  Uiso   1.00
Cl929  Cl    0.36348   0.52970   0.69530   0.00000  Uiso   1.00
Cl930  Cl    0.64186   0.47182   0.80819   0.00000  Uiso   1.00
Cl931  Cl    0.54411   0.44033   0.90725   0.00000  Uiso   1.00
H932   H     0.38090   0.50366   0.53420   0.00000  Uiso   1.00
H933   H     0.51328   0.34803   0.66661   0.00000  Uiso   1.00
H934   H     0.53429   0.63133   0.65868   0.00000  Uiso   1.00
H935   H     0.56993   0.34443   0.64427   0.00000  Uiso   1.00
H936   H     0.54964   0.53161   0.87799   0.00000  Uiso   1.00
H937   H     0.58840   0.57010   0.91939   0.00000  Uiso   1.00
H938   H     0.54585   0.55678   0.96248   0.00000  Uiso   1.00
H939   H     0.53797   0.59164   0.93000   0.00000  Uiso   1.00
H940   H     0.46066   0.66569   0.78607   0.00000  Uiso   1.00
H941   H     0.47227   0.48781   0.60021   0.00000  Uiso   1.00
H942   H     0.59476   0.45398   0.59469   0.00000  Uiso   1.00
H943   H     0.59056   0.43711   0.96027   0.00000  Uiso   1.00
H944   H     0.37083   0.52229   0.97333   0.00000  Uiso   1.00
H945   H     0.39912   0.53194   0.90296   0.00000  Uiso   1.00
H946   H     0.42562   0.48466   0.57018   0.00000  Uiso   1.00
H947   H     0.56077   0.36979   0.71151   0.00000  Uiso   1.00
N948   N     0.54858   0.33937   0.70535   0.00000  Uiso   1.00
N949   N     0.53734   0.52828   0.90773   0.00000  Uiso   1.00
O950   O     0.50000   0.50000   0.75000   0.00000  Uiso   1.00
O951   O     0.49027   0.45726   0.66625   0.00000  Uiso   1.00
O952   O     0.46020   0.53979   0.83749   0.00000  Uiso   1.00
O953   O     0.54421   0.50826   0.65877   0.00000  Uiso   1.00
O954   O     0.50532   0.49468   0.83749   0.00000  Uiso   1.00
O955   O     0.51182   0.41434   0.77820   0.00000  Uiso   1.00
O956   O     0.47914   0.59469   0.76767   0.00000  Uiso   1.00
O957   O     0.40785   0.46584   0.73607   0.00000  Uiso   1.00
O958   O     0.60119   0.52512   0.71805   0.00000  Uiso   1.00
O959   O     0.40323   0.52293   0.77820   0.00000  Uiso   1.00
O960   O     0.58773   0.48610   0.76767   0.00000  Uiso   1.00
O961   O     0.47133   0.40236   0.73607   0.00000  Uiso   1.00
O962   O     0.53771   0.58860   0.71805   0.00000  Uiso   1.00
Zn963  Zn    0.52577   0.47423   0.78277   0.00000  Uiso   1.00
Zn964  Zn    0.46792   0.45711   0.72257   0.00000  Uiso   1.00
Zn965  Zn    0.54500   0.52997   0.71188   0.00000  Uiso   1.00
Zn966  Zn    0.46131   0.53868   0.78277   0.00000  Uiso   1.00
C967   C     0.71951   0.49349   0.75867   0.00000  Uiso   1.00
C968   C     0.86813   0.46126   0.95716   0.00000  Uiso   1.00
C969   C     0.89532   0.45116   0.97730   0.00000  Uiso   1.00
C970   C     0.94774   0.50670   0.74128   0.00000  Uiso   1.00
C971   C     0.88561   0.45818   0.51849   0.00000  Uiso   1.00
C972   C     0.84496   0.47123   0.54033   0.00000  Uiso   1.00
C973   C     0.91532   0.45155   0.53844   0.00000  Uiso   1.00
C974   C     0.90494   0.45829   0.57951   0.00000  Uiso   1.00
C975   C     0.83512   0.47653   0.58194   0.00000  Uiso   1.00
C976   C     0.99354   0.50747   0.73696   0.00000  Uiso   1.00
C977   C     0.67433   0.49131   0.76342   0.00000  Uiso   1.00
C978   C     0.75412   0.52559   0.91888   0.00000  Uiso   1.00
C979   C     0.84767   0.65540   0.73643   0.00000  Uiso   1.00
C980   C     0.81952   0.34555   0.76214   0.00000  Uiso   1.00
C981   C     0.82226   0.38959   0.75944   0.00000  Uiso   1.00
C982   C     0.84349   0.61096   0.74093   0.00000  Uiso   1.00
C983   C     0.85493   0.47887   0.64394   0.00000  Uiso   1.00
C984   C     0.81230   0.52101   0.85621   0.00000  Uiso   1.00
C985   C     0.79780   0.52306   0.89960   0.00000  Uiso   1.00
C986   C     0.86491   0.47037   0.60114   0.00000  Uiso   1.00
C987   C     0.73771   0.51891   0.95867   0.00000  Uiso   1.00
C988   C     0.87428   0.66532   0.66680   0.00000  Uiso   1.00
C989   C     0.82543   0.51551   0.92124   0.00000  Uiso   1.00
C990   C     0.88631   0.56350   0.93124   0.00000  Uiso   1.00
C991   C     0.80716   0.50003   0.95879   0.00000  Uiso   1.00
C992   C     0.76383   0.50586   0.97872   0.00000  Uiso   1.00
C993   C     0.83123   0.48125   0.97805   0.00000  Uiso   1.00
C994   C     0.81649   0.48047   0.51979   0.00000  Uiso   1.00
C995   C     0.77366   0.48838   0.53926   0.00000  Uiso   1.00
C996   C     0.74730   0.49912   0.51857   0.00000  Uiso   1.00
Cl997  Cl    0.96668   0.43642   0.51331   0.00000  Uiso   1.00
Cl998  Cl    0.69681   0.52970   0.69530   0.00000  Uiso   1.00
Cl999  Cl    0.97519   0.47182   0.80819   0.00000  Uiso   1.00
Cl1000 Cl    0.87745   0.44033   0.90725   0.00000  Uiso   1.00
H1001  H     0.71423   0.50366   0.53420   0.00000  Uiso   1.00
H1002  H     0.84661   0.34803   0.66661   0.00000  Uiso   1.00
H1003  H     0.86763   0.63133   0.65868   0.00000  Uiso   1.00
H1004  H     0.90326   0.34443   0.64427   0.00000  Uiso   1.00
H1005  H     0.88298   0.53161   0.87799   0.00000  Uiso   1.00
H1006  H     0.92174   0.57010   0.91939   0.00000  Uiso   1.00
H1007  H     0.87918   0.55678   0.96248   0.00000  Uiso   1.00
H1008  H     0.87131   0.59164   0.93000   0.00000  Uiso   1.00
H1009  H     0.79400   0.66569   0.78607   0.00000  Uiso   1.00
H1010  H     0.80560   0.48781   0.60021   0.00000  Uiso   1.00
H1011  H     0.92810   0.45398   0.59469   0.00000  Uiso   1.00
H1012  H     0.92390   0.43711   0.96027   0.00000  Uiso   1.00
H1013  H     0.70416   0.52229   0.97333   0.00000  Uiso   1.00
H1014  H     0.73246   0.53194   0.90296   0.00000  Uiso   1.00
H1015  H     0.75895   0.48466   0.57018   0.00000  Uiso   1.00
H1016  H     0.89411   0.36979   0.71151   0.00000  Uiso   1.00
N1017  N     0.88191   0.33937   0.70535   0.00000  Uiso   1.00
N1018  N     0.87067   0.52828   0.90773   0.00000  Uiso   1.00
O1019  O     0.83333   0.50000   0.75000   0.00000  Uiso   1.00
O1020  O     0.82360   0.45726   0.66625   0.00000  Uiso   1.00
O1021  O     0.79354   0.53979   0.83749   0.00000  Uiso   1.00
O1022  O     0.87755   0.50826   0.65877   0.00000  Uiso   1.00
O1023  O     0.83865   0.49468   0.83749   0.00000  Uiso   1.00
O1024  O     0.84515   0.41434   0.77820   0.00000  Uiso   1.00
O1025  O     0.81247   0.59469   0.76767   0.00000  Uiso   1.00
O1026  O     0.74119   0.46584   0.73607   0.00000  Uiso   1.00
O1027  O     0.93452   0.52512   0.71805   0.00000  Uiso   1.00
O1028  O     0.73656   0.52293   0.77820   0.00000  Uiso   1.00
O1029  O     0.92106   0.48610   0.76767   0.00000  Uiso   1.00
O1030  O     0.80467   0.40236   0.73607   0.00000  Uiso   1.00
O1031  O     0.87104   0.58860   0.71805   0.00000  Uiso   1.00
Zn1032 Zn    0.85910   0.47423   0.78277   0.00000  Uiso   1.00
Zn1033 Zn    0.80125   0.45711   0.72257   0.00000  Uiso   1.00
Zn1034 Zn    0.87833   0.52997   0.71188   0.00000  Uiso   1.00
Zn1035 Zn    0.79465   0.53868   0.78277   0.00000  Uiso   1.00
C1036  C     0.05284   0.82683   0.75867   0.00000  Uiso   1.00
C1037  C     0.20146   0.79459   0.95716   0.00000  Uiso   1.00
C1038  C     0.22866   0.78449   0.97730   0.00000  Uiso   1.00
C1039  C     0.28107   0.84004   0.74128   0.00000  Uiso   1.00
C1040  C     0.21894   0.79151   0.51849   0.00000  Uiso   1.00
C1041  C     0.17829   0.80456   0.54033   0.00000  Uiso   1.00
C1042  C     0.24865   0.78488   0.53844   0.00000  Uiso   1.00
C1043  C     0.23827   0.79163   0.57951   0.00000  Uiso   1.00
C1044  C     0.16845   0.80987   0.58194   0.00000  Uiso   1.00
C1045  C     0.32687   0.84080   0.73696   0.00000  Uiso   1.00
C1046  C     0.00767   0.82464   0.76342   0.00000  Uiso   1.00
C1047  C     0.08746   0.85892   0.91888   0.00000  Uiso   1.00
C1048  C     0.18100   0.98873   0.73643   0.00000  Uiso   1.00
C1049  C     0.15285   0.67889   0.76214   0.00000  Uiso   1.00
C1050  C     0.15560   0.72292   0.75944   0.00000  Uiso   1.00
C1051  C     0.17683   0.94430   0.74093   0.00000  Uiso   1.00
C1052  C     0.18826   0.81221   0.64394   0.00000  Uiso   1.00
C1053  C     0.14564   0.85434   0.85621   0.00000  Uiso   1.00
C1054  C     0.13113   0.85639   0.89960   0.00000  Uiso   1.00
C1055  C     0.19824   0.80371   0.60114   0.00000  Uiso   1.00
C1056  C     0.07104   0.85224   0.95867   0.00000  Uiso   1.00
C1057  C     0.20761   0.99865   0.66680   0.00000  Uiso   1.00
C1058  C     0.15876   0.84884   0.92124   0.00000  Uiso   1.00
C1059  C     0.21964   0.89684   0.93124   0.00000  Uiso   1.00
C1060  C     0.14049   0.83337   0.95879   0.00000  Uiso   1.00
C1061  C     0.09716   0.83919   0.97872   0.00000  Uiso   1.00
C1062  C     0.16456   0.81458   0.97805   0.00000  Uiso   1.00
C1063  C     0.14982   0.81381   0.51979   0.00000  Uiso   1.00
C1064  C     0.10699   0.82171   0.53926   0.00000  Uiso   1.00
C1065  C     0.08064   0.83246   0.51857   0.00000  Uiso   1.00
Cl1066 Cl    0.30001   0.76975   0.51331   0.00000  Uiso   1.00
Cl1067 Cl    0.03014   0.86303   0.69530   0.00000  Uiso   1.00
Cl1068 Cl    0.30853   0.80516   0.80819   0.00000  Uiso   1.00
Cl1069 Cl    0.21078   0.77366   0.90725   0.00000  Uiso   1.00
H1070  H     0.04757   0.83699   0.53420   0.00000  Uiso   1.00
H1071  H     0.17995   0.68136   0.66661   0.00000  Uiso   1.00
H1072  H     0.20096   0.96466   0.65868   0.00000  Uiso   1.00
H1073  H     0.23659   0.67776   0.64427   0.00000  Uiso   1.00
H1074  H     0.21631   0.86494   0.87799   0.00000  Uiso   1.00
H1075  H     0.25507   0.90343   0.91939   0.00000  Uiso   1.00
H1076  H     0.21251   0.89012   0.96248   0.00000  Uiso   1.00
H1077  H     0.20464   0.92497   0.93000   0.00000  Uiso   1.00
H1078  H     0.12733   0.99903   0.78607   0.00000  Uiso   1.00
H1079  H     0.13894   0.82114   0.60021   0.00000  Uiso   1.00
H1080  H     0.26143   0.78731   0.59469   0.00000  Uiso   1.00
H1081  H     0.25723   0.77044   0.96027   0.00000  Uiso   1.00
H1082  H     0.03750   0.85562   0.97333   0.00000  Uiso   1.00
H1083  H     0.06579   0.86527   0.90296   0.00000  Uiso   1.00
H1084  H     0.09228   0.81800   0.57018   0.00000  Uiso   1.00
H1085  H     0.22744   0.70312   0.71151   0.00000  Uiso   1.00
N1086  N     0.21524   0.67270   0.70535   0.00000  Uiso   1.00
N1087  N     0.20400   0.86162   0.90773   0.00000  Uiso   1.00
O1088  O     0.16667   0.83333   0.75000   0.00000  Uiso   1.00
O1089  O     0.15693   0.79060   0.66625   0.00000  Uiso   1.00
O1090  O     0.12687   0.87313   0.83749   0.00000  Uiso   1.00
O1091  O     0.21088   0.84159   0.65877   0.00000  Uiso   1.00
O1092  O     0.17198   0.82802   0.83749   0.00000  Uiso   1.00
O1093  O     0.17849   0.74768   0.77820   0.00000  Uiso   1.00
O1094  O     0.14581   0.92803   0.76767   0.00000  Uiso   1.00
O1095  O     0.07452   0.79917   0.73607   0.00000  Uiso   1.00
O1096  O     0.26785   0.85845   0.71805   0.00000  Uiso   1.00
O1097  O     0.06990   0.85627   0.77820   0.00000  Uiso   1.00
O1098  O     0.25440   0.81944   0.76767   0.00000  Uiso   1.00
O1099  O     0.13800   0.73570   0.73607   0.00000  Uiso   1.00
O1100  O     0.20437   0.92193   0.71805   0.00000  Uiso   1.00
Zn1101 Zn    0.19244   0.80756   0.78277   0.00000  Uiso   1.00
Zn1102 Zn    0.13459   0.79044   0.72257   0.00000  Uiso   1.00
Zn1103 Zn    0.21166   0.86331   0.71188   0.00000  Uiso   1.00
Zn1104 Zn    0.12798   0.87202   0.78277   0.00000  Uiso   1.00
C1105  C     0.38617   0.82683   0.75867   0.00000  Uiso   1.00
C1106  C     0.53480   0.79459   0.95716   0.00000  Uiso   1.00
C1107  C     0.56199   0.78449   0.97730   0.00000  Uiso   1.00
C1108  C     0.61440   0.84004   0.74128   0.00000  Uiso   1.00
C1109  C     0.55228   0.79151   0.51849   0.00000  Uiso   1.00
C1110  C     0.51162   0.80456   0.54033   0.00000  Uiso   1.00
C1111  C     0.58198   0.78488   0.53844   0.00000  Uiso   1.00
C1112  C     0.57160   0.79163   0.57951   0.00000  Uiso   1.00
C1113  C     0.50178   0.80987   0.58194   0.00000  Uiso   1.00
C1114  C     0.66020   0.84080   0.73696   0.00000  Uiso   1.00
C1115  C     0.34100   0.82464   0.76342   0.00000  Uiso   1.00
C1116  C     0.42079   0.85892   0.91888   0.00000  Uiso   1.00
C1117  C     0.51433   0.98873   0.73643   0.00000  Uiso   1.00
C1118  C     0.48618   0.67889   0.76214   0.00000  Uiso   1.00
C1119  C     0.48893   0.72292   0.75944   0.00000  Uiso   1.00
C1120  C     0.51016   0.94430   0.74093   0.00000  Uiso   1.00
C1121  C     0.52160   0.81221   0.64394   0.00000  Uiso   1.00
C1122  C     0.47897   0.85434   0.85621   0.00000  Uiso   1.00
C1123  C     0.46446   0.85639   0.89960   0.00000  Uiso   1.00
C1124  C     0.53158   0.80371   0.60114   0.00000  Uiso   1.00
C1125  C     0.40438   0.85224   0.95867   0.00000  Uiso   1.00
C1126  C     0.54094   0.99865   0.66680   0.00000  Uiso   1.00
C1127  C     0.49209   0.84884   0.92124   0.00000  Uiso   1.00
C1128  C     0.55298   0.89684   0.93124   0.00000  Uiso   1.00
C1129  C     0.47383   0.83337   0.95879   0.00000  Uiso   1.00
C1130  C     0.43050   0.83919   0.97872   0.00000  Uiso   1.00
C1131  C     0.49789   0.81458   0.97805   0.00000  Uiso   1.00
C1132  C     0.48316   0.81381   0.51979   0.00000  Uiso   1.00
C1133  C     0.44032   0.82171   0.53926   0.00000  Uiso   1.00
C1134  C     0.41397   0.83246   0.51857   0.00000  Uiso   1.00
Cl1135 Cl    0.63334   0.76975   0.51331   0.00000  Uiso   1.00
Cl1136 Cl    0.36348   0.86303   0.69530   0.00000  Uiso   1.00
Cl1137 Cl    0.64186   0.80516   0.80819   0.00000  Uiso   1.00
Cl1138 Cl    0.54411   0.77366   0.90725   0.00000  Uiso   1.00
H1139  H     0.38090   0.83699   0.53420   0.00000  Uiso   1.00
H1140  H     0.51328   0.68136   0.66661   0.00000  Uiso   1.00
H1141  H     0.53429   0.96466   0.65868   0.00000  Uiso   1.00
H1142  H     0.56993   0.67776   0.64427   0.00000  Uiso   1.00
H1143  H     0.54964   0.86494   0.87799   0.00000  Uiso   1.00
H1144  H     0.58840   0.90343   0.91939   0.00000  Uiso   1.00
H1145  H     0.54585   0.89012   0.96248   0.00000  Uiso   1.00
H1146  H     0.53797   0.92497   0.93000   0.00000  Uiso   1.00
H1147  H     0.46066   0.99903   0.78607   0.00000  Uiso   1.00
H1148  H     0.47227   0.82114   0.60021   0.00000  Uiso   1.00
H1149  H     0.59476   0.78731   0.59469   0.00000  Uiso   1.00
H1150  H     0.59056   0.77044   0.96027   0.00000  Uiso   1.00
H1151  H     0.37083   0.85562   0.97333   0.00000  Uiso   1.00
H1152  H     0.39912   0.86527   0.90296   0.00000  Uiso   1.00
H1153  H     0.42562   0.81800   0.57018   0.00000  Uiso   1.00
H1154  H     0.56077   0.70312   0.71151   0.00000  Uiso   1.00
N1155  N     0.54858   0.67270   0.70535   0.00000  Uiso   1.00
N1156  N     0.53734   0.86162   0.90773   0.00000  Uiso   1.00
O1157  O     0.50000   0.83333   0.75000   0.00000  Uiso   1.00
O1158  O     0.49027   0.79060   0.66625   0.00000  Uiso   1.00
O1159  O     0.46020   0.87313   0.83749   0.00000  Uiso   1.00
O1160  O     0.54421   0.84159   0.65877   0.00000  Uiso   1.00
O1161  O     0.50532   0.82802   0.83749   0.00000  Uiso   1.00
O1162  O     0.51182   0.74768   0.77820   0.00000  Uiso   1.00
O1163  O     0.47914   0.92803   0.76767   0.00000  Uiso   1.00
O1164  O     0.40785   0.79917   0.73607   0.00000  Uiso   1.00
O1165  O     0.60119   0.85845   0.71805   0.00000  Uiso   1.00
O1166  O     0.40323   0.85627   0.77820   0.00000  Uiso   1.00
O1167  O     0.58773   0.81944   0.76767   0.00000  Uiso   1.00
O1168  O     0.47133   0.73570   0.73607   0.00000  Uiso   1.00
O1169  O     0.53771   0.92193   0.71805   0.00000  Uiso   1.00
Zn1170 Zn    0.52577   0.80756   0.78277   0.00000  Uiso   1.00
Zn1171 Zn    0.46792   0.79044   0.72257   0.00000  Uiso   1.00
Zn1172 Zn    0.54500   0.86331   0.71188   0.00000  Uiso   1.00
Zn1173 Zn    0.46131   0.87202   0.78277   0.00000  Uiso   1.00
C1174  C     0.71951   0.82683   0.75867   0.00000  Uiso   1.00
C1175  C     0.86813   0.79459   0.95716   0.00000  Uiso   1.00
C1176  C     0.89532   0.78449   0.97730   0.00000  Uiso   1.00
C1177  C     0.94774   0.84004   0.74128   0.00000  Uiso   1.00
C1178  C     0.88561   0.79151   0.51849   0.00000  Uiso   1.00
C1179  C     0.84496   0.80456   0.54033   0.00000  Uiso   1.00
C1180  C     0.91532   0.78488   0.53844   0.00000  Uiso   1.00
C1181  C     0.90494   0.79163   0.57951   0.00000  Uiso   1.00
C1182  C     0.83512   0.80987   0.58194   0.00000  Uiso   1.00
C1183  C     0.99354   0.84080   0.73696   0.00000  Uiso   1.00
C1184  C     0.67433   0.82464   0.76342   0.00000  Uiso   1.00
C1185  C     0.75412   0.85892   0.91888   0.00000  Uiso   1.00
C1186  C     0.84767   0.98873   0.73643   0.00000  Uiso   1.00
C1187  C     0.81952   0.67889   0.76214   0.00000  Uiso   1.00
C1188  C     0.82226   0.72292   0.75944   0.00000  Uiso   1.00
C1189  C     0.84349   0.94430   0.74093   0.00000  Uiso   1.00
C1190  C     0.85493   0.81221   0.64394   0.00000  Uiso   1.00
C1191  C     0.81230   0.85434   0.85621   0.00000  Uiso   1.00
C1192  C     0.79780   0.85639   0.89960   0.00000  Uiso   1.00
C1193  C     0.86491   0.80371   0.60114   0.00000  Uiso   1.00
C1194  C     0.73771   0.85224   0.95867   0.00000  Uiso   1.00
C1195  C     0.87428   0.99865   0.66680   0.00000  Uiso   1.00
C1196  C     0.82543   0.84884   0.92124   0.00000  Uiso   1.00
C1197  C     0.88631   0.89684   0.93124   0.00000  Uiso   1.00
C1198  C     0.80716   0.83337   0.95879   0.00000  Uiso   1.00
C1199  C     0.76383   0.83919   0.97872   0.00000  Uiso   1.00
C1200  C     0.83123   0.81458   0.97805   0.00000  Uiso   1.00
C1201  C     0.81649   0.81381   0.51979   0.00000  Uiso   1.00
C1202  C     0.77366   0.82171   0.53926   0.00000  Uiso   1.00
C1203  C     0.74730   0.83246   0.51857   0.00000  Uiso   1.00
Cl1204 Cl    0.96668   0.76975   0.51331   0.00000  Uiso   1.00
Cl1205 Cl    0.69681   0.86303   0.69530   0.00000  Uiso   1.00
Cl1206 Cl    0.97519   0.80516   0.80819   0.00000  Uiso   1.00
Cl1207 Cl    0.87745   0.77366   0.90725   0.00000  Uiso   1.00
H1208  H     0.71423   0.83699   0.53420   0.00000  Uiso   1.00
H1209  H     0.84661   0.68136   0.66661   0.00000  Uiso   1.00
H1210  H     0.86763   0.96466   0.65868   0.00000  Uiso   1.00
H1211  H     0.90326   0.67776   0.64427   0.00000  Uiso   1.00
H1212  H     0.88298   0.86494   0.87799   0.00000  Uiso   1.00
H1213  H     0.92174   0.90343   0.91939   0.00000  Uiso   1.00
H1214  H     0.87918   0.89012   0.96248   0.00000  Uiso   1.00
H1215  H     0.87131   0.92497   0.93000   0.00000  Uiso   1.00
H1216  H     0.79400   0.99903   0.78607   0.00000  Uiso   1.00
H1217  H     0.80560   0.82114   0.60021   0.00000  Uiso   1.00
H1218  H     0.92810   0.78731   0.59469   0.00000  Uiso   1.00
H1219  H     0.92390   0.77044   0.96027   0.00000  Uiso   1.00
H1220  H     0.70416   0.85562   0.97333   0.00000  Uiso   1.00
H1221  H     0.73246   0.86527   0.90296   0.00000  Uiso   1.00
H1222  H     0.75895   0.81800   0.57018   0.00000  Uiso   1.00
H1223  H     0.89411   0.70312   0.71151   0.00000  Uiso   1.00
N1224  N     0.88191   0.67270   0.70535   0.00000  Uiso   1.00
N1225  N     0.87067   0.86162   0.90773   0.00000  Uiso   1.00
O1226  O     0.83333   0.83333   0.75000   0.00000  Uiso   1.00
O1227  O     0.82360   0.79060   0.66625   0.00000  Uiso   1.00
O1228  O     0.79354   0.87313   0.83749   0.00000  Uiso   1.00
O1229  O     0.87755   0.84159   0.65877   0.00000  Uiso   1.00
O1230  O     0.83865   0.82802   0.83749   0.00000  Uiso   1.00
O1231  O     0.84515   0.74768   0.77820   0.00000  Uiso   1.00
O1232  O     0.81247   0.92803   0.76767   0.00000  Uiso   1.00
O1233  O     0.74119   0.79917   0.73607   0.00000  Uiso   1.00
O1234  O     0.93452   0.85845   0.71805   0.00000  Uiso   1.00
O1235  O     0.73656   0.85627   0.77820   0.00000  Uiso   1.00
O1236  O     0.92106   0.81944   0.76767   0.00000  Uiso   1.00
O1237  O     0.80467   0.73570   0.73607   0.00000  Uiso   1.00
O1238  O     0.87104   0.92193   0.71805   0.00000  Uiso   1.00
Zn1239 Zn    0.85910   0.80756   0.78277   0.00000  Uiso   1.00
Zn1240 Zn    0.80125   0.79044   0.72257   0.00000  Uiso   1.00
Zn1241 Zn    0.87833   0.86331   0.71188   0.00000  Uiso   1.00
Zn1242 Zn    0.79465   0.87202   0.78277   0.00000  Uiso   1.00
loop_
_geom_bond_atom_site_label_1
_geom_bond_atom_site_label_2
_geom_bond_distance
_geom_bond_site_symmetry_2
_ccdc_geom_bond_type
C1     C11     1.430   .     S
C1     O62     1.266   .     A
C1     O60     1.273   .     A
C2     Cl34    1.768   .     S
C2     C3      1.390   .     A
C2     C27     1.418   .     A
C3     H46     1.082   .     S
C3     C626    1.399   .     S
C4     O61     1.281   .     A
C4     O63     1.267   .     A
C4     C10     1.458   .     S
C5     C6      1.424   .     A
C5     C7      1.414   .     A
C5     C624    1.399   1_554 S
C6     C9      1.410   .     A
C6     C28     1.424   .     A
C7     C8      1.393   .     A
C7     Cl31    1.765   .     S
C8     C20     1.394   .     A
C8     H45     1.084   .     S
C9     C20     1.392   .     A
C9     H44     1.079   .     S
C10    C80     1.353   .     S
C10    Cl101   1.772   .     S
C11    C148    1.353   1_455 S
C11    Cl171   1.772   1_455 S
C12    H48     1.083   .     S
C12    C19     1.402   .     A
C12    C21     1.392   .     A
C13    C16     1.457   .     S
C13    C221    1.341   .     S
C13    N258    1.431   .     S
C14    C15     1.436   .     S
C14    C427    1.341   1_545 S
C14    H457    1.086   1_545 S
C15    O64     1.278   .     A
C15    O58     1.276   .     A
C16    O65     1.269   .     A
C16    O59     1.275   .     A
C17    O54     1.278   .     A
C17    O56     1.275   .     A
C17    C20     1.456   .     S
C18    O55     1.284   .     A
C18    C19     1.470   .     S
C18    O57     1.284   .     A
C19    C23     1.411   .     A
C21    C26     1.400   .     A
C21    H47     1.084   .     S
C22    H37     1.111   .     S
C22    H243    1.111   .     S
C22    H245    1.110   .     S
C22    N258    1.446   .     S
C23    N52     1.433   .     S
C23    C25     1.419   .     A
C24    N52     1.448   .     S
C24    H42     1.111   .     S
C24    H41     1.110   .     S
C24    H40     1.111   .     S
C25    C27     1.424   .     A
C25    C26     1.416   .     A
C26    C651    1.394   .     S
C27    C649    1.421   .     S
C28    C29     1.415   .     A
C28    C648    1.421   1_554 S
C29    C30     1.391   .     A
C29    H49     1.078   .     S
C30    H35     1.084   .     S
C30    C647    1.394   1_554 S
Cl32   C148    1.772   1_455 S
Cl33   C80     1.772   .     S
H36    C436    1.111   1_545 S
H38    C436    1.110   1_545 S
H39    N52     1.029   .     S
H43    C221    1.086   .     S
H50    N51     1.031   .     S
N51    C427    1.431   1_545 S
N51    C436    1.446   1_545 S
O53    Zn66    1.951   .     S
O53    Zn69    1.939   .     S
O53    Zn67    1.951   .     S
O53    Zn68    1.927   .     S
O54    Zn67    1.920   .     S
O55    Zn69    1.929   .     S
O56    Zn68    1.931   .     S
O57    Zn66    1.923   .     S
O58    Zn66    1.930   .     S
O59    Zn69    1.926   .     S
O60    Zn67    1.937   .     S
O61    Zn68    1.946   .     S
O62    Zn69    1.943   .     S
O63    Zn66    1.934   .     S
O64    Zn67    1.930   .     S
O65    Zn68    1.932   .     S
C70    C80     1.430   .     S
C70    O131    1.266   .     A
C70    O129    1.273   .     A
C71    Cl103   1.768   .     S
C71    C72     1.390   .     A
C71    C96     1.418   .     A
C72    H115    1.082   .     S
C72    C695    1.399   .     S
C73    O130    1.281   .     A
C73    O132    1.267   .     A
C73    C79     1.458   .     S
C74    C75     1.424   .     A
C74    C76     1.414   .     A
C74    C693    1.399   1_554 S
C75    C78     1.410   .     A
C75    C97     1.424   .     A
C76    C77     1.393   .     A
C76    Cl100   1.765   .     S
C77    C89     1.394   .     A
C77    H114    1.084   .     S
C78    C89     1.392   .     A
C78    H113    1.079   .     S
C79    C149    1.353   .     S
C79    Cl170   1.772   .     S
C81    H117    1.083   .     S
C81    C88     1.402   .     A
C81    C90     1.392   .     A
C82    C85     1.457   .     S
C82    C290    1.341   .     S
C82    N327    1.431   .     S
C83    C84     1.436   .     S
C83    C496    1.341   1_545 S
C83    H526    1.086   1_545 S
C84    O133    1.278   .     A
C84    O127    1.276   .     A
C85    O134    1.269   .     A
C85    O128    1.275   .     A
C86    O123    1.278   .     A
C86    O125    1.275   .     A
C86    C89     1.456   .     S
C87    O124    1.284   .     A
C87    C88     1.470   .     S
C87    O126    1.284   .     A
C88    C92     1.411   .     A
C90    C95     1.400   .     A
C90    H116    1.084   .     S
C91    H106    1.111   .     S
C91    H312    1.111   .     S
C91    H314    1.110   .     S
C91    N327    1.446   .     S
C92    N121    1.433   .     S
C92    C94     1.419   .     A
C93    N121    1.448   .     S
C93    H111    1.111   .     S
C93    H110    1.110   .     S
C93    H109    1.111   .     S
C94    C96     1.424   .     A
C94    C95     1.416   .     A
C95    C720    1.394   .     S
C96    C718    1.421   .     S
C97    C98     1.415   .     A
C97    C717    1.421   1_554 S
C98    C99     1.391   .     A
C98    H118    1.078   .     S
C99    H104    1.084   .     S
C99    C716    1.394   1_554 S
Cl102  C149    1.772   .     S
H105   C505    1.111   1_545 S
H107   C505    1.110   1_545 S
H108   N121    1.029   .     S
H112   C290    1.086   .     S
H119   N120    1.031   .     S
N120   C496    1.431   1_545 S
N120   C505    1.446   1_545 S
O122   Zn135   1.951   .     S
O122   Zn138   1.939   .     S
O122   Zn136   1.951   .     S
O122   Zn137   1.927   .     S
O123   Zn136   1.920   .     S
O124   Zn138   1.929   .     S
O125   Zn137   1.931   .     S
O126   Zn135   1.923   .     S
O127   Zn135   1.930   .     S
O128   Zn138   1.926   .     S
O129   Zn136   1.937   .     S
O130   Zn137   1.946   .     S
O131   Zn138   1.943   .     S
O132   Zn135   1.934   .     S
O133   Zn136   1.930   .     S
O134   Zn137   1.932   .     S
C139   C149    1.430   .     S
C139   O200    1.266   .     A
C139   O198    1.273   .     A
C140   Cl172   1.768   .     S
C140   C141    1.390   .     A
C140   C165    1.418   .     A
C141   H184    1.082   .     S
C141   C764    1.399   .     S
C142   O199    1.281   .     A
C142   O201    1.267   .     A
C142   C148    1.458   .     S
C143   C144    1.424   .     A
C143   C145    1.414   .     A
C143   C762    1.399   1_554 S
C144   C147    1.410   .     A
C144   C166    1.424   .     A
C145   C146    1.393   .     A
C145   Cl169   1.765   .     S
C146   C158    1.394   .     A
C146   H183    1.084   .     S
C147   C158    1.392   .     A
C147   H182    1.079   .     S
C148   C11     1.353   1_655 S
C148   Cl32    1.772   1_655 S
C150   H186    1.083   .     S
C150   C157    1.402   .     A
C150   C159    1.392   .     A
C151   C154    1.457   .     S
C151   C359    1.341   .     S
C151   N396    1.431   .     S
C152   C153    1.436   .     S
C152   C565    1.341   1_545 S
C152   H595    1.086   1_545 S
C153   O202    1.278   .     A
C153   O196    1.276   .     A
C154   O203    1.269   .     A
C154   O197    1.275   .     A
C155   O192    1.278   .     A
C155   O194    1.275   .     A
C155   C158    1.456   .     S
C156   O193    1.284   .     A
C156   C157    1.470   .     S
C156   O195    1.284   .     A
C157   C161    1.411   .     A
C159   C164    1.400   .     A
C159   H185    1.084   .     S
C160   H175    1.111   .     S
C160   H381    1.111   .     S
C160   H383    1.110   .     S
C160   N396    1.446   .     S
C161   N190    1.433   .     S
C161   C163    1.419   .     A
C162   N190    1.448   .     S
C162   H180    1.111   .     S
C162   H179    1.110   .     S
C162   H178    1.111   .     S
C163   C165    1.424   .     A
C163   C164    1.416   .     A
C164   C789    1.394   .     S
C165   C787    1.421   .     S
C166   C167    1.415   .     A
C166   C786    1.421   1_554 S
C167   C168    1.391   .     A
C167   H187    1.078   .     S
C168   H173    1.084   .     S
C168   C785    1.394   1_554 S
Cl171  C11     1.772   1_655 S
H174   C574    1.111   1_545 S
H176   C574    1.110   1_545 S
H177   N190    1.029   .     S
H181   C359    1.086   .     S
H188   N189    1.031   .     S
N189   C565    1.431   1_545 S
N189   C574    1.446   1_545 S
O191   Zn204   1.951   .     S
O191   Zn207   1.939   .     S
O191   Zn205   1.951   .     S
O191   Zn206   1.927   .     S
O192   Zn205   1.920   .     S
O193   Zn207   1.929   .     S
O194   Zn206   1.931   .     S
O195   Zn204   1.923   .     S
O196   Zn204   1.930   .     S
O197   Zn207   1.926   .     S
O198   Zn205   1.937   .     S
O199   Zn206   1.946   .     S
O200   Zn207   1.943   .     S
O201   Zn204   1.934   .     S
O202   Zn205   1.930   .     S
O203   Zn206   1.932   .     S
C208   C218    1.430   .     S
C208   O269    1.266   .     A
C208   O267    1.273   .     A
C209   Cl241   1.768   .     S
C209   C210    1.390   .     A
C209   C234    1.418   .     A
C210   H253    1.082   .     S
C210   C833    1.399   .     S
C211   O268    1.281   .     A
C211   O270    1.267   .     A
C211   C217    1.458   .     S
C212   C213    1.424   .     A
C212   C214    1.414   .     A
C212   C831    1.399   1_554 S
C213   C216    1.410   .     A
C213   C235    1.424   .     A
C214   C215    1.393   .     A
C214   Cl238   1.765   .     S
C215   C227    1.394   .     A
C215   H252    1.084   .     S
C216   C227    1.392   .     A
C216   H251    1.079   .     S
C217   C287    1.353   .     S
C217   Cl308   1.772   .     S
C218   C355    1.353   1_455 S
C218   Cl378   1.772   1_455 S
C219   H255    1.083   .     S
C219   C226    1.402   .     A
C219   C228    1.392   .     A
C220   C223    1.457   .     S
C220   C428    1.341   .     S
C220   N465    1.431   .     S
C221   C222    1.436   .     S
C222   O271    1.278   .     A
C222   O265    1.276   .     A
C223   O272    1.269   .     A
C223   O266    1.275   .     A
C224   O261    1.278   .     A
C224   O263    1.275   .     A
C224   C227    1.456   .     S
C225   O262    1.284   .     A
C225   C226    1.470   .     S
C225   O264    1.284   .     A
C226   C230    1.411   .     A
C228   C233    1.400   .     A
C228   H254    1.084   .     S
C229   H244    1.111   .     S
C229   H450    1.111   .     S
C229   H452    1.110   .     S
C229   N465    1.446   .     S
C230   N259    1.433   .     S
C230   C232    1.419   .     A
C231   N259    1.448   .     S
C231   H249    1.111   .     S
C231   H248    1.110   .     S
C231   H247    1.111   .     S
C232   C234    1.424   .     A
C232   C233    1.416   .     A
C233   C858    1.394   .     S
C234   C856    1.421   .     S
C235   C236    1.415   .     A
C235   C855    1.421   1_554 S
C236   C237    1.391   .     A
C236   H256    1.078   .     S
C237   H242    1.084   .     S
C237   C854    1.394   1_554 S
Cl239  C355    1.772   1_455 S
Cl240  C287    1.772   .     S
H246   N259    1.029   .     S
H250   C428    1.086   .     S
H257   N258    1.031   .     S
O260   Zn273   1.951   .     S
O260   Zn276   1.939   .     S
O260   Zn274   1.951   .     S
O260   Zn275   1.927   .     S
O261   Zn274   1.920   .     S
O262   Zn276   1.929   .     S
O263   Zn275   1.931   .     S
O264   Zn273   1.923   .     S
O265   Zn273   1.930   .     S
O266   Zn276   1.926   .     S
O267   Zn274   1.937   .     S
O268   Zn275   1.946   .     S
O269   Zn276   1.943   .     S
O270   Zn273   1.934   .     S
O271   Zn274   1.930   .     S
O272   Zn275   1.932   .     S
C277   C287    1.430   .     S
C277   O338    1.266   .     A
C277   O336    1.273   .     A
C278   Cl310   1.768   .     S
C278   C279    1.390   .     A
C278   C303    1.418   .     A
C279   H322    1.082   .     S
C279   C902    1.399   .     S
C280   O337    1.281   .     A
C280   O339    1.267   .     A
C280   C286    1.458   .     S
C281   C282    1.424   .     A
C281   C283    1.414   .     A
C281   C900    1.399   1_554 S
C282   C285    1.410   .     A
C282   C304    1.424   .     A
C283   C284    1.393   .     A
C283   Cl307   1.765   .     S
C284   C296    1.394   .     A
C284   H321    1.084   .     S
C285   C296    1.392   .     A
C285   H320    1.079   .     S
C286   C356    1.353   .     S
C286   Cl377   1.772   .     S
C288   H324    1.083   .     S
C288   C295    1.402   .     A
C288   C297    1.392   .     A
C289   C292    1.457   .     S
C289   C497    1.341   .     S
C289   N534    1.431   .     S
C290   C291    1.436   .     S
C291   O340    1.278   .     A
C291   O334    1.276   .     A
C292   O341    1.269   .     A
C292   O335    1.275   .     A
C293   O330    1.278   .     A
C293   O332    1.275   .     A
C293   C296    1.456   .     S
C294   O331    1.284   .     A
C294   C295    1.470   .     S
C294   O333    1.284   .     A
C295   C299    1.411   .     A
C297   C302    1.400   .     A
C297   H323    1.084   .     S
C298   H313    1.111   .     S
C298   H519    1.111   .     S
C298   H521    1.110   .     S
C298   N534    1.446   .     S
C299   N328    1.433   .     S
C299   C301    1.419   .     A
C300   N328    1.448   .     S
C300   H318    1.111   .     S
C300   H317    1.110   .     S
C300   H316    1.111   .     S
C301   C303    1.424   .     A
C301   C302    1.416   .     A
C302   C927    1.394   .     S
C303   C925    1.421   .     S
C304   C305    1.415   .     A
C304   C924    1.421   1_554 S
C305   C306    1.391   .     A
C305   H325    1.078   .     S
C306   H311    1.084   .     S
C306   C923    1.394   1_554 S
Cl309  C356    1.772   .     S
H315   N328    1.029   .     S
H319   C497    1.086   .     S
H326   N327    1.031   .     S
O329   Zn342   1.951   .     S
O329   Zn345   1.939   .     S
O329   Zn343   1.951   .     S
O329   Zn344   1.927   .     S
O330   Zn343   1.920   .     S
O331   Zn345   1.929   .     S
O332   Zn344   1.931   .     S
O333   Zn342   1.923   .     S
O334   Zn342   1.930   .     S
O335   Zn345   1.926   .     S
O336   Zn343   1.937   .     S
O337   Zn344   1.946   .     S
O338   Zn345   1.943   .     S
O339   Zn342   1.934   .     S
O340   Zn343   1.930   .     S
O341   Zn344   1.932   .     S
C346   C356    1.430   .     S
C346   O407    1.266   .     A
C346   O405    1.273   .     A
C347   Cl379   1.768   .     S
C347   C348    1.390   .     A
C347   C372    1.418   .     A
C348   H391    1.082   .     S
C348   C971    1.399   .     S
C349   O406    1.281   .     A
C349   O408    1.267   .     A
C349   C355    1.458   .     S
C350   C351    1.424   .     A
C350   C352    1.414   .     A
C350   C969    1.399   1_554 S
C351   C354    1.410   .     A
C351   C373    1.424   .     A
C352   C353    1.393   .     A
C352   Cl376   1.765   .     S
C353   C365    1.394   .     A
C353   H390    1.084   .     S
C354   C365    1.392   .     A
C354   H389    1.079   .     S
C355   C218    1.353   1_655 S
C355   Cl239   1.772   1_655 S
C357   H393    1.083   .     S
C357   C364    1.402   .     A
C357   C366    1.392   .     A
C358   C361    1.457   .     S
C358   C566    1.341   .     S
C358   N603    1.431   .     S
C359   C360    1.436   .     S
C360   O409    1.278   .     A
C360   O403    1.276   .     A
C361   O410    1.269   .     A
C361   O404    1.275   .     A
C362   O399    1.278   .     A
C362   O401    1.275   .     A
C362   C365    1.456   .     S
C363   O400    1.284   .     A
C363   C364    1.470   .     S
C363   O402    1.284   .     A
C364   C368    1.411   .     A
C366   C371    1.400   .     A
C366   H392    1.084   .     S
C367   H382    1.111   .     S
C367   H588    1.111   .     S
C367   H590    1.110   .     S
C367   N603    1.446   .     S
C368   N397    1.433   .     S
C368   C370    1.419   .     A
C369   N397    1.448   .     S
C369   H387    1.111   .     S
C369   H386    1.110   .     S
C369   H385    1.111   .     S
C370   C372    1.424   .     A
C370   C371    1.416   .     A
C371   C996    1.394   .     S
C372   C994    1.421   .     S
C373   C374    1.415   .     A
C373   C993    1.421   1_554 S
C374   C375    1.391   .     A
C374   H394    1.078   .     S
C375   H380    1.084   .     S
C375   C992    1.394   1_554 S
Cl378  C218    1.772   1_655 S
H384   N397    1.029   .     S
H388   C566    1.086   .     S
H395   N396    1.031   .     S
O398   Zn411   1.951   .     S
O398   Zn414   1.939   .     S
O398   Zn412   1.951   .     S
O398   Zn413   1.927   .     S
O399   Zn412   1.920   .     S
O400   Zn414   1.929   .     S
O401   Zn413   1.931   .     S
O402   Zn411   1.923   .     S
O403   Zn411   1.930   .     S
O404   Zn414   1.926   .     S
O405   Zn412   1.937   .     S
O406   Zn413   1.946   .     S
O407   Zn414   1.943   .     S
O408   Zn411   1.934   .     S
O409   Zn412   1.930   .     S
O410   Zn413   1.932   .     S
C415   C425    1.430   .     S
C415   O476    1.266   .     A
C415   O474    1.273   .     A
C416   Cl448   1.768   .     S
C416   C417    1.390   .     A
C416   C441    1.418   .     A
C417   H460    1.082   .     S
C417   C1040   1.399   .     S
C418   O475    1.281   .     A
C418   O477    1.267   .     A
C418   C424    1.458   .     S
C419   C420    1.424   .     A
C419   C421    1.414   .     A
C419   C1038   1.399   1_554 S
C420   C423    1.410   .     A
C420   C442    1.424   .     A
C421   C422    1.393   .     A
C421   Cl445   1.765   .     S
C422   C434    1.394   .     A
C422   H459    1.084   .     S
C423   C434    1.392   .     A
C423   H458    1.079   .     S
C424   C494    1.353   .     S
C424   Cl515   1.772   .     S
C425   C562    1.353   1_455 S
C425   Cl585   1.772   1_455 S
C426   H462    1.083   .     S
C426   C433    1.402   .     A
C426   C435    1.392   .     A
C427   C430    1.457   .     S
C427   C14     1.341   1_565 S
C427   N51     1.431   1_565 S
C428   C429    1.436   .     S
C429   O478    1.278   .     A
C429   O472    1.276   .     A
C430   O479    1.269   .     A
C430   O473    1.275   .     A
C431   O468    1.278   .     A
C431   O470    1.275   .     A
C431   C434    1.456   .     S
C432   O469    1.284   .     A
C432   C433    1.470   .     S
C432   O471    1.284   .     A
C433   C437    1.411   .     A
C435   C440    1.400   .     A
C435   H461    1.084   .     S
C436   H451    1.111   .     S
C436   H36     1.111   1_565 S
C436   H38     1.110   1_565 S
C436   N51     1.446   1_565 S
C437   N466    1.433   .     S
C437   C439    1.419   .     A
C438   N466    1.448   .     S
C438   H456    1.111   .     S
C438   H455    1.110   .     S
C438   H454    1.111   .     S
C439   C441    1.424   .     A
C439   C440    1.416   .     A
C440   C1065   1.394   .     S
C441   C1063   1.421   .     S
C442   C443    1.415   .     A
C442   C1062   1.421   1_554 S
C443   C444    1.391   .     A
C443   H463    1.078   .     S
C444   H449    1.084   .     S
C444   C1061   1.394   1_554 S
Cl446  C562    1.772   1_455 S
Cl447  C494    1.772   .     S
H453   N466    1.029   .     S
H457   C14     1.086   1_565 S
H464   N465    1.031   .     S
O467   Zn480   1.951   .     S
O467   Zn483   1.939   .     S
O467   Zn481   1.951   .     S
O467   Zn482   1.927   .     S
O468   Zn481   1.920   .     S
O469   Zn483   1.929   .     S
O470   Zn482   1.931   .     S
O471   Zn480   1.923   .     S
O472   Zn480   1.930   .     S
O473   Zn483   1.926   .     S
O474   Zn481   1.937   .     S
O475   Zn482   1.946   .     S
O476   Zn483   1.943   .     S
O477   Zn480   1.934   .     S
O478   Zn481   1.930   .     S
O479   Zn482   1.932   .     S
C484   C494    1.430   .     S
C484   O545    1.266   .     A
C484   O543    1.273   .     A
C485   Cl517   1.768   .     S
C485   C486    1.390   .     A
C485   C510    1.418   .     A
C486   H529    1.082   .     S
C486   C1109   1.399   .     S
C487   O544    1.281   .     A
C487   O546    1.267   .     A
C487   C493    1.458   .     S
C488   C489    1.424   .     A
C488   C490    1.414   .     A
C488   C1107   1.399   1_554 S
C489   C492    1.410   .     A
C489   C511    1.424   .     A
C490   C491    1.393   .     A
C490   Cl514   1.765   .     S
C491   C503    1.394   .     A
C491   H528    1.084   .     S
C492   C503    1.392   .     A
C492   H527    1.079   .     S
C493   C563    1.353   .     S
C493   Cl584   1.772   .     S
C495   H531    1.083   .     S
C495   C502    1.402   .     A
C495   C504    1.392   .     A
C496   C499    1.457   .     S
C496   C83     1.341   1_565 S
C496   N120    1.431   1_565 S
C497   C498    1.436   .     S
C498   O547    1.278   .     A
C498   O541    1.276   .     A
C499   O548    1.269   .     A
C499   O542    1.275   .     A
C500   O537    1.278   .     A
C500   O539    1.275   .     A
C500   C503    1.456   .     S
C501   O538    1.284   .     A
C501   C502    1.470   .     S
C501   O540    1.284   .     A
C502   C506    1.411   .     A
C504   C509    1.400   .     A
C504   H530    1.084   .     S
C505   H520    1.111   .     S
C505   H105    1.111   1_565 S
C505   H107    1.110   1_565 S
C505   N120    1.446   1_565 S
C506   N535    1.433   .     S
C506   C508    1.419   .     A
C507   N535    1.448   .     S
C507   H525    1.111   .     S
C507   H524    1.110   .     S
C507   H523    1.111   .     S
C508   C510    1.424   .     A
C508   C509    1.416   .     A
C509   C1134   1.394   .     S
C510   C1132   1.421   .     S
C511   C512    1.415   .     A
C511   C1131   1.421   1_554 S
C512   C513    1.391   .     A
C512   H532    1.078   .     S
C513   H518    1.084   .     S
C513   C1130   1.394   1_554 S
Cl516  C563    1.772   .     S
H522   N535    1.029   .     S
H526   C83     1.086   1_565 S
H533   N534    1.031   .     S
O536   Zn549   1.951   .     S
O536   Zn552   1.939   .     S
O536   Zn550   1.951   .     S
O536   Zn551   1.927   .     S
O537   Zn550   1.920   .     S
O538   Zn552   1.929   .     S
O539   Zn551   1.931   .     S
O540   Zn549   1.923   .     S
O541   Zn549   1.930   .     S
O542   Zn552   1.926   .     S
O543   Zn550   1.937   .     S
O544   Zn551   1.946   .     S
O545   Zn552   1.943   .     S
O546   Zn549   1.934   .     S
O547   Zn550   1.930   .     S
O548   Zn551   1.932   .     S
C553   C563    1.430   .     S
C553   O614    1.266   .     A
C553   O612    1.273   .     A
C554   Cl586   1.768   .     S
C554   C555    1.390   .     A
C554   C579    1.418   .     A
C555   H598    1.082   .     S
C555   C1178   1.399   .     S
C556   O613    1.281   .     A
C556   O615    1.267   .     A
C556   C562    1.458   .     S
C557   C558    1.424   .     A
C557   C559    1.414   .     A
C557   C1176   1.399   1_554 S
C558   C561    1.410   .     A
C558   C580    1.424   .     A
C559   C560    1.393   .     A
C559   Cl583   1.765   .     S
C560   C572    1.394   .     A
C560   H597    1.084   .     S
C561   C572    1.392   .     A
C561   H596    1.079   .     S
C562   C425    1.353   1_655 S
C562   Cl446   1.772   1_655 S
C564   H600    1.083   .     S
C564   C571    1.402   .     A
C564   C573    1.392   .     A
C565   C568    1.457   .     S
C565   C152    1.341   1_565 S
C565   N189    1.431   1_565 S
C566   C567    1.436   .     S
C567   O616    1.278   .     A
C567   O610    1.276   .     A
C568   O617    1.269   .     A
C568   O611    1.275   .     A
C569   O606    1.278   .     A
C569   O608    1.275   .     A
C569   C572    1.456   .     S
C570   O607    1.284   .     A
C570   C571    1.470   .     S
C570   O609    1.284   .     A
C571   C575    1.411   .     A
C573   C578    1.400   .     A
C573   H599    1.084   .     S
C574   H589    1.111   .     S
C574   H174    1.111   1_565 S
C574   H176    1.110   1_565 S
C574   N189    1.446   1_565 S
C575   N604    1.433   .     S
C575   C577    1.419   .     A
C576   N604    1.448   .     S
C576   H594    1.111   .     S
C576   H593    1.110   .     S
C576   H592    1.111   .     S
C577   C579    1.424   .     A
C577   C578    1.416   .     A
C578   C1203   1.394   .     S
C579   C1201   1.421   .     S
C580   C581    1.415   .     A
C580   C1200   1.421   1_554 S
C581   C582    1.391   .     A
C581   H601    1.078   .     S
C582   H587    1.084   .     S
C582   C1199   1.394   1_554 S
Cl585  C425    1.772   1_655 S
H591   N604    1.029   .     S
H595   C152    1.086   1_565 S
H602   N603    1.031   .     S
O605   Zn618   1.951   .     S
O605   Zn621   1.939   .     S
O605   Zn619   1.951   .     S
O605   Zn620   1.927   .     S
O606   Zn619   1.920   .     S
O607   Zn621   1.929   .     S
O608   Zn620   1.931   .     S
O609   Zn618   1.923   .     S
O610   Zn618   1.930   .     S
O611   Zn621   1.926   .     S
O612   Zn619   1.937   .     S
O613   Zn620   1.946   .     S
O614   Zn621   1.943   .     S
O615   Zn618   1.934   .     S
O616   Zn619   1.930   .     S
O617   Zn620   1.932   .     S
C622   C632    1.430   .     S
C622   O683    1.266   .     A
C622   O681    1.273   .     A
C623   Cl655   1.768   .     S
C623   C624    1.390   .     A
C623   C648    1.418   .     A
C624   H667    1.082   .     S
C624   C5      1.399   1_556 S
C625   O682    1.281   .     A
C625   O684    1.267   .     A
C625   C631    1.458   .     S
C626   C627    1.424   .     A
C626   C628    1.414   .     A
C627   C630    1.410   .     A
C627   C649    1.424   .     A
C628   C629    1.393   .     A
C628   Cl652   1.765   .     S
C629   C641    1.394   .     A
C629   H666    1.084   .     S
C630   C641    1.392   .     A
C630   H665    1.079   .     S
C631   C701    1.353   .     S
C631   Cl722   1.772   .     S
C632   C769    1.353   1_455 S
C632   Cl792   1.772   1_455 S
C633   H669    1.083   .     S
C633   C640    1.402   .     A
C633   C642    1.392   .     A
C634   C637    1.457   .     S
C634   C842    1.341   .     S
C634   N879    1.431   .     S
C635   C636    1.436   .     S
C635   C1048   1.341   1_545 S
C635   H1078   1.086   1_545 S
C636   O685    1.278   .     A
C636   O679    1.276   .     A
C637   O686    1.269   .     A
C637   O680    1.275   .     A
C638   O675    1.278   .     A
C638   O677    1.275   .     A
C638   C641    1.456   .     S
C639   O676    1.284   .     A
C639   C640    1.470   .     S
C639   O678    1.284   .     A
C640   C644    1.411   .     A
C642   C647    1.400   .     A
C642   H668    1.084   .     S
C643   H658    1.111   .     S
C643   H864    1.111   .     S
C643   H866    1.110   .     S
C643   N879    1.446   .     S
C644   N673    1.433   .     S
C644   C646    1.419   .     A
C645   N673    1.448   .     S
C645   H663    1.111   .     S
C645   H662    1.110   .     S
C645   H661    1.111   .     S
C646   C648    1.424   .     A
C646   C647    1.416   .     A
C647   C30     1.394   1_556 S
C648   C28     1.421   1_556 S
C649   C650    1.415   .     A
C650   C651    1.391   .     A
C650   H670    1.078   .     S
C651   H656    1.084   .     S
Cl653  C769    1.772   1_455 S
Cl654  C701    1.772   .     S
H657   C1057   1.111   1_545 S
H659   C1057   1.110   1_545 S
H660   N673    1.029   .     S
H664   C842    1.086   .     S
H671   N672    1.031   .     S
N672   C1048   1.431   1_545 S
N672   C1057   1.446   1_545 S
O674   Zn687   1.951   .     S
O674   Zn690   1.939   .     S
O674   Zn688   1.951   .     S
O674   Zn689   1.927   .     S
O675   Zn688   1.920   .     S
O676   Zn690   1.929   .     S
O677   Zn689   1.931   .     S
O678   Zn687   1.923   .     S
O679   Zn687   1.930   .     S
O680   Zn690   1.926   .     S
O681   Zn688   1.937   .     S
O682   Zn689   1.946   .     S
O683   Zn690   1.943   .     S
O684   Zn687   1.934   .     S
O685   Zn688   1.930   .     S
O686   Zn689   1.932   .     S
C691   C701    1.430   .     S
C691   O752    1.266   .     A
C691   O750    1.273   .     A
C692   Cl724   1.768   .     S
C692   C693    1.390   .     A
C692   C717    1.418   .     A
C693   H736    1.082   .     S
C693   C74     1.399   1_556 S
C694   O751    1.281   .     A
C694   O753    1.267   .     A
C694   C700    1.458   .     S
C695   C696    1.424   .     A
C695   C697    1.414   .     A
C696   C699    1.410   .     A
C696   C718    1.424   .     A
C697   C698    1.393   .     A
C697   Cl721   1.765   .     S
C698   C710    1.394   .     A
C698   H735    1.084   .     S
C699   C710    1.392   .     A
C699   H734    1.079   .     S
C700   C770    1.353   .     S
C700   Cl791   1.772   .     S
C702   H738    1.083   .     S
C702   C709    1.402   .     A
C702   C711    1.392   .     A
C703   C706    1.457   .     S
C703   C911    1.341   .     S
C703   N948    1.431   .     S
C704   C705    1.436   .     S
C704   C1117   1.341   1_545 S
C704   H1147   1.086   1_545 S
C705   O754    1.278   .     A
C705   O748    1.276   .     A
C706   O755    1.269   .     A
C706   O749    1.275   .     A
C707   O744    1.278   .     A
C707   O746    1.275   .     A
C707   C710    1.456   .     S
C708   O745    1.284   .     A
C708   C709    1.470   .     S
C708   O747    1.284   .     A
C709   C713    1.411   .     A
C711   C716    1.400   .     A
C711   H737    1.084   .     S
C712   H727    1.111   .     S
C712   H933    1.111   .     S
C712   H935    1.110   .     S
C712   N948    1.446   .     S
C713   N742    1.433   .     S
C713   C715    1.419   .     A
C714   N742    1.448   .     S
C714   H732    1.111   .     S
C714   H731    1.110   .     S
C714   H730    1.111   .     S
C715   C717    1.424   .     A
C715   C716    1.416   .     A
C716   C99     1.394   1_556 S
C717   C97     1.421   1_556 S
C718   C719    1.415   .     A
C719   C720    1.391   .     A
C719   H739    1.078   .     S
C720   H725    1.084   .     S
Cl723  C770    1.772   .     S
H726   C1126   1.111   1_545 S
H728   C1126   1.110   1_545 S
H729   N742    1.029   .     S
H733   C911    1.086   .     S
H740   N741    1.031   .     S
N741   C1117   1.431   1_545 S
N741   C1126   1.446   1_545 S
O743   Zn756   1.951   .     S
O743   Zn759   1.939   .     S
O743   Zn757   1.951   .     S
O743   Zn758   1.927   .     S
O744   Zn757   1.920   .     S
O745   Zn759   1.929   .     S
O746   Zn758   1.931   .     S
O747   Zn756   1.923   .     S
O748   Zn756   1.930   .     S
O749   Zn759   1.926   .     S
O750   Zn757   1.937   .     S
O751   Zn758   1.946   .     S
O752   Zn759   1.943   .     S
O753   Zn756   1.934   .     S
O754   Zn757   1.930   .     S
O755   Zn758   1.932   .     S
C760   C770    1.430   .     S
C760   O821    1.266   .     A
C760   O819    1.273   .     A
C761   Cl793   1.768   .     S
C761   C762    1.390   .     A
C761   C786    1.418   .     A
C762   H805    1.082   .     S
C762   C143    1.399   1_556 S
C763   O820    1.281   .     A
C763   O822    1.267   .     A
C763   C769    1.458   .     S
C764   C765    1.424   .     A
C764   C766    1.414   .     A
C765   C768    1.410   .     A
C765   C787    1.424   .     A
C766   C767    1.393   .     A
C766   Cl790   1.765   .     S
C767   C779    1.394   .     A
C767   H804    1.084   .     S
C768   C779    1.392   .     A
C768   H803    1.079   .     S
C769   C632    1.353   1_655 S
C769   Cl653   1.772   1_655 S
C771   H807    1.083   .     S
C771   C778    1.402   .     A
C771   C780    1.392   .     A
C772   C775    1.457   .     S
C772   C980    1.341   .     S
C772   N1017   1.431   .     S
C773   C774    1.436   .     S
C773   C1186   1.341   1_545 S
C773   H1216   1.086   1_545 S
C774   O823    1.278   .     A
C774   O817    1.276   .     A
C775   O824    1.269   .     A
C775   O818    1.275   .     A
C776   O813    1.278   .     A
C776   O815    1.275   .     A
C776   C779    1.456   .     S
C777   O814    1.284   .     A
C777   C778    1.470   .     S
C777   O816    1.284   .     A
C778   C782    1.411   .     A
C780   C785    1.400   .     A
C780   H806    1.084   .     S
C781   H796    1.111   .     S
C781   H1002   1.111   .     S
C781   H1004   1.110   .     S
C781   N1017   1.446   .     S
C782   N811    1.433   .     S
C782   C784    1.419   .     A
C783   N811    1.448   .     S
C783   H801    1.111   .     S
C783   H800    1.110   .     S
C783   H799    1.111   .     S
C784   C786    1.424   .     A
C784   C785    1.416   .     A
C785   C168    1.394   1_556 S
C786   C166    1.421   1_556 S
C787   C788    1.415   .     A
C788   C789    1.391   .     A
C788   H808    1.078   .     S
C789   H794    1.084   .     S
Cl792  C632    1.772   1_655 S
H795   C1195   1.111   1_545 S
H797   C1195   1.110   1_545 S
H798   N811    1.029   .     S
H802   C980    1.086   .     S
H809   N810    1.031   .     S
N810   C1186   1.431   1_545 S
N810   C1195   1.446   1_545 S
O812   Zn825   1.951   .     S
O812   Zn828   1.939   .     S
O812   Zn826   1.951   .     S
O812   Zn827   1.927   .     S
O813   Zn826   1.920   .     S
O814   Zn828   1.929   .     S
O815   Zn827   1.931   .     S
O816   Zn825   1.923   .     S
O817   Zn825   1.930   .     S
O818   Zn828   1.926   .     S
O819   Zn826   1.937   .     S
O820   Zn827   1.946   .     S
O821   Zn828   1.943   .     S
O822   Zn825   1.934   .     S
O823   Zn826   1.930   .     S
O824   Zn827   1.932   .     S
C829   C839    1.430   .     S
C829   O890    1.266   .     A
C829   O888    1.273   .     A
C830   Cl862   1.768   .     S
C830   C831    1.390   .     A
C830   C855    1.418   .     A
C831   H874    1.082   .     S
C831   C212    1.399   1_556 S
C832   O889    1.281   .     A
C832   O891    1.267   .     A
C832   C838    1.458   .     S
C833   C834    1.424   .     A
C833   C835    1.414   .     A
C834   C837    1.410   .     A
C834   C856    1.424   .     A
C835   C836    1.393   .     A
C835   Cl859   1.765   .     S
C836   C848    1.394   .     A
C836   H873    1.084   .     S
C837   C848    1.392   .     A
C837   H872    1.079   .     S
C838   C908    1.353   .     S
C838   Cl929   1.772   .     S
C839   C976    1.353   1_455 S
C839   Cl999   1.772   1_455 S
C840   H876    1.083   .     S
C840   C847    1.402   .     A
C840   C849    1.392   .     A
C841   C844    1.457   .     S
C841   C1049   1.341   .     S
C841   N1086   1.431   .     S
C842   C843    1.436   .     S
C843   O892    1.278   .     A
C843   O886    1.276   .     A
C844   O893    1.269   .     A
C844   O887    1.275   .     A
C845   O882    1.278   .     A
C845   O884    1.275   .     A
C845   C848    1.456   .     S
C846   O883    1.284   .     A
C846   C847    1.470   .     S
C846   O885    1.284   .     A
C847   C851    1.411   .     A
C849   C854    1.400   .     A
C849   H875    1.084   .     S
C850   H865    1.111   .     S
C850   H1071   1.111   .     S
C850   H1073   1.110   .     S
C850   N1086   1.446   .     S
C851   N880    1.433   .     S
C851   C853    1.419   .     A
C852   N880    1.448   .     S
C852   H870    1.111   .     S
C852   H869    1.110   .     S
C852   H868    1.111   .     S
C853   C855    1.424   .     A
C853   C854    1.416   .     A
C854   C237    1.394   1_556 S
C855   C235    1.421   1_556 S
C856   C857    1.415   .     A
C857   C858    1.391   .     A
C857   H877    1.078   .     S
C858   H863    1.084   .     S
Cl860  C976    1.772   1_455 S
Cl861  C908    1.772   .     S
H867   N880    1.029   .     S
H871   C1049   1.086   .     S
H878   N879    1.031   .     S
O881   Zn894   1.951   .     S
O881   Zn897   1.939   .     S
O881   Zn895   1.951   .     S
O881   Zn896   1.927   .     S
O882   Zn895   1.920   .     S
O883   Zn897   1.929   .     S
O884   Zn896   1.931   .     S
O885   Zn894   1.923   .     S
O886   Zn894   1.930   .     S
O887   Zn897   1.926   .     S
O888   Zn895   1.937   .     S
O889   Zn896   1.946   .     S
O890   Zn897   1.943   .     S
O891   Zn894   1.934   .     S
O892   Zn895   1.930   .     S
O893   Zn896   1.932   .     S
C898   C908    1.430   .     S
C898   O959    1.266   .     A
C898   O957    1.273   .     A
C899   Cl931   1.768   .     S
C899   C900    1.390   .     A
C899   C924    1.418   .     A
C900   H943    1.082   .     S
C900   C281    1.399   1_556 S
C901   O958    1.281   .     A
C901   O960    1.267   .     A
C901   C907    1.458   .     S
C902   C903    1.424   .     A
C902   C904    1.414   .     A
C903   C906    1.410   .     A
C903   C925    1.424   .     A
C904   C905    1.393   .     A
C904   Cl928   1.765   .     S
C905   C917    1.394   .     A
C905   H942    1.084   .     S
C906   C917    1.392   .     A
C906   H941    1.079   .     S
C907   C977    1.353   .     S
C907   Cl998   1.772   .     S
C909   H945    1.083   .     S
C909   C916    1.402   .     A
C909   C918    1.392   .     A
C910   C913    1.457   .     S
C910   C1118   1.341   .     S
C910   N1155   1.431   .     S
C911   C912    1.436   .     S
C912   O961    1.278   .     A
C912   O955    1.276   .     A
C913   O962    1.269   .     A
C913   O956    1.275   .     A
C914   O951    1.278   .     A
C914   O953    1.275   .     A
C914   C917    1.456   .     S
C915   O952    1.284   .     A
C915   C916    1.470   .     S
C915   O954    1.284   .     A
C916   C920    1.411   .     A
C918   C923    1.400   .     A
C918   H944    1.084   .     S
C919   H934    1.111   .     S
C919   H1140   1.111   .     S
C919   H1142   1.110   .     S
C919   N1155   1.446   .     S
C920   N949    1.433   .     S
C920   C922    1.419   .     A
C921   N949    1.448   .     S
C921   H939    1.111   .     S
C921   H938    1.110   .     S
C921   H937    1.111   .     S
C922   C924    1.424   .     A
C922   C923    1.416   .     A
C923   C306    1.394   1_556 S
C924   C304    1.421   1_556 S
C925   C926    1.415   .     A
C926   C927    1.391   .     A
C926   H946    1.078   .     S
C927   H932    1.084   .     S
Cl930  C977    1.772   .     S
H936   N949    1.029   .     S
H940   C1118   1.086   .     S
H947   N948    1.031   .     S
O950   Zn963   1.951   .     S
O950   Zn966   1.939   .     S
O950   Zn964   1.951   .     S
O950   Zn965   1.927   .     S
O951   Zn964   1.920   .     S
O952   Zn966   1.929   .     S
O953   Zn965   1.931   .     S
O954   Zn963   1.923   .     S
O955   Zn963   1.930   .     S
O956   Zn966   1.926   .     S
O957   Zn964   1.937   .     S
O958   Zn965   1.946   .     S
O959   Zn966   1.943   .     S
O960   Zn963   1.934   .     S
O961   Zn964   1.930   .     S
O962   Zn965   1.932   .     S
C967   C977    1.430   .     S
C967   O1028   1.266   .     A
C967   O1026   1.273   .     A
C968   Cl1000  1.768   .     S
C968   C969    1.390   .     A
C968   C993    1.418   .     A
C969   H1012   1.082   .     S
C969   C350    1.399   1_556 S
C970   O1027   1.281   .     A
C970   O1029   1.267   .     A
C970   C976    1.458   .     S
C971   C972    1.424   .     A
C971   C973    1.414   .     A
C972   C975    1.410   .     A
C972   C994    1.424   .     A
C973   C974    1.393   .     A
C973   Cl997   1.765   .     S
C974   C986    1.394   .     A
C974   H1011   1.084   .     S
C975   C986    1.392   .     A
C975   H1010   1.079   .     S
C976   C839    1.353   1_655 S
C976   Cl860   1.772   1_655 S
C978   H1014   1.083   .     S
C978   C985    1.402   .     A
C978   C987    1.392   .     A
C979   C982    1.457   .     S
C979   C1187   1.341   .     S
C979   N1224   1.431   .     S
C980   C981    1.436   .     S
C981   O1030   1.278   .     A
C981   O1024   1.276   .     A
C982   O1031   1.269   .     A
C982   O1025   1.275   .     A
C983   O1020   1.278   .     A
C983   O1022   1.275   .     A
C983   C986    1.456   .     S
C984   O1021   1.284   .     A
C984   C985    1.470   .     S
C984   O1023   1.284   .     A
C985   C989    1.411   .     A
C987   C992    1.400   .     A
C987   H1013   1.084   .     S
C988   H1003   1.111   .     S
C988   H1209   1.111   .     S
C988   H1211   1.110   .     S
C988   N1224   1.446   .     S
C989   N1018   1.433   .     S
C989   C991    1.419   .     A
C990   N1018   1.448   .     S
C990   H1008   1.111   .     S
C990   H1007   1.110   .     S
C990   H1006   1.111   .     S
C991   C993    1.424   .     A
C991   C992    1.416   .     A
C992   C375    1.394   1_556 S
C993   C373    1.421   1_556 S
C994   C995    1.415   .     A
C995   C996    1.391   .     A
C995   H1015   1.078   .     S
C996   H1001   1.084   .     S
Cl999  C839    1.772   1_655 S
H1005  N1018   1.029   .     S
H1009  C1187   1.086   .     S
H1016  N1017   1.031   .     S
O1019  Zn1032  1.951   .     S
O1019  Zn1035  1.939   .     S
O1019  Zn1033  1.951   .     S
O1019  Zn1034  1.927   .     S
O1020  Zn1033  1.920   .     S
O1021  Zn1035  1.929   .     S
O1022  Zn1034  1.931   .     S
O1023  Zn1032  1.923   .     S
O1024  Zn1032  1.930   .     S
O1025  Zn1035  1.926   .     S
O1026  Zn1033  1.937   .     S
O1027  Zn1034  1.946   .     S
O1028  Zn1035  1.943   .     S
O1029  Zn1032  1.934   .     S
O1030  Zn1033  1.930   .     S
O1031  Zn1034  1.932   .     S
C1036  C1046   1.430   .     S
C1036  O1097   1.266   .     A
C1036  O1095   1.273   .     A
C1037  Cl1069  1.768   .     S
C1037  C1038   1.390   .     A
C1037  C1062   1.418   .     A
C1038  H1081   1.082   .     S
C1038  C419    1.399   1_556 S
C1039  O1096   1.281   .     A
C1039  O1098   1.267   .     A
C1039  C1045   1.458   .     S
C1040  C1041   1.424   .     A
C1040  C1042   1.414   .     A
C1041  C1044   1.410   .     A
C1041  C1063   1.424   .     A
C1042  C1043   1.393   .     A
C1042  Cl1066  1.765   .     S
C1043  C1055   1.394   .     A
C1043  H1080   1.084   .     S
C1044  C1055   1.392   .     A
C1044  H1079   1.079   .     S
C1045  C1115   1.353   .     S
C1045  Cl1136  1.772   .     S
C1046  C1183   1.353   1_455 S
C1046  Cl1206  1.772   1_455 S
C1047  H1083   1.083   .     S
C1047  C1054   1.402   .     A
C1047  C1056   1.392   .     A
C1048  C1051   1.457   .     S
C1048  C635    1.341   1_565 S
C1048  N672    1.431   1_565 S
C1049  C1050   1.436   .     S
C1050  O1099   1.278   .     A
C1050  O1093   1.276   .     A
C1051  O1100   1.269   .     A
C1051  O1094   1.275   .     A
C1052  O1089   1.278   .     A
C1052  O1091   1.275   .     A
C1052  C1055   1.456   .     S
C1053  O1090   1.284   .     A
C1053  C1054   1.470   .     S
C1053  O1092   1.284   .     A
C1054  C1058   1.411   .     A
C1056  C1061   1.400   .     A
C1056  H1082   1.084   .     S
C1057  H1072   1.111   .     S
C1057  H657    1.111   1_565 S
C1057  H659    1.110   1_565 S
C1057  N672    1.446   1_565 S
C1058  N1087   1.433   .     S
C1058  C1060   1.419   .     A
C1059  N1087   1.448   .     S
C1059  H1077   1.111   .     S
C1059  H1076   1.110   .     S
C1059  H1075   1.111   .     S
C1060  C1062   1.424   .     A
C1060  C1061   1.416   .     A
C1061  C444    1.394   1_556 S
C1062  C442    1.421   1_556 S
C1063  C1064   1.415   .     A
C1064  C1065   1.391   .     A
C1064  H1084   1.078   .     S
C1065  H1070   1.084   .     S
Cl1067 C1183   1.772   1_455 S
Cl1068 C1115   1.772   .     S
H1074  N1087   1.029   .     S
H1078  C635    1.086   1_565 S
H1085  N1086   1.031   .     S
O1088  Zn1101  1.951   .     S
O1088  Zn1104  1.939   .     S
O1088  Zn1102  1.951   .     S
O1088  Zn1103  1.927   .     S
O1089  Zn1102  1.920   .     S
O1090  Zn1104  1.929   .     S
O1091  Zn1103  1.931   .     S
O1092  Zn1101  1.923   .     S
O1093  Zn1101  1.930   .     S
O1094  Zn1104  1.926   .     S
O1095  Zn1102  1.937   .     S
O1096  Zn1103  1.946   .     S
O1097  Zn1104  1.943   .     S
O1098  Zn1101  1.934   .     S
O1099  Zn1102  1.930   .     S
O1100  Zn1103  1.932   .     S
C1105  C1115   1.430   .     S
C1105  O1166   1.266   .     A
C1105  O1164   1.273   .     A
C1106  Cl1138  1.768   .     S
C1106  C1107   1.390   .     A
C1106  C1131   1.418   .     A
C1107  H1150   1.082   .     S
C1107  C488    1.399   1_556 S
C1108  O1165   1.281   .     A
C1108  O1167   1.267   .     A
C1108  C1114   1.458   .     S
C1109  C1110   1.424   .     A
C1109  C1111   1.414   .     A
C1110  C1113   1.410   .     A
C1110  C1132   1.424   .     A
C1111  C1112   1.393   .     A
C1111  Cl1135  1.765   .     S
C1112  C1124   1.394   .     A
C1112  H1149   1.084   .     S
C1113  C1124   1.392   .     A
C1113  H1148   1.079   .     S
C1114  C1184   1.353   .     S
C1114  Cl1205  1.772   .     S
C1116  H1152   1.083   .     S
C1116  C1123   1.402   .     A
C1116  C1125   1.392   .     A
C1117  C1120   1.457   .     S
C1117  C704    1.341   1_565 S
C1117  N741    1.431   1_565 S
C1118  C1119   1.436   .     S
C1119  O1168   1.278   .     A
C1119  O1162   1.276   .     A
C1120  O1169   1.269   .     A
C1120  O1163   1.275   .     A
C1121  O1158   1.278   .     A
C1121  O1160   1.275   .     A
C1121  C1124   1.456   .     S
C1122  O1159   1.284   .     A
C1122  C1123   1.470   .     S
C1122  O1161   1.284   .     A
C1123  C1127   1.411   .     A
C1125  C1130   1.400   .     A
C1125  H1151   1.084   .     S
C1126  H1141   1.111   .     S
C1126  H726    1.111   1_565 S
C1126  H728    1.110   1_565 S
C1126  N741    1.446   1_565 S
C1127  N1156   1.433   .     S
C1127  C1129   1.419   .     A
C1128  N1156   1.448   .     S
C1128  H1146   1.111   .     S
C1128  H1145   1.110   .     S
C1128  H1144   1.111   .     S
C1129  C1131   1.424   .     A
C1129  C1130   1.416   .     A
C1130  C513    1.394   1_556 S
C1131  C511    1.421   1_556 S
C1132  C1133   1.415   .     A
C1133  C1134   1.391   .     A
C1133  H1153   1.078   .     S
C1134  H1139   1.084   .     S
Cl1137 C1184   1.772   .     S
H1143  N1156   1.029   .     S
H1147  C704    1.086   1_565 S
H1154  N1155   1.031   .     S
O1157  Zn1170  1.951   .     S
O1157  Zn1173  1.939   .     S
O1157  Zn1171  1.951   .     S
O1157  Zn1172  1.927   .     S
O1158  Zn1171  1.920   .     S
O1159  Zn1173  1.929   .     S
O1160  Zn1172  1.931   .     S
O1161  Zn1170  1.923   .     S
O1162  Zn1170  1.930   .     S
O1163  Zn1173  1.926   .     S
O1164  Zn1171  1.937   .     S
O1165  Zn1172  1.946   .     S
O1166  Zn1173  1.943   .     S
O1167  Zn1170  1.934   .     S
O1168  Zn1171  1.930   .     S
O1169  Zn1172  1.932   .     S
C1174  C1184   1.430   .     S
C1174  O1235   1.266   .     A
C1174  O1233   1.273   .     A
C1175  Cl1207  1.768   .     S
C1175  C1176   1.390   .     A
C1175  C1200   1.418   .     A
C1176  H1219   1.082   .     S
C1176  C557    1.399   1_556 S
C1177  O1234   1.281   .     A
C1177  O1236   1.267   .     A
C1177  C1183   1.458   .     S
C1178  C1179   1.424   .     A
C1178  C1180   1.414   .     A
C1179  C1182   1.410   .     A
C1179  C1201   1.424   .     A
C1180  C1181   1.393   .     A
C1180  Cl1204  1.765   .     S
C1181  C1193   1.394   .     A
C1181  H1218   1.084   .     S
C1182  C1193   1.392   .     A
C1182  H1217   1.079   .     S
C1183  C1046   1.353   1_655 S
C1183  Cl1067  1.772   1_655 S
C1185  H1221   1.083   .     S
C1185  C1192   1.402   .     A
C1185  C1194   1.392   .     A
C1186  C1189   1.457   .     S
C1186  C773    1.341   1_565 S
C1186  N810    1.431   1_565 S
C1187  C1188   1.436   .     S
C1188  O1237   1.278   .     A
C1188  O1231   1.276   .     A
C1189  O1238   1.269   .     A
C1189  O1232   1.275   .     A
C1190  O1227   1.278   .     A
C1190  O1229   1.275   .     A
C1190  C1193   1.456   .     S
C1191  O1228   1.284   .     A
C1191  C1192   1.470   .     S
C1191  O1230   1.284   .     A
C1192  C1196   1.411   .     A
C1194  C1199   1.400   .     A
C1194  H1220   1.084   .     S
C1195  H1210   1.111   .     S
C1195  H795    1.111   1_565 S
C1195  H797    1.110   1_565 S
C1195  N810    1.446   1_565 S
C1196  N1225   1.433   .     S
C1196  C1198   1.419   .     A
C1197  N1225   1.448   .     S
C1197  H1215   1.111   .     S
C1197  H1214   1.110   .     S
C1197  H1213   1.111   .     S
C1198  C1200   1.424   .     A
C1198  C1199   1.416   .     A
C1199  C582    1.394   1_556 S
C1200  C580    1.421   1_556 S
C1201  C1202   1.415   .     A
C1202  C1203   1.391   .     A
C1202  H1222   1.078   .     S
C1203  H1208   1.084   .     S
Cl1206 C1046   1.772   1_655 S
H1212  N1225   1.029   .     S
H1216  C773    1.086   1_565 S
H1223  N1224   1.031   .     S
O1226  Zn1239  1.951   .     S
O1226  Zn1242  1.939   .     S
O1226  Zn1240  1.951   .     S
O1226  Zn1241  1.927   .     S
O1227  Zn1240  1.920   .     S
O1228  Zn1242  1.929   .     S
O1229  Zn1241  1.931   .     S
O1230  Zn1239  1.923   .     S
O1231  Zn1239  1.930   .     S
O1232  Zn1242  1.926   .     S
O1233  Zn1240  1.937   .     S
O1234  Zn1241  1.946   .     S
O1235  Zn1242  1.943   .     S
O1236  Zn1239  1.934   .     S
O1237  Zn1240  1.930   .     S
O1238  Zn1241  1.932   .     S
