data_str_m2_o1_o2_pcu_sym.37
_audit_creation_date              2020-01-03
_audit_creation_method            'Materials Studio'
_symmetry_space_group_name_H-M    'P1'
_symmetry_Int_Tables_number       1
_symmetry_cell_setting            triclinic
loop_
_symmetry_equiv_pos_as_xyz
  x,y,z
_cell_length_a                    32.6724
_cell_length_b                    28.8728
_cell_length_c                    30.1192
_cell_angle_alpha                 92.1967
_cell_angle_beta                  92.8337
_cell_angle_gamma                 90.3111
loop_
_atom_site_label
_atom_site_type_symbol
_atom_site_fract_x
_atom_site_fract_y
_atom_site_fract_z
_atom_site_U_iso_or_equiv
_atom_site_adp_type
_atom_site_occupancy
C1     C     0.08734   0.16678   0.24885   0.00000  Uiso   1.00
C2     C     0.31327   0.20070   0.27654   0.00000  Uiso   1.00
C3     C     0.30987   0.13382   0.22440   0.00000  Uiso   1.00
C4     C     0.02260   0.20172   0.27477   0.00000  Uiso   1.00
C5     C     0.20641   0.18394   0.05172   0.00000  Uiso   1.00
C6     C     0.19705   0.13585   0.45235   0.00000  Uiso   1.00
C7     C     0.14819   0.19985   0.45453   0.00000  Uiso   1.00
C8     C     0.13868   0.14699   0.04400   0.00000  Uiso   1.00
C9     C     0.20351   0.18513   0.09813   0.00000  Uiso   1.00
C10    C     0.19501   0.13646   0.40567   0.00000  Uiso   1.00
C11    C     0.14705   0.20001   0.40797   0.00000  Uiso   1.00
C12    C     0.24575   0.16675   0.25107   0.00000  Uiso   1.00
C13    C     0.13720   0.14739   0.09003   0.00000  Uiso   1.00
C14    C     0.16973   0.16523   0.11708   0.00000  Uiso   1.00
C15    C     0.16976   0.16810   0.38360   0.00000  Uiso   1.00
C16    C     0.17324   0.16589   0.02476   0.00000  Uiso   1.00
C17    C     0.17384   0.16815   0.47635   0.00000  Uiso   1.00
C18    C     0.29025   0.16665   0.25142   0.00000  Uiso   1.00
C19    C     0.04243   0.16782   0.24870   0.00000  Uiso   1.00
C20    C     0.10410   0.05085   0.16053   0.00000  Uiso   1.00
C21    C     0.09791   0.04081   0.11042   0.00000  Uiso   1.00
C22    C     0.18828   0.30091   0.35693   0.00000  Uiso   1.00
C23    C     0.16733   0.16606   0.16516   0.00000  Uiso   1.00
C24    C     0.21364   0.28556   0.39734   0.00000  Uiso   1.00
C25    C     0.25806   0.04237   0.30137   0.00000  Uiso   1.00
C26    C     0.28583   0.07440   0.33077   0.00000  Uiso   1.00
C27    C     0.09756   0.26855   0.16801   0.00000  Uiso   1.00
C28    C     0.05308   0.27185   0.15042   0.00000  Uiso   1.00
C29    C     0.27664   0.18596   0.04856   0.00000  Uiso   1.00
C30    C     0.21937   0.06019   0.45796   0.00000  Uiso   1.00
C31    C     0.08581   0.23540   0.46449   0.00000  Uiso   1.00
C32    C     0.11212   0.08783   0.49821   0.00000  Uiso   1.00
C33    C     0.03726   0.14404   0.15056   0.00000  Uiso   1.00
C34    C     0.16735   0.16731   0.33503   0.00000  Uiso   1.00
C35    C     0.28446   0.21326   0.34317   0.00000  Uiso   1.00
C36    C     0.27249   0.11393   0.15980   0.00000  Uiso   1.00
C37    C     0.05821   0.22992   0.33694   0.00000  Uiso   1.00
C38    C     0.14553   0.02281   0.21726   0.00000  Uiso   1.00
C39    C     0.18907   0.31010   0.28194   0.00000  Uiso   1.00
C40    C     0.19102   0.02648   0.28014   0.00000  Uiso   1.00
C41    C     0.14074   0.30720   0.22134   0.00000  Uiso   1.00
C42    C     0.01882   0.13633   0.22115   0.00000  Uiso   1.00
Cu43   Cu    0.16667   0.21355   0.25000   0.00000  Uiso   1.00
Cu44   Cu    0.16667   0.11978   0.25000   0.00000  Uiso   1.00
H45    H     0.22713   0.20206   0.11942   0.00000  Uiso   1.00
H46    H     0.15746   0.28456   0.35625   0.00000  Uiso   1.00
H47    H     0.18394   0.00551   0.36189   0.00000  Uiso   1.00
H48    H     0.24370   0.30384   0.39949   0.00000  Uiso   1.00
H49    H     0.19726   0.29395   0.42804   0.00000  Uiso   1.00
H50    H     0.21875   0.24773   0.39517   0.00000  Uiso   1.00
H51    H     0.26441   0.04785   0.26600   0.00000  Uiso   1.00
H52    H     0.26622   0.00624   0.30932   0.00000  Uiso   1.00
H53    H     0.31814   0.07015   0.32161   0.00000  Uiso   1.00
H54    H     0.27672   0.11091   0.32656   0.00000  Uiso   1.00
H55    H     0.28341   0.06601   0.36620   0.00000  Uiso   1.00
H56    H     0.21357   0.11301   0.38645   0.00000  Uiso   1.00
H57    H     0.10270   0.23117   0.16939   0.00000  Uiso   1.00
H58    H     0.11906   0.28288   0.14451   0.00000  Uiso   1.00
H59    H     0.04966   0.25506   0.11663   0.00000  Uiso   1.00
H60    H     0.03275   0.25363   0.17270   0.00000  Uiso   1.00
H61    H     0.04282   0.30818   0.14855   0.00000  Uiso   1.00
H62    H     0.27534   0.14760   0.05144   0.00000  Uiso   1.00
H63    H     0.28624   0.20313   0.08106   0.00000  Uiso   1.00
H64    H     0.30066   0.19346   0.02502   0.00000  Uiso   1.00
H65    H     0.23016   0.03631   0.48398   0.00000  Uiso   1.00
H66    H     0.23955   0.05529   0.42962   0.00000  Uiso   1.00
H67    H     0.12880   0.22513   0.39087   0.00000  Uiso   1.00
H68    H     0.18721   0.05008   0.44781   0.00000  Uiso   1.00
H69    H     0.07207   0.20098   0.45421   0.00000  Uiso   1.00
H70    H     0.08279   0.25973   0.43688   0.00000  Uiso   1.00
H71    H     0.06788   0.24987   0.49204   0.00000  Uiso   1.00
H72    H     0.11947   0.09211   0.46303   0.00000  Uiso   1.00
H73    H     0.08369   0.06664   0.49811   0.00000  Uiso   1.00
H74    H     0.13694   0.06781   0.01538   0.00000  Uiso   1.00
H75    H     0.01041   0.16758   0.14747   0.00000  Uiso   1.00
H76    H     0.03787   0.12389   0.11863   0.00000  Uiso   1.00
H77    H     0.06559   0.16520   0.15482   0.00000  Uiso   1.00
H78    H     0.11009   0.13477   0.10453   0.00000  Uiso   1.00
H79    H     0.25268   0.19947   0.34007   0.00000  Uiso   1.00
H80    H     0.28639   0.24048   0.37011   0.00000  Uiso   1.00
H81    H     0.30559   0.18514   0.35392   0.00000  Uiso   1.00
H82    H     0.26782   0.15205   0.15918   0.00000  Uiso   1.00
H83    H     0.24235   0.09696   0.15181   0.00000  Uiso   1.00
H84    H     0.29316   0.10293   0.13330   0.00000  Uiso   1.00
H85    H     0.07887   0.25870   0.34912   0.00000  Uiso   1.00
H86    H     0.07574   0.19700   0.33802   0.00000  Uiso   1.00
H87    H     0.03277   0.22904   0.35987   0.00000  Uiso   1.00
H88    H     0.10164   0.08847   0.16655   0.00000  Uiso   1.00
H89    H     0.07950   0.03400   0.17850   0.00000  Uiso   1.00
H90    H     0.09535   0.00339   0.10196   0.00000  Uiso   1.00
H91    H     0.06946   0.05721   0.09735   0.00000  Uiso   1.00
H92    H     0.12440   0.05418   0.09308   0.00000  Uiso   1.00
N93    N     0.16667   0.28402   0.25000   0.00000  Uiso   1.00
N94    N     0.16667   0.04931   0.25000   0.00000  Uiso   1.00
O95    O     0.10655   0.20625   0.24999   0.00000  Uiso   1.00
O96    O     0.20818   0.28827   0.31740   0.00000  Uiso   1.00
O97    O     0.21670   0.05224   0.30968   0.00000  Uiso   1.00
O98    O     0.10183   0.28876   0.21141   0.00000  Uiso   1.00
O99    O     0.23917   0.20414   0.03181   0.00000  Uiso   1.00
O100   O     0.22266   0.10605   0.47582   0.00000  Uiso   1.00
O101   O     0.12718   0.23224   0.47994   0.00000  Uiso   1.00
O102   O     0.10447   0.13164   0.01855   0.00000  Uiso   1.00
O103   O     0.03544   0.11303   0.18577   0.00000  Uiso   1.00
O104   O     0.29459   0.23357   0.30314   0.00000  Uiso   1.00
O105   O     0.28803   0.09852   0.20121   0.00000  Uiso   1.00
O106   O     0.22679   0.12709   0.25000   0.00000  Uiso   1.00
O107   O     0.04396   0.23968   0.29351   0.00000  Uiso   1.00
O108   O     0.22679   0.20625   0.25000   0.00000  Uiso   1.00
O109   O     0.10655   0.12709   0.24999   0.00000  Uiso   1.00
O110   O     0.16666   0.20626   0.18573   0.00000  Uiso   1.00
O111   O     0.16667   0.12707   0.31427   0.00000  Uiso   1.00
O112   O     0.16667   0.20626   0.31427   0.00000  Uiso   1.00
O113   O     0.16666   0.12707   0.18573   0.00000  Uiso   1.00
O114   O     0.14404   0.03837   0.17447   0.00000  Uiso   1.00
C115   C     0.42068   0.16678   0.24885   0.00000  Uiso   1.00
C116   C     0.64661   0.20070   0.27654   0.00000  Uiso   1.00
C117   C     0.64321   0.13382   0.22440   0.00000  Uiso   1.00
C118   C     0.35594   0.20172   0.27477   0.00000  Uiso   1.00
C119   C     0.53974   0.18394   0.05172   0.00000  Uiso   1.00
C120   C     0.53038   0.13585   0.45235   0.00000  Uiso   1.00
C121   C     0.48152   0.19985   0.45453   0.00000  Uiso   1.00
C122   C     0.47201   0.14699   0.04400   0.00000  Uiso   1.00
C123   C     0.53684   0.18513   0.09813   0.00000  Uiso   1.00
C124   C     0.52835   0.13646   0.40567   0.00000  Uiso   1.00
C125   C     0.48039   0.20001   0.40797   0.00000  Uiso   1.00
C126   C     0.57908   0.16675   0.25107   0.00000  Uiso   1.00
C127   C     0.47054   0.14739   0.09003   0.00000  Uiso   1.00
C128   C     0.50306   0.16523   0.11708   0.00000  Uiso   1.00
C129   C     0.50309   0.16810   0.38360   0.00000  Uiso   1.00
C130   C     0.50657   0.16589   0.02476   0.00000  Uiso   1.00
C131   C     0.50717   0.16815   0.47635   0.00000  Uiso   1.00
C132   C     0.62359   0.16665   0.25142   0.00000  Uiso   1.00
C133   C     0.37576   0.16782   0.24870   0.00000  Uiso   1.00
C134   C     0.43744   0.05085   0.16053   0.00000  Uiso   1.00
C135   C     0.43125   0.04081   0.11042   0.00000  Uiso   1.00
C136   C     0.52161   0.30091   0.35693   0.00000  Uiso   1.00
C137   C     0.50067   0.16606   0.16516   0.00000  Uiso   1.00
C138   C     0.54697   0.28556   0.39734   0.00000  Uiso   1.00
C139   C     0.59139   0.04237   0.30137   0.00000  Uiso   1.00
C140   C     0.61916   0.07440   0.33077   0.00000  Uiso   1.00
C141   C     0.43090   0.26855   0.16801   0.00000  Uiso   1.00
C142   C     0.38641   0.27185   0.15042   0.00000  Uiso   1.00
C143   C     0.60997   0.18596   0.04856   0.00000  Uiso   1.00
C144   C     0.55271   0.06019   0.45796   0.00000  Uiso   1.00
C145   C     0.41915   0.23540   0.46449   0.00000  Uiso   1.00
C146   C     0.44546   0.08783   0.49821   0.00000  Uiso   1.00
C147   C     0.37060   0.14404   0.15056   0.00000  Uiso   1.00
C148   C     0.50069   0.16731   0.33503   0.00000  Uiso   1.00
C149   C     0.61779   0.21326   0.34317   0.00000  Uiso   1.00
C150   C     0.60582   0.11393   0.15980   0.00000  Uiso   1.00
C151   C     0.39155   0.22992   0.33694   0.00000  Uiso   1.00
C152   C     0.47886   0.02281   0.21726   0.00000  Uiso   1.00
C153   C     0.52240   0.31010   0.28194   0.00000  Uiso   1.00
C154   C     0.52435   0.02648   0.28014   0.00000  Uiso   1.00
C155   C     0.47407   0.30720   0.22134   0.00000  Uiso   1.00
C156   C     0.35215   0.13633   0.22115   0.00000  Uiso   1.00
Cu157  Cu    0.50000   0.21355   0.25000   0.00000  Uiso   1.00
Cu158  Cu    0.50000   0.11978   0.25000   0.00000  Uiso   1.00
H159   H     0.56047   0.20206   0.11942   0.00000  Uiso   1.00
H160   H     0.49080   0.28456   0.35625   0.00000  Uiso   1.00
H161   H     0.51727   0.00551   0.36189   0.00000  Uiso   1.00
H162   H     0.57703   0.30384   0.39949   0.00000  Uiso   1.00
H163   H     0.53059   0.29395   0.42804   0.00000  Uiso   1.00
H164   H     0.55208   0.24773   0.39517   0.00000  Uiso   1.00
H165   H     0.59774   0.04785   0.26600   0.00000  Uiso   1.00
H166   H     0.59955   0.00624   0.30932   0.00000  Uiso   1.00
H167   H     0.65147   0.07015   0.32161   0.00000  Uiso   1.00
H168   H     0.61005   0.11091   0.32656   0.00000  Uiso   1.00
H169   H     0.61675   0.06601   0.36620   0.00000  Uiso   1.00
H170   H     0.54690   0.11301   0.38645   0.00000  Uiso   1.00
H171   H     0.43603   0.23117   0.16939   0.00000  Uiso   1.00
H172   H     0.45239   0.28288   0.14451   0.00000  Uiso   1.00
H173   H     0.38299   0.25506   0.11663   0.00000  Uiso   1.00
H174   H     0.36609   0.25363   0.17270   0.00000  Uiso   1.00
H175   H     0.37616   0.30818   0.14855   0.00000  Uiso   1.00
H176   H     0.60867   0.14760   0.05144   0.00000  Uiso   1.00
H177   H     0.61957   0.20313   0.08106   0.00000  Uiso   1.00
H178   H     0.63400   0.19346   0.02502   0.00000  Uiso   1.00
H179   H     0.56349   0.03631   0.48398   0.00000  Uiso   1.00
H180   H     0.57288   0.05529   0.42962   0.00000  Uiso   1.00
H181   H     0.46213   0.22513   0.39087   0.00000  Uiso   1.00
H182   H     0.52054   0.05008   0.44781   0.00000  Uiso   1.00
H183   H     0.40540   0.20098   0.45421   0.00000  Uiso   1.00
H184   H     0.41612   0.25973   0.43688   0.00000  Uiso   1.00
H185   H     0.40121   0.24987   0.49204   0.00000  Uiso   1.00
H186   H     0.45280   0.09211   0.46303   0.00000  Uiso   1.00
H187   H     0.41702   0.06664   0.49811   0.00000  Uiso   1.00
H188   H     0.47028   0.06781   0.01538   0.00000  Uiso   1.00
H189   H     0.34374   0.16758   0.14747   0.00000  Uiso   1.00
H190   H     0.37120   0.12389   0.11863   0.00000  Uiso   1.00
H191   H     0.39892   0.16520   0.15482   0.00000  Uiso   1.00
H192   H     0.44342   0.13477   0.10453   0.00000  Uiso   1.00
H193   H     0.58601   0.19947   0.34007   0.00000  Uiso   1.00
H194   H     0.61972   0.24048   0.37011   0.00000  Uiso   1.00
H195   H     0.63892   0.18514   0.35392   0.00000  Uiso   1.00
H196   H     0.60115   0.15205   0.15918   0.00000  Uiso   1.00
H197   H     0.57568   0.09696   0.15181   0.00000  Uiso   1.00
H198   H     0.62649   0.10293   0.13330   0.00000  Uiso   1.00
H199   H     0.41220   0.25870   0.34912   0.00000  Uiso   1.00
H200   H     0.40908   0.19700   0.33802   0.00000  Uiso   1.00
H201   H     0.36610   0.22904   0.35987   0.00000  Uiso   1.00
H202   H     0.43497   0.08847   0.16655   0.00000  Uiso   1.00
H203   H     0.41283   0.03400   0.17850   0.00000  Uiso   1.00
H204   H     0.42869   0.00339   0.10196   0.00000  Uiso   1.00
H205   H     0.40279   0.05721   0.09735   0.00000  Uiso   1.00
H206   H     0.45773   0.05418   0.09308   0.00000  Uiso   1.00
N207   N     0.50000   0.28402   0.25000   0.00000  Uiso   1.00
N208   N     0.50000   0.04931   0.25000   0.00000  Uiso   1.00
O209   O     0.43988   0.20625   0.24999   0.00000  Uiso   1.00
O210   O     0.54151   0.28827   0.31740   0.00000  Uiso   1.00
O211   O     0.55004   0.05224   0.30968   0.00000  Uiso   1.00
O212   O     0.43516   0.28876   0.21141   0.00000  Uiso   1.00
O213   O     0.57250   0.20414   0.03181   0.00000  Uiso   1.00
O214   O     0.55599   0.10605   0.47582   0.00000  Uiso   1.00
O215   O     0.46051   0.23224   0.47994   0.00000  Uiso   1.00
O216   O     0.43781   0.13164   0.01855   0.00000  Uiso   1.00
O217   O     0.36878   0.11303   0.18577   0.00000  Uiso   1.00
O218   O     0.62792   0.23357   0.30314   0.00000  Uiso   1.00
O219   O     0.62137   0.09852   0.20121   0.00000  Uiso   1.00
O220   O     0.56012   0.12709   0.25000   0.00000  Uiso   1.00
O221   O     0.37729   0.23968   0.29351   0.00000  Uiso   1.00
O222   O     0.56012   0.20625   0.25000   0.00000  Uiso   1.00
O223   O     0.43988   0.12709   0.24999   0.00000  Uiso   1.00
O224   O     0.50000   0.20626   0.18573   0.00000  Uiso   1.00
O225   O     0.50000   0.12707   0.31427   0.00000  Uiso   1.00
O226   O     0.50000   0.20626   0.31427   0.00000  Uiso   1.00
O227   O     0.50000   0.12707   0.18573   0.00000  Uiso   1.00
O228   O     0.47737   0.03837   0.17447   0.00000  Uiso   1.00
C229   C     0.75401   0.16678   0.24885   0.00000  Uiso   1.00
C230   C     0.97994   0.20070   0.27654   0.00000  Uiso   1.00
C231   C     0.97654   0.13382   0.22440   0.00000  Uiso   1.00
C232   C     0.68927   0.20172   0.27477   0.00000  Uiso   1.00
C233   C     0.87308   0.18394   0.05172   0.00000  Uiso   1.00
C234   C     0.86371   0.13585   0.45235   0.00000  Uiso   1.00
C235   C     0.81486   0.19985   0.45453   0.00000  Uiso   1.00
C236   C     0.80535   0.14699   0.04400   0.00000  Uiso   1.00
C237   C     0.87017   0.18513   0.09813   0.00000  Uiso   1.00
C238   C     0.86168   0.13646   0.40567   0.00000  Uiso   1.00
C239   C     0.81372   0.20001   0.40797   0.00000  Uiso   1.00
C240   C     0.91242   0.16675   0.25107   0.00000  Uiso   1.00
C241   C     0.80387   0.14739   0.09003   0.00000  Uiso   1.00
C242   C     0.83639   0.16523   0.11708   0.00000  Uiso   1.00
C243   C     0.83643   0.16810   0.38360   0.00000  Uiso   1.00
C244   C     0.83990   0.16589   0.02476   0.00000  Uiso   1.00
C245   C     0.84051   0.16815   0.47635   0.00000  Uiso   1.00
C246   C     0.95692   0.16665   0.25142   0.00000  Uiso   1.00
C247   C     0.70909   0.16782   0.24870   0.00000  Uiso   1.00
C248   C     0.77077   0.05085   0.16053   0.00000  Uiso   1.00
C249   C     0.76458   0.04081   0.11042   0.00000  Uiso   1.00
C250   C     0.85494   0.30091   0.35693   0.00000  Uiso   1.00
C251   C     0.83400   0.16606   0.16516   0.00000  Uiso   1.00
C252   C     0.88030   0.28556   0.39734   0.00000  Uiso   1.00
C253   C     0.92473   0.04237   0.30137   0.00000  Uiso   1.00
C254   C     0.95250   0.07440   0.33077   0.00000  Uiso   1.00
C255   C     0.76423   0.26855   0.16801   0.00000  Uiso   1.00
C256   C     0.71974   0.27185   0.15042   0.00000  Uiso   1.00
C257   C     0.94331   0.18596   0.04856   0.00000  Uiso   1.00
C258   C     0.88604   0.06019   0.45796   0.00000  Uiso   1.00
C259   C     0.75248   0.23540   0.46449   0.00000  Uiso   1.00
C260   C     0.77879   0.08783   0.49821   0.00000  Uiso   1.00
C261   C     0.70393   0.14404   0.15056   0.00000  Uiso   1.00
C262   C     0.83402   0.16731   0.33503   0.00000  Uiso   1.00
C263   C     0.95112   0.21326   0.34317   0.00000  Uiso   1.00
C264   C     0.93916   0.11393   0.15980   0.00000  Uiso   1.00
C265   C     0.72488   0.22992   0.33694   0.00000  Uiso   1.00
C266   C     0.81220   0.02281   0.21726   0.00000  Uiso   1.00
C267   C     0.85574   0.31010   0.28194   0.00000  Uiso   1.00
C268   C     0.85768   0.02648   0.28014   0.00000  Uiso   1.00
C269   C     0.80740   0.30720   0.22134   0.00000  Uiso   1.00
C270   C     0.68549   0.13633   0.22115   0.00000  Uiso   1.00
Cu271  Cu    0.83333   0.21355   0.25000   0.00000  Uiso   1.00
Cu272  Cu    0.83333   0.11978   0.25000   0.00000  Uiso   1.00
H273   H     0.89380   0.20206   0.11942   0.00000  Uiso   1.00
H274   H     0.82413   0.28456   0.35625   0.00000  Uiso   1.00
H275   H     0.85060   0.00551   0.36189   0.00000  Uiso   1.00
H276   H     0.91036   0.30384   0.39949   0.00000  Uiso   1.00
H277   H     0.86393   0.29395   0.42804   0.00000  Uiso   1.00
H278   H     0.88542   0.24773   0.39517   0.00000  Uiso   1.00
H279   H     0.93107   0.04785   0.26600   0.00000  Uiso   1.00
H280   H     0.93289   0.00624   0.30932   0.00000  Uiso   1.00
H281   H     0.98481   0.07015   0.32161   0.00000  Uiso   1.00
H282   H     0.94338   0.11091   0.32656   0.00000  Uiso   1.00
H283   H     0.95008   0.06601   0.36620   0.00000  Uiso   1.00
H284   H     0.88023   0.11301   0.38645   0.00000  Uiso   1.00
H285   H     0.76937   0.23117   0.16939   0.00000  Uiso   1.00
H286   H     0.78573   0.28288   0.14451   0.00000  Uiso   1.00
H287   H     0.71632   0.25506   0.11663   0.00000  Uiso   1.00
H288   H     0.69942   0.25363   0.17270   0.00000  Uiso   1.00
H289   H     0.70949   0.30818   0.14855   0.00000  Uiso   1.00
H290   H     0.94200   0.14760   0.05144   0.00000  Uiso   1.00
H291   H     0.95290   0.20313   0.08106   0.00000  Uiso   1.00
H292   H     0.96733   0.19346   0.02502   0.00000  Uiso   1.00
H293   H     0.89682   0.03631   0.48398   0.00000  Uiso   1.00
H294   H     0.90621   0.05529   0.42962   0.00000  Uiso   1.00
H295   H     0.79547   0.22513   0.39087   0.00000  Uiso   1.00
H296   H     0.85387   0.05008   0.44781   0.00000  Uiso   1.00
H297   H     0.73874   0.20098   0.45421   0.00000  Uiso   1.00
H298   H     0.74946   0.25973   0.43688   0.00000  Uiso   1.00
H299   H     0.73455   0.24987   0.49204   0.00000  Uiso   1.00
H300   H     0.78613   0.09211   0.46303   0.00000  Uiso   1.00
H301   H     0.75036   0.06664   0.49811   0.00000  Uiso   1.00
H302   H     0.80361   0.06781   0.01538   0.00000  Uiso   1.00
H303   H     0.67707   0.16758   0.14747   0.00000  Uiso   1.00
H304   H     0.70454   0.12389   0.11863   0.00000  Uiso   1.00
H305   H     0.73226   0.16520   0.15482   0.00000  Uiso   1.00
H306   H     0.77676   0.13477   0.10453   0.00000  Uiso   1.00
H307   H     0.91934   0.19947   0.34007   0.00000  Uiso   1.00
H308   H     0.95306   0.24048   0.37011   0.00000  Uiso   1.00
H309   H     0.97225   0.18514   0.35392   0.00000  Uiso   1.00
H310   H     0.93449   0.15205   0.15918   0.00000  Uiso   1.00
H311   H     0.90901   0.09696   0.15181   0.00000  Uiso   1.00
H312   H     0.95982   0.10293   0.13330   0.00000  Uiso   1.00
H313   H     0.74554   0.25870   0.34912   0.00000  Uiso   1.00
H314   H     0.74241   0.19700   0.33802   0.00000  Uiso   1.00
H315   H     0.69944   0.22904   0.35987   0.00000  Uiso   1.00
H316   H     0.76831   0.08847   0.16655   0.00000  Uiso   1.00
H317   H     0.74617   0.03400   0.17850   0.00000  Uiso   1.00
H318   H     0.76202   0.00339   0.10196   0.00000  Uiso   1.00
H319   H     0.73612   0.05721   0.09735   0.00000  Uiso   1.00
H320   H     0.79107   0.05418   0.09308   0.00000  Uiso   1.00
N321   N     0.83333   0.28402   0.25000   0.00000  Uiso   1.00
N322   N     0.83333   0.04931   0.25000   0.00000  Uiso   1.00
O323   O     0.77321   0.20625   0.24999   0.00000  Uiso   1.00
O324   O     0.87484   0.28827   0.31740   0.00000  Uiso   1.00
O325   O     0.88337   0.05224   0.30968   0.00000  Uiso   1.00
O326   O     0.76849   0.28876   0.21141   0.00000  Uiso   1.00
O327   O     0.90583   0.20414   0.03181   0.00000  Uiso   1.00
O328   O     0.88932   0.10605   0.47582   0.00000  Uiso   1.00
O329   O     0.79385   0.23224   0.47994   0.00000  Uiso   1.00
O330   O     0.77114   0.13164   0.01855   0.00000  Uiso   1.00
O331   O     0.70211   0.11303   0.18577   0.00000  Uiso   1.00
O332   O     0.96126   0.23357   0.30314   0.00000  Uiso   1.00
O333   O     0.95470   0.09852   0.20121   0.00000  Uiso   1.00
O334   O     0.89345   0.12709   0.25000   0.00000  Uiso   1.00
O335   O     0.71063   0.23968   0.29351   0.00000  Uiso   1.00
O336   O     0.89345   0.20625   0.25000   0.00000  Uiso   1.00
O337   O     0.77321   0.12709   0.24999   0.00000  Uiso   1.00
O338   O     0.83333   0.20626   0.18573   0.00000  Uiso   1.00
O339   O     0.83334   0.12707   0.31427   0.00000  Uiso   1.00
O340   O     0.83334   0.20626   0.31427   0.00000  Uiso   1.00
O341   O     0.83333   0.12707   0.18573   0.00000  Uiso   1.00
O342   O     0.81070   0.03837   0.17447   0.00000  Uiso   1.00
C343   C     0.08734   0.50011   0.24885   0.00000  Uiso   1.00
C344   C     0.31327   0.53404   0.27654   0.00000  Uiso   1.00
C345   C     0.30987   0.46716   0.22440   0.00000  Uiso   1.00
C346   C     0.02260   0.53506   0.27477   0.00000  Uiso   1.00
C347   C     0.20641   0.51727   0.05172   0.00000  Uiso   1.00
C348   C     0.19705   0.46918   0.45235   0.00000  Uiso   1.00
C349   C     0.14819   0.53319   0.45453   0.00000  Uiso   1.00
C350   C     0.13868   0.48032   0.04400   0.00000  Uiso   1.00
C351   C     0.20351   0.51846   0.09813   0.00000  Uiso   1.00
C352   C     0.19501   0.46979   0.40567   0.00000  Uiso   1.00
C353   C     0.14705   0.53334   0.40797   0.00000  Uiso   1.00
C354   C     0.24575   0.50009   0.25107   0.00000  Uiso   1.00
C355   C     0.13720   0.48072   0.09003   0.00000  Uiso   1.00
C356   C     0.16973   0.49857   0.11708   0.00000  Uiso   1.00
C357   C     0.16976   0.50144   0.38360   0.00000  Uiso   1.00
C358   C     0.17324   0.49923   0.02476   0.00000  Uiso   1.00
C359   C     0.17384   0.50149   0.47635   0.00000  Uiso   1.00
C360   C     0.29025   0.49998   0.25142   0.00000  Uiso   1.00
C361   C     0.04243   0.50116   0.24870   0.00000  Uiso   1.00
C362   C     0.10410   0.38418   0.16053   0.00000  Uiso   1.00
C363   C     0.09791   0.37415   0.11042   0.00000  Uiso   1.00
C364   C     0.18828   0.63424   0.35693   0.00000  Uiso   1.00
C365   C     0.16733   0.49940   0.16516   0.00000  Uiso   1.00
C366   C     0.21364   0.61889   0.39734   0.00000  Uiso   1.00
C367   C     0.25806   0.37571   0.30137   0.00000  Uiso   1.00
C368   C     0.28583   0.40773   0.33077   0.00000  Uiso   1.00
C369   C     0.09756   0.60188   0.16801   0.00000  Uiso   1.00
C370   C     0.05308   0.60518   0.15042   0.00000  Uiso   1.00
C371   C     0.27664   0.51929   0.04856   0.00000  Uiso   1.00
C372   C     0.21937   0.39352   0.45796   0.00000  Uiso   1.00
C373   C     0.08581   0.56873   0.46449   0.00000  Uiso   1.00
C374   C     0.11212   0.42116   0.49821   0.00000  Uiso   1.00
C375   C     0.03726   0.47737   0.15056   0.00000  Uiso   1.00
C376   C     0.16735   0.50064   0.33503   0.00000  Uiso   1.00
C377   C     0.28446   0.54659   0.34317   0.00000  Uiso   1.00
C378   C     0.27249   0.44726   0.15980   0.00000  Uiso   1.00
C379   C     0.05821   0.56325   0.33694   0.00000  Uiso   1.00
C380   C     0.14553   0.35615   0.21726   0.00000  Uiso   1.00
C381   C     0.18907   0.64343   0.28194   0.00000  Uiso   1.00
C382   C     0.19102   0.35981   0.28014   0.00000  Uiso   1.00
C383   C     0.14074   0.64053   0.22134   0.00000  Uiso   1.00
C384   C     0.01882   0.46966   0.22115   0.00000  Uiso   1.00
Cu385  Cu    0.16667   0.54689   0.25000   0.00000  Uiso   1.00
Cu386  Cu    0.16667   0.45311   0.25000   0.00000  Uiso   1.00
H387   H     0.22713   0.53540   0.11942   0.00000  Uiso   1.00
H388   H     0.15746   0.61790   0.35625   0.00000  Uiso   1.00
H389   H     0.18394   0.33884   0.36189   0.00000  Uiso   1.00
H390   H     0.24370   0.63717   0.39949   0.00000  Uiso   1.00
H391   H     0.19726   0.62728   0.42804   0.00000  Uiso   1.00
H392   H     0.21875   0.58107   0.39517   0.00000  Uiso   1.00
H393   H     0.26441   0.38118   0.26600   0.00000  Uiso   1.00
H394   H     0.26622   0.33957   0.30932   0.00000  Uiso   1.00
H395   H     0.31814   0.40348   0.32161   0.00000  Uiso   1.00
H396   H     0.27672   0.44425   0.32656   0.00000  Uiso   1.00
H397   H     0.28341   0.39934   0.36620   0.00000  Uiso   1.00
H398   H     0.21357   0.44634   0.38645   0.00000  Uiso   1.00
H399   H     0.10270   0.56451   0.16939   0.00000  Uiso   1.00
H400   H     0.11906   0.61621   0.14451   0.00000  Uiso   1.00
H401   H     0.04966   0.58839   0.11663   0.00000  Uiso   1.00
H402   H     0.03275   0.58696   0.17270   0.00000  Uiso   1.00
H403   H     0.04282   0.64151   0.14855   0.00000  Uiso   1.00
H404   H     0.27534   0.48093   0.05144   0.00000  Uiso   1.00
H405   H     0.28624   0.53646   0.08106   0.00000  Uiso   1.00
H406   H     0.30066   0.52679   0.02502   0.00000  Uiso   1.00
H407   H     0.23016   0.36964   0.48398   0.00000  Uiso   1.00
H408   H     0.23955   0.38863   0.42962   0.00000  Uiso   1.00
H409   H     0.12880   0.55846   0.39087   0.00000  Uiso   1.00
H410   H     0.18721   0.38342   0.44781   0.00000  Uiso   1.00
H411   H     0.07207   0.53431   0.45421   0.00000  Uiso   1.00
H412   H     0.08279   0.59307   0.43688   0.00000  Uiso   1.00
H413   H     0.06788   0.58320   0.49204   0.00000  Uiso   1.00
H414   H     0.11947   0.42544   0.46303   0.00000  Uiso   1.00
H415   H     0.08369   0.39998   0.49811   0.00000  Uiso   1.00
H416   H     0.13694   0.40115   0.01538   0.00000  Uiso   1.00
H417   H     0.01041   0.50092   0.14747   0.00000  Uiso   1.00
H418   H     0.03787   0.45722   0.11863   0.00000  Uiso   1.00
H419   H     0.06559   0.49853   0.15482   0.00000  Uiso   1.00
H420   H     0.11009   0.46810   0.10453   0.00000  Uiso   1.00
H421   H     0.25268   0.53281   0.34007   0.00000  Uiso   1.00
H422   H     0.28639   0.57381   0.37011   0.00000  Uiso   1.00
H423   H     0.30559   0.51847   0.35392   0.00000  Uiso   1.00
H424   H     0.26782   0.48538   0.15918   0.00000  Uiso   1.00
H425   H     0.24235   0.43030   0.15181   0.00000  Uiso   1.00
H426   H     0.29316   0.43626   0.13330   0.00000  Uiso   1.00
H427   H     0.07887   0.59204   0.34912   0.00000  Uiso   1.00
H428   H     0.07574   0.53033   0.33802   0.00000  Uiso   1.00
H429   H     0.03277   0.56238   0.35987   0.00000  Uiso   1.00
H430   H     0.10164   0.42181   0.16655   0.00000  Uiso   1.00
H431   H     0.07950   0.36734   0.17850   0.00000  Uiso   1.00
H432   H     0.09535   0.33672   0.10196   0.00000  Uiso   1.00
H433   H     0.06946   0.39054   0.09735   0.00000  Uiso   1.00
H434   H     0.12440   0.38751   0.09308   0.00000  Uiso   1.00
N435   N     0.16667   0.61736   0.25000   0.00000  Uiso   1.00
N436   N     0.16667   0.38264   0.25000   0.00000  Uiso   1.00
O437   O     0.10655   0.53958   0.24999   0.00000  Uiso   1.00
O438   O     0.20818   0.62160   0.31740   0.00000  Uiso   1.00
O439   O     0.21670   0.38558   0.30968   0.00000  Uiso   1.00
O440   O     0.10183   0.62209   0.21141   0.00000  Uiso   1.00
O441   O     0.23917   0.53747   0.03181   0.00000  Uiso   1.00
O442   O     0.22266   0.43939   0.47582   0.00000  Uiso   1.00
O443   O     0.12718   0.56557   0.47994   0.00000  Uiso   1.00
O444   O     0.10447   0.46497   0.01855   0.00000  Uiso   1.00
O445   O     0.03544   0.44636   0.18577   0.00000  Uiso   1.00
O446   O     0.29459   0.56690   0.30314   0.00000  Uiso   1.00
O447   O     0.28803   0.43186   0.20121   0.00000  Uiso   1.00
O448   O     0.22679   0.46042   0.25000   0.00000  Uiso   1.00
O449   O     0.04396   0.57301   0.29351   0.00000  Uiso   1.00
O450   O     0.22679   0.53958   0.25000   0.00000  Uiso   1.00
O451   O     0.10655   0.46042   0.24999   0.00000  Uiso   1.00
O452   O     0.16666   0.53959   0.18573   0.00000  Uiso   1.00
O453   O     0.16667   0.46041   0.31427   0.00000  Uiso   1.00
O454   O     0.16667   0.53959   0.31427   0.00000  Uiso   1.00
O455   O     0.16666   0.46041   0.18573   0.00000  Uiso   1.00
O456   O     0.14404   0.37170   0.17447   0.00000  Uiso   1.00
C457   C     0.42068   0.50011   0.24885   0.00000  Uiso   1.00
C458   C     0.64661   0.53404   0.27654   0.00000  Uiso   1.00
C459   C     0.64321   0.46716   0.22440   0.00000  Uiso   1.00
C460   C     0.35594   0.53506   0.27477   0.00000  Uiso   1.00
C461   C     0.53974   0.51727   0.05172   0.00000  Uiso   1.00
C462   C     0.53038   0.46918   0.45235   0.00000  Uiso   1.00
C463   C     0.48152   0.53319   0.45453   0.00000  Uiso   1.00
C464   C     0.47201   0.48032   0.04400   0.00000  Uiso   1.00
C465   C     0.53684   0.51846   0.09813   0.00000  Uiso   1.00
C466   C     0.52835   0.46979   0.40567   0.00000  Uiso   1.00
C467   C     0.48039   0.53334   0.40797   0.00000  Uiso   1.00
C468   C     0.57908   0.50009   0.25107   0.00000  Uiso   1.00
C469   C     0.47054   0.48072   0.09003   0.00000  Uiso   1.00
C470   C     0.50306   0.49857   0.11708   0.00000  Uiso   1.00
C471   C     0.50309   0.50144   0.38360   0.00000  Uiso   1.00
C472   C     0.50657   0.49923   0.02476   0.00000  Uiso   1.00
C473   C     0.50717   0.50149   0.47635   0.00000  Uiso   1.00
C474   C     0.62359   0.49998   0.25142   0.00000  Uiso   1.00
C475   C     0.37576   0.50116   0.24870   0.00000  Uiso   1.00
C476   C     0.43744   0.38418   0.16053   0.00000  Uiso   1.00
C477   C     0.43125   0.37415   0.11042   0.00000  Uiso   1.00
C478   C     0.52161   0.63424   0.35693   0.00000  Uiso   1.00
C479   C     0.50067   0.49940   0.16516   0.00000  Uiso   1.00
C480   C     0.54697   0.61889   0.39734   0.00000  Uiso   1.00
C481   C     0.59139   0.37571   0.30137   0.00000  Uiso   1.00
C482   C     0.61916   0.40773   0.33077   0.00000  Uiso   1.00
C483   C     0.43090   0.60188   0.16801   0.00000  Uiso   1.00
C484   C     0.38641   0.60518   0.15042   0.00000  Uiso   1.00
C485   C     0.60997   0.51929   0.04856   0.00000  Uiso   1.00
C486   C     0.55271   0.39352   0.45796   0.00000  Uiso   1.00
C487   C     0.41915   0.56873   0.46449   0.00000  Uiso   1.00
C488   C     0.44546   0.42116   0.49821   0.00000  Uiso   1.00
C489   C     0.37060   0.47737   0.15056   0.00000  Uiso   1.00
C490   C     0.50069   0.50064   0.33503   0.00000  Uiso   1.00
C491   C     0.61779   0.54659   0.34317   0.00000  Uiso   1.00
C492   C     0.60582   0.44726   0.15980   0.00000  Uiso   1.00
C493   C     0.39155   0.56325   0.33694   0.00000  Uiso   1.00
C494   C     0.47886   0.35615   0.21726   0.00000  Uiso   1.00
C495   C     0.52240   0.64343   0.28194   0.00000  Uiso   1.00
C496   C     0.52435   0.35981   0.28014   0.00000  Uiso   1.00
C497   C     0.47407   0.64053   0.22134   0.00000  Uiso   1.00
C498   C     0.35215   0.46966   0.22115   0.00000  Uiso   1.00
Cu499  Cu    0.50000   0.54689   0.25000   0.00000  Uiso   1.00
Cu500  Cu    0.50000   0.45311   0.25000   0.00000  Uiso   1.00
H501   H     0.56047   0.53540   0.11942   0.00000  Uiso   1.00
H502   H     0.49080   0.61790   0.35625   0.00000  Uiso   1.00
H503   H     0.51727   0.33884   0.36189   0.00000  Uiso   1.00
H504   H     0.57703   0.63717   0.39949   0.00000  Uiso   1.00
H505   H     0.53059   0.62728   0.42804   0.00000  Uiso   1.00
H506   H     0.55208   0.58107   0.39517   0.00000  Uiso   1.00
H507   H     0.59774   0.38118   0.26600   0.00000  Uiso   1.00
H508   H     0.59955   0.33957   0.30932   0.00000  Uiso   1.00
H509   H     0.65147   0.40348   0.32161   0.00000  Uiso   1.00
H510   H     0.61005   0.44425   0.32656   0.00000  Uiso   1.00
H511   H     0.61675   0.39934   0.36620   0.00000  Uiso   1.00
H512   H     0.54690   0.44634   0.38645   0.00000  Uiso   1.00
H513   H     0.43603   0.56451   0.16939   0.00000  Uiso   1.00
H514   H     0.45239   0.61621   0.14451   0.00000  Uiso   1.00
H515   H     0.38299   0.58839   0.11663   0.00000  Uiso   1.00
H516   H     0.36609   0.58696   0.17270   0.00000  Uiso   1.00
H517   H     0.37616   0.64151   0.14855   0.00000  Uiso   1.00
H518   H     0.60867   0.48093   0.05144   0.00000  Uiso   1.00
H519   H     0.61957   0.53646   0.08106   0.00000  Uiso   1.00
H520   H     0.63400   0.52679   0.02502   0.00000  Uiso   1.00
H521   H     0.56349   0.36964   0.48398   0.00000  Uiso   1.00
H522   H     0.57288   0.38863   0.42962   0.00000  Uiso   1.00
H523   H     0.46213   0.55846   0.39087   0.00000  Uiso   1.00
H524   H     0.52054   0.38342   0.44781   0.00000  Uiso   1.00
H525   H     0.40540   0.53431   0.45421   0.00000  Uiso   1.00
H526   H     0.41612   0.59307   0.43688   0.00000  Uiso   1.00
H527   H     0.40121   0.58320   0.49204   0.00000  Uiso   1.00
H528   H     0.45280   0.42544   0.46303   0.00000  Uiso   1.00
H529   H     0.41702   0.39998   0.49811   0.00000  Uiso   1.00
H530   H     0.47028   0.40115   0.01538   0.00000  Uiso   1.00
H531   H     0.34374   0.50092   0.14747   0.00000  Uiso   1.00
H532   H     0.37120   0.45722   0.11863   0.00000  Uiso   1.00
H533   H     0.39892   0.49853   0.15482   0.00000  Uiso   1.00
H534   H     0.44342   0.46810   0.10453   0.00000  Uiso   1.00
H535   H     0.58601   0.53281   0.34007   0.00000  Uiso   1.00
H536   H     0.61972   0.57381   0.37011   0.00000  Uiso   1.00
H537   H     0.63892   0.51847   0.35392   0.00000  Uiso   1.00
H538   H     0.60115   0.48538   0.15918   0.00000  Uiso   1.00
H539   H     0.57568   0.43030   0.15181   0.00000  Uiso   1.00
H540   H     0.62649   0.43626   0.13330   0.00000  Uiso   1.00
H541   H     0.41220   0.59204   0.34912   0.00000  Uiso   1.00
H542   H     0.40908   0.53033   0.33802   0.00000  Uiso   1.00
H543   H     0.36610   0.56238   0.35987   0.00000  Uiso   1.00
H544   H     0.43497   0.42181   0.16655   0.00000  Uiso   1.00
H545   H     0.41283   0.36734   0.17850   0.00000  Uiso   1.00
H546   H     0.42869   0.33672   0.10196   0.00000  Uiso   1.00
H547   H     0.40279   0.39054   0.09735   0.00000  Uiso   1.00
H548   H     0.45773   0.38751   0.09308   0.00000  Uiso   1.00
N549   N     0.50000   0.61736   0.25000   0.00000  Uiso   1.00
N550   N     0.50000   0.38264   0.25000   0.00000  Uiso   1.00
O551   O     0.43988   0.53958   0.24999   0.00000  Uiso   1.00
O552   O     0.54151   0.62160   0.31740   0.00000  Uiso   1.00
O553   O     0.55004   0.38558   0.30968   0.00000  Uiso   1.00
O554   O     0.43516   0.62209   0.21141   0.00000  Uiso   1.00
O555   O     0.57250   0.53747   0.03181   0.00000  Uiso   1.00
O556   O     0.55599   0.43939   0.47582   0.00000  Uiso   1.00
O557   O     0.46051   0.56557   0.47994   0.00000  Uiso   1.00
O558   O     0.43781   0.46497   0.01855   0.00000  Uiso   1.00
O559   O     0.36878   0.44636   0.18577   0.00000  Uiso   1.00
O560   O     0.62792   0.56690   0.30314   0.00000  Uiso   1.00
O561   O     0.62137   0.43186   0.20121   0.00000  Uiso   1.00
O562   O     0.56012   0.46042   0.25000   0.00000  Uiso   1.00
O563   O     0.37729   0.57301   0.29351   0.00000  Uiso   1.00
O564   O     0.56012   0.53958   0.25000   0.00000  Uiso   1.00
O565   O     0.43988   0.46042   0.24999   0.00000  Uiso   1.00
O566   O     0.50000   0.53959   0.18573   0.00000  Uiso   1.00
O567   O     0.50000   0.46041   0.31427   0.00000  Uiso   1.00
O568   O     0.50000   0.53959   0.31427   0.00000  Uiso   1.00
O569   O     0.50000   0.46041   0.18573   0.00000  Uiso   1.00
O570   O     0.47737   0.37170   0.17447   0.00000  Uiso   1.00
C571   C     0.75401   0.50011   0.24885   0.00000  Uiso   1.00
C572   C     0.97994   0.53404   0.27654   0.00000  Uiso   1.00
C573   C     0.97654   0.46716   0.22440   0.00000  Uiso   1.00
C574   C     0.68927   0.53506   0.27477   0.00000  Uiso   1.00
C575   C     0.87308   0.51727   0.05172   0.00000  Uiso   1.00
C576   C     0.86371   0.46918   0.45235   0.00000  Uiso   1.00
C577   C     0.81486   0.53319   0.45453   0.00000  Uiso   1.00
C578   C     0.80535   0.48032   0.04400   0.00000  Uiso   1.00
C579   C     0.87017   0.51846   0.09813   0.00000  Uiso   1.00
C580   C     0.86168   0.46979   0.40567   0.00000  Uiso   1.00
C581   C     0.81372   0.53334   0.40797   0.00000  Uiso   1.00
C582   C     0.91242   0.50009   0.25107   0.00000  Uiso   1.00
C583   C     0.80387   0.48072   0.09003   0.00000  Uiso   1.00
C584   C     0.83639   0.49857   0.11708   0.00000  Uiso   1.00
C585   C     0.83643   0.50144   0.38360   0.00000  Uiso   1.00
C586   C     0.83990   0.49923   0.02476   0.00000  Uiso   1.00
C587   C     0.84051   0.50149   0.47635   0.00000  Uiso   1.00
C588   C     0.95692   0.49998   0.25142   0.00000  Uiso   1.00
C589   C     0.70909   0.50116   0.24870   0.00000  Uiso   1.00
C590   C     0.77077   0.38418   0.16053   0.00000  Uiso   1.00
C591   C     0.76458   0.37415   0.11042   0.00000  Uiso   1.00
C592   C     0.85494   0.63424   0.35693   0.00000  Uiso   1.00
C593   C     0.83400   0.49940   0.16516   0.00000  Uiso   1.00
C594   C     0.88030   0.61889   0.39734   0.00000  Uiso   1.00
C595   C     0.92473   0.37571   0.30137   0.00000  Uiso   1.00
C596   C     0.95250   0.40773   0.33077   0.00000  Uiso   1.00
C597   C     0.76423   0.60188   0.16801   0.00000  Uiso   1.00
C598   C     0.71974   0.60518   0.15042   0.00000  Uiso   1.00
C599   C     0.94331   0.51929   0.04856   0.00000  Uiso   1.00
C600   C     0.88604   0.39352   0.45796   0.00000  Uiso   1.00
C601   C     0.75248   0.56873   0.46449   0.00000  Uiso   1.00
C602   C     0.77879   0.42116   0.49821   0.00000  Uiso   1.00
C603   C     0.70393   0.47737   0.15056   0.00000  Uiso   1.00
C604   C     0.83402   0.50064   0.33503   0.00000  Uiso   1.00
C605   C     0.95112   0.54659   0.34317   0.00000  Uiso   1.00
C606   C     0.93916   0.44726   0.15980   0.00000  Uiso   1.00
C607   C     0.72488   0.56325   0.33694   0.00000  Uiso   1.00
C608   C     0.81220   0.35615   0.21726   0.00000  Uiso   1.00
C609   C     0.85574   0.64343   0.28194   0.00000  Uiso   1.00
C610   C     0.85768   0.35981   0.28014   0.00000  Uiso   1.00
C611   C     0.80740   0.64053   0.22134   0.00000  Uiso   1.00
C612   C     0.68549   0.46966   0.22115   0.00000  Uiso   1.00
Cu613  Cu    0.83333   0.54689   0.25000   0.00000  Uiso   1.00
Cu614  Cu    0.83333   0.45311   0.25000   0.00000  Uiso   1.00
H615   H     0.89380   0.53540   0.11942   0.00000  Uiso   1.00
H616   H     0.82413   0.61790   0.35625   0.00000  Uiso   1.00
H617   H     0.85060   0.33884   0.36189   0.00000  Uiso   1.00
H618   H     0.91036   0.63717   0.39949   0.00000  Uiso   1.00
H619   H     0.86393   0.62728   0.42804   0.00000  Uiso   1.00
H620   H     0.88542   0.58107   0.39517   0.00000  Uiso   1.00
H621   H     0.93107   0.38118   0.26600   0.00000  Uiso   1.00
H622   H     0.93289   0.33957   0.30932   0.00000  Uiso   1.00
H623   H     0.98481   0.40348   0.32161   0.00000  Uiso   1.00
H624   H     0.94338   0.44425   0.32656   0.00000  Uiso   1.00
H625   H     0.95008   0.39934   0.36620   0.00000  Uiso   1.00
H626   H     0.88023   0.44634   0.38645   0.00000  Uiso   1.00
H627   H     0.76937   0.56451   0.16939   0.00000  Uiso   1.00
H628   H     0.78573   0.61621   0.14451   0.00000  Uiso   1.00
H629   H     0.71632   0.58839   0.11663   0.00000  Uiso   1.00
H630   H     0.69942   0.58696   0.17270   0.00000  Uiso   1.00
H631   H     0.70949   0.64151   0.14855   0.00000  Uiso   1.00
H632   H     0.94200   0.48093   0.05144   0.00000  Uiso   1.00
H633   H     0.95290   0.53646   0.08106   0.00000  Uiso   1.00
H634   H     0.96733   0.52679   0.02502   0.00000  Uiso   1.00
H635   H     0.89682   0.36964   0.48398   0.00000  Uiso   1.00
H636   H     0.90621   0.38863   0.42962   0.00000  Uiso   1.00
H637   H     0.79547   0.55846   0.39087   0.00000  Uiso   1.00
H638   H     0.85387   0.38342   0.44781   0.00000  Uiso   1.00
H639   H     0.73874   0.53431   0.45421   0.00000  Uiso   1.00
H640   H     0.74946   0.59307   0.43688   0.00000  Uiso   1.00
H641   H     0.73455   0.58320   0.49204   0.00000  Uiso   1.00
H642   H     0.78613   0.42544   0.46303   0.00000  Uiso   1.00
H643   H     0.75036   0.39998   0.49811   0.00000  Uiso   1.00
H644   H     0.80361   0.40115   0.01538   0.00000  Uiso   1.00
H645   H     0.67707   0.50092   0.14747   0.00000  Uiso   1.00
H646   H     0.70454   0.45722   0.11863   0.00000  Uiso   1.00
H647   H     0.73226   0.49853   0.15482   0.00000  Uiso   1.00
H648   H     0.77676   0.46810   0.10453   0.00000  Uiso   1.00
H649   H     0.91934   0.53281   0.34007   0.00000  Uiso   1.00
H650   H     0.95306   0.57381   0.37011   0.00000  Uiso   1.00
H651   H     0.97225   0.51847   0.35392   0.00000  Uiso   1.00
H652   H     0.93449   0.48538   0.15918   0.00000  Uiso   1.00
H653   H     0.90901   0.43030   0.15181   0.00000  Uiso   1.00
H654   H     0.95982   0.43626   0.13330   0.00000  Uiso   1.00
H655   H     0.74554   0.59204   0.34912   0.00000  Uiso   1.00
H656   H     0.74241   0.53033   0.33802   0.00000  Uiso   1.00
H657   H     0.69944   0.56238   0.35987   0.00000  Uiso   1.00
H658   H     0.76831   0.42181   0.16655   0.00000  Uiso   1.00
H659   H     0.74617   0.36734   0.17850   0.00000  Uiso   1.00
H660   H     0.76202   0.33672   0.10196   0.00000  Uiso   1.00
H661   H     0.73612   0.39054   0.09735   0.00000  Uiso   1.00
H662   H     0.79107   0.38751   0.09308   0.00000  Uiso   1.00
N663   N     0.83333   0.61736   0.25000   0.00000  Uiso   1.00
N664   N     0.83333   0.38264   0.25000   0.00000  Uiso   1.00
O665   O     0.77321   0.53958   0.24999   0.00000  Uiso   1.00
O666   O     0.87484   0.62160   0.31740   0.00000  Uiso   1.00
O667   O     0.88337   0.38558   0.30968   0.00000  Uiso   1.00
O668   O     0.76849   0.62209   0.21141   0.00000  Uiso   1.00
O669   O     0.90583   0.53747   0.03181   0.00000  Uiso   1.00
O670   O     0.88932   0.43939   0.47582   0.00000  Uiso   1.00
O671   O     0.79385   0.56557   0.47994   0.00000  Uiso   1.00
O672   O     0.77114   0.46497   0.01855   0.00000  Uiso   1.00
O673   O     0.70211   0.44636   0.18577   0.00000  Uiso   1.00
O674   O     0.96126   0.56690   0.30314   0.00000  Uiso   1.00
O675   O     0.95470   0.43186   0.20121   0.00000  Uiso   1.00
O676   O     0.89345   0.46042   0.25000   0.00000  Uiso   1.00
O677   O     0.71063   0.57301   0.29351   0.00000  Uiso   1.00
O678   O     0.89345   0.53958   0.25000   0.00000  Uiso   1.00
O679   O     0.77321   0.46042   0.24999   0.00000  Uiso   1.00
O680   O     0.83333   0.53959   0.18573   0.00000  Uiso   1.00
O681   O     0.83334   0.46041   0.31427   0.00000  Uiso   1.00
O682   O     0.83334   0.53959   0.31427   0.00000  Uiso   1.00
O683   O     0.83333   0.46041   0.18573   0.00000  Uiso   1.00
O684   O     0.81070   0.37170   0.17447   0.00000  Uiso   1.00
C685   C     0.08734   0.83345   0.24885   0.00000  Uiso   1.00
C686   C     0.31327   0.86737   0.27654   0.00000  Uiso   1.00
C687   C     0.30987   0.80049   0.22440   0.00000  Uiso   1.00
C688   C     0.02260   0.86839   0.27477   0.00000  Uiso   1.00
C689   C     0.20641   0.85060   0.05172   0.00000  Uiso   1.00
C690   C     0.19705   0.80251   0.45235   0.00000  Uiso   1.00
C691   C     0.14819   0.86652   0.45453   0.00000  Uiso   1.00
C692   C     0.13868   0.81365   0.04400   0.00000  Uiso   1.00
C693   C     0.20351   0.85179   0.09813   0.00000  Uiso   1.00
C694   C     0.19501   0.80313   0.40567   0.00000  Uiso   1.00
C695   C     0.14705   0.86667   0.40797   0.00000  Uiso   1.00
C696   C     0.24575   0.83342   0.25107   0.00000  Uiso   1.00
C697   C     0.13720   0.81406   0.09003   0.00000  Uiso   1.00
C698   C     0.16973   0.83190   0.11708   0.00000  Uiso   1.00
C699   C     0.16976   0.83477   0.38360   0.00000  Uiso   1.00
C700   C     0.17324   0.83256   0.02476   0.00000  Uiso   1.00
C701   C     0.17384   0.83482   0.47635   0.00000  Uiso   1.00
C702   C     0.29025   0.83331   0.25142   0.00000  Uiso   1.00
C703   C     0.04243   0.83449   0.24870   0.00000  Uiso   1.00
C704   C     0.10410   0.71751   0.16053   0.00000  Uiso   1.00
C705   C     0.09791   0.70748   0.11042   0.00000  Uiso   1.00
C706   C     0.18828   0.96757   0.35693   0.00000  Uiso   1.00
C707   C     0.16733   0.83273   0.16516   0.00000  Uiso   1.00
C708   C     0.21364   0.95222   0.39734   0.00000  Uiso   1.00
C709   C     0.25806   0.70904   0.30137   0.00000  Uiso   1.00
C710   C     0.28583   0.74106   0.33077   0.00000  Uiso   1.00
C711   C     0.09756   0.93522   0.16801   0.00000  Uiso   1.00
C712   C     0.05308   0.93852   0.15042   0.00000  Uiso   1.00
C713   C     0.27664   0.85262   0.04856   0.00000  Uiso   1.00
C714   C     0.21937   0.72686   0.45796   0.00000  Uiso   1.00
C715   C     0.08581   0.90207   0.46449   0.00000  Uiso   1.00
C716   C     0.11212   0.75450   0.49821   0.00000  Uiso   1.00
C717   C     0.03726   0.81071   0.15056   0.00000  Uiso   1.00
C718   C     0.16735   0.83398   0.33503   0.00000  Uiso   1.00
C719   C     0.28446   0.87993   0.34317   0.00000  Uiso   1.00
C720   C     0.27249   0.78059   0.15980   0.00000  Uiso   1.00
C721   C     0.05821   0.89658   0.33694   0.00000  Uiso   1.00
C722   C     0.14553   0.68948   0.21726   0.00000  Uiso   1.00
C723   C     0.18907   0.97677   0.28194   0.00000  Uiso   1.00
C724   C     0.19102   0.69314   0.28014   0.00000  Uiso   1.00
C725   C     0.14074   0.97387   0.22134   0.00000  Uiso   1.00
C726   C     0.01882   0.80299   0.22115   0.00000  Uiso   1.00
Cu727  Cu    0.16667   0.88022   0.25000   0.00000  Uiso   1.00
Cu728  Cu    0.16667   0.78645   0.25000   0.00000  Uiso   1.00
H729   H     0.22713   0.86873   0.11942   0.00000  Uiso   1.00
H730   H     0.15746   0.95123   0.35625   0.00000  Uiso   1.00
H731   H     0.18394   0.67218   0.36189   0.00000  Uiso   1.00
H732   H     0.24370   0.97050   0.39949   0.00000  Uiso   1.00
H733   H     0.19726   0.96062   0.42804   0.00000  Uiso   1.00
H734   H     0.21875   0.91440   0.39517   0.00000  Uiso   1.00
H735   H     0.26441   0.71452   0.26600   0.00000  Uiso   1.00
H736   H     0.26622   0.67290   0.30932   0.00000  Uiso   1.00
H737   H     0.31814   0.73681   0.32161   0.00000  Uiso   1.00
H738   H     0.27672   0.77758   0.32656   0.00000  Uiso   1.00
H739   H     0.28341   0.73267   0.36620   0.00000  Uiso   1.00
H740   H     0.21357   0.77967   0.38645   0.00000  Uiso   1.00
H741   H     0.10270   0.89784   0.16939   0.00000  Uiso   1.00
H742   H     0.11906   0.94955   0.14451   0.00000  Uiso   1.00
H743   H     0.04966   0.92173   0.11663   0.00000  Uiso   1.00
H744   H     0.03275   0.92030   0.17270   0.00000  Uiso   1.00
H745   H     0.04282   0.97484   0.14855   0.00000  Uiso   1.00
H746   H     0.27534   0.81427   0.05144   0.00000  Uiso   1.00
H747   H     0.28624   0.86979   0.08106   0.00000  Uiso   1.00
H748   H     0.30066   0.86013   0.02502   0.00000  Uiso   1.00
H749   H     0.23016   0.70298   0.48398   0.00000  Uiso   1.00
H750   H     0.23955   0.72196   0.42962   0.00000  Uiso   1.00
H751   H     0.12880   0.89179   0.39087   0.00000  Uiso   1.00
H752   H     0.18721   0.71675   0.44781   0.00000  Uiso   1.00
H753   H     0.07207   0.86764   0.45421   0.00000  Uiso   1.00
H754   H     0.08279   0.92640   0.43688   0.00000  Uiso   1.00
H755   H     0.06788   0.91653   0.49204   0.00000  Uiso   1.00
H756   H     0.11947   0.75878   0.46303   0.00000  Uiso   1.00
H757   H     0.08369   0.73331   0.49811   0.00000  Uiso   1.00
H758   H     0.13694   0.73448   0.01538   0.00000  Uiso   1.00
H759   H     0.01041   0.83425   0.14747   0.00000  Uiso   1.00
H760   H     0.03787   0.79056   0.11863   0.00000  Uiso   1.00
H761   H     0.06559   0.83187   0.15482   0.00000  Uiso   1.00
H762   H     0.11009   0.80143   0.10453   0.00000  Uiso   1.00
H763   H     0.25268   0.86614   0.34007   0.00000  Uiso   1.00
H764   H     0.28639   0.90714   0.37011   0.00000  Uiso   1.00
H765   H     0.30559   0.85181   0.35392   0.00000  Uiso   1.00
H766   H     0.26782   0.81871   0.15918   0.00000  Uiso   1.00
H767   H     0.24235   0.76363   0.15181   0.00000  Uiso   1.00
H768   H     0.29316   0.76959   0.13330   0.00000  Uiso   1.00
H769   H     0.07887   0.92537   0.34912   0.00000  Uiso   1.00
H770   H     0.07574   0.86366   0.33802   0.00000  Uiso   1.00
H771   H     0.03277   0.89571   0.35987   0.00000  Uiso   1.00
H772   H     0.10164   0.75514   0.16655   0.00000  Uiso   1.00
H773   H     0.07950   0.70067   0.17850   0.00000  Uiso   1.00
H774   H     0.09535   0.67005   0.10196   0.00000  Uiso   1.00
H775   H     0.06946   0.72387   0.09735   0.00000  Uiso   1.00
H776   H     0.12440   0.72085   0.09308   0.00000  Uiso   1.00
N777   N     0.16667   0.95069   0.25000   0.00000  Uiso   1.00
N778   N     0.16667   0.71598   0.25000   0.00000  Uiso   1.00
O779   O     0.10655   0.87291   0.24999   0.00000  Uiso   1.00
O780   O     0.20818   0.95493   0.31740   0.00000  Uiso   1.00
O781   O     0.21670   0.71891   0.30968   0.00000  Uiso   1.00
O782   O     0.10183   0.95543   0.21141   0.00000  Uiso   1.00
O783   O     0.23917   0.87081   0.03181   0.00000  Uiso   1.00
O784   O     0.22266   0.77272   0.47582   0.00000  Uiso   1.00
O785   O     0.12718   0.89891   0.47994   0.00000  Uiso   1.00
O786   O     0.10447   0.79831   0.01855   0.00000  Uiso   1.00
O787   O     0.03544   0.77969   0.18577   0.00000  Uiso   1.00
O788   O     0.29459   0.90023   0.30314   0.00000  Uiso   1.00
O789   O     0.28803   0.76519   0.20121   0.00000  Uiso   1.00
O790   O     0.22679   0.79375   0.25000   0.00000  Uiso   1.00
O791   O     0.04396   0.90634   0.29351   0.00000  Uiso   1.00
O792   O     0.22679   0.87291   0.25000   0.00000  Uiso   1.00
O793   O     0.10655   0.79375   0.24999   0.00000  Uiso   1.00
O794   O     0.16666   0.87293   0.18573   0.00000  Uiso   1.00
O795   O     0.16667   0.79374   0.31427   0.00000  Uiso   1.00
O796   O     0.16667   0.87293   0.31427   0.00000  Uiso   1.00
O797   O     0.16666   0.79374   0.18573   0.00000  Uiso   1.00
O798   O     0.14404   0.70503   0.17447   0.00000  Uiso   1.00
C799   C     0.42068   0.83345   0.24885   0.00000  Uiso   1.00
C800   C     0.64661   0.86737   0.27654   0.00000  Uiso   1.00
C801   C     0.64321   0.80049   0.22440   0.00000  Uiso   1.00
C802   C     0.35594   0.86839   0.27477   0.00000  Uiso   1.00
C803   C     0.53974   0.85060   0.05172   0.00000  Uiso   1.00
C804   C     0.53038   0.80251   0.45235   0.00000  Uiso   1.00
C805   C     0.48152   0.86652   0.45453   0.00000  Uiso   1.00
C806   C     0.47201   0.81365   0.04400   0.00000  Uiso   1.00
C807   C     0.53684   0.85179   0.09813   0.00000  Uiso   1.00
C808   C     0.52835   0.80313   0.40567   0.00000  Uiso   1.00
C809   C     0.48039   0.86667   0.40797   0.00000  Uiso   1.00
C810   C     0.57908   0.83342   0.25107   0.00000  Uiso   1.00
C811   C     0.47054   0.81406   0.09003   0.00000  Uiso   1.00
C812   C     0.50306   0.83190   0.11708   0.00000  Uiso   1.00
C813   C     0.50309   0.83477   0.38360   0.00000  Uiso   1.00
C814   C     0.50657   0.83256   0.02476   0.00000  Uiso   1.00
C815   C     0.50717   0.83482   0.47635   0.00000  Uiso   1.00
C816   C     0.62359   0.83331   0.25142   0.00000  Uiso   1.00
C817   C     0.37576   0.83449   0.24870   0.00000  Uiso   1.00
C818   C     0.43744   0.71751   0.16053   0.00000  Uiso   1.00
C819   C     0.43125   0.70748   0.11042   0.00000  Uiso   1.00
C820   C     0.52161   0.96757   0.35693   0.00000  Uiso   1.00
C821   C     0.50067   0.83273   0.16516   0.00000  Uiso   1.00
C822   C     0.54697   0.95222   0.39734   0.00000  Uiso   1.00
C823   C     0.59139   0.70904   0.30137   0.00000  Uiso   1.00
C824   C     0.61916   0.74106   0.33077   0.00000  Uiso   1.00
C825   C     0.43090   0.93522   0.16801   0.00000  Uiso   1.00
C826   C     0.38641   0.93852   0.15042   0.00000  Uiso   1.00
C827   C     0.60997   0.85262   0.04856   0.00000  Uiso   1.00
C828   C     0.55271   0.72686   0.45796   0.00000  Uiso   1.00
C829   C     0.41915   0.90207   0.46449   0.00000  Uiso   1.00
C830   C     0.44546   0.75450   0.49821   0.00000  Uiso   1.00
C831   C     0.37060   0.81071   0.15056   0.00000  Uiso   1.00
C832   C     0.50069   0.83398   0.33503   0.00000  Uiso   1.00
C833   C     0.61779   0.87993   0.34317   0.00000  Uiso   1.00
C834   C     0.60582   0.78059   0.15980   0.00000  Uiso   1.00
C835   C     0.39155   0.89658   0.33694   0.00000  Uiso   1.00
C836   C     0.47886   0.68948   0.21726   0.00000  Uiso   1.00
C837   C     0.52240   0.97677   0.28194   0.00000  Uiso   1.00
C838   C     0.52435   0.69314   0.28014   0.00000  Uiso   1.00
C839   C     0.47407   0.97387   0.22134   0.00000  Uiso   1.00
C840   C     0.35215   0.80299   0.22115   0.00000  Uiso   1.00
Cu841  Cu    0.50000   0.88022   0.25000   0.00000  Uiso   1.00
Cu842  Cu    0.50000   0.78645   0.25000   0.00000  Uiso   1.00
H843   H     0.56047   0.86873   0.11942   0.00000  Uiso   1.00
H844   H     0.49080   0.95123   0.35625   0.00000  Uiso   1.00
H845   H     0.51727   0.67218   0.36189   0.00000  Uiso   1.00
H846   H     0.57703   0.97050   0.39949   0.00000  Uiso   1.00
H847   H     0.53059   0.96062   0.42804   0.00000  Uiso   1.00
H848   H     0.55208   0.91440   0.39517   0.00000  Uiso   1.00
H849   H     0.59774   0.71452   0.26600   0.00000  Uiso   1.00
H850   H     0.59955   0.67290   0.30932   0.00000  Uiso   1.00
H851   H     0.65147   0.73681   0.32161   0.00000  Uiso   1.00
H852   H     0.61005   0.77758   0.32656   0.00000  Uiso   1.00
H853   H     0.61675   0.73267   0.36620   0.00000  Uiso   1.00
H854   H     0.54690   0.77967   0.38645   0.00000  Uiso   1.00
H855   H     0.43603   0.89784   0.16939   0.00000  Uiso   1.00
H856   H     0.45239   0.94955   0.14451   0.00000  Uiso   1.00
H857   H     0.38299   0.92173   0.11663   0.00000  Uiso   1.00
H858   H     0.36609   0.92030   0.17270   0.00000  Uiso   1.00
H859   H     0.37616   0.97484   0.14855   0.00000  Uiso   1.00
H860   H     0.60867   0.81427   0.05144   0.00000  Uiso   1.00
H861   H     0.61957   0.86979   0.08106   0.00000  Uiso   1.00
H862   H     0.63400   0.86013   0.02502   0.00000  Uiso   1.00
H863   H     0.56349   0.70298   0.48398   0.00000  Uiso   1.00
H864   H     0.57288   0.72196   0.42962   0.00000  Uiso   1.00
H865   H     0.46213   0.89179   0.39087   0.00000  Uiso   1.00
H866   H     0.52054   0.71675   0.44781   0.00000  Uiso   1.00
H867   H     0.40540   0.86764   0.45421   0.00000  Uiso   1.00
H868   H     0.41612   0.92640   0.43688   0.00000  Uiso   1.00
H869   H     0.40121   0.91653   0.49204   0.00000  Uiso   1.00
H870   H     0.45280   0.75878   0.46303   0.00000  Uiso   1.00
H871   H     0.41702   0.73331   0.49811   0.00000  Uiso   1.00
H872   H     0.47028   0.73448   0.01538   0.00000  Uiso   1.00
H873   H     0.34374   0.83425   0.14747   0.00000  Uiso   1.00
H874   H     0.37120   0.79056   0.11863   0.00000  Uiso   1.00
H875   H     0.39892   0.83187   0.15482   0.00000  Uiso   1.00
H876   H     0.44342   0.80143   0.10453   0.00000  Uiso   1.00
H877   H     0.58601   0.86614   0.34007   0.00000  Uiso   1.00
H878   H     0.61972   0.90714   0.37011   0.00000  Uiso   1.00
H879   H     0.63892   0.85181   0.35392   0.00000  Uiso   1.00
H880   H     0.60115   0.81871   0.15918   0.00000  Uiso   1.00
H881   H     0.57568   0.76363   0.15181   0.00000  Uiso   1.00
H882   H     0.62649   0.76959   0.13330   0.00000  Uiso   1.00
H883   H     0.41220   0.92537   0.34912   0.00000  Uiso   1.00
H884   H     0.40908   0.86366   0.33802   0.00000  Uiso   1.00
H885   H     0.36610   0.89571   0.35987   0.00000  Uiso   1.00
H886   H     0.43497   0.75514   0.16655   0.00000  Uiso   1.00
H887   H     0.41283   0.70067   0.17850   0.00000  Uiso   1.00
H888   H     0.42869   0.67005   0.10196   0.00000  Uiso   1.00
H889   H     0.40279   0.72387   0.09735   0.00000  Uiso   1.00
H890   H     0.45773   0.72085   0.09308   0.00000  Uiso   1.00
N891   N     0.50000   0.95069   0.25000   0.00000  Uiso   1.00
N892   N     0.50000   0.71598   0.25000   0.00000  Uiso   1.00
O893   O     0.43988   0.87291   0.24999   0.00000  Uiso   1.00
O894   O     0.54151   0.95493   0.31740   0.00000  Uiso   1.00
O895   O     0.55004   0.71891   0.30968   0.00000  Uiso   1.00
O896   O     0.43516   0.95543   0.21141   0.00000  Uiso   1.00
O897   O     0.57250   0.87081   0.03181   0.00000  Uiso   1.00
O898   O     0.55599   0.77272   0.47582   0.00000  Uiso   1.00
O899   O     0.46051   0.89891   0.47994   0.00000  Uiso   1.00
O900   O     0.43781   0.79831   0.01855   0.00000  Uiso   1.00
O901   O     0.36878   0.77969   0.18577   0.00000  Uiso   1.00
O902   O     0.62792   0.90023   0.30314   0.00000  Uiso   1.00
O903   O     0.62137   0.76519   0.20121   0.00000  Uiso   1.00
O904   O     0.56012   0.79375   0.25000   0.00000  Uiso   1.00
O905   O     0.37729   0.90634   0.29351   0.00000  Uiso   1.00
O906   O     0.56012   0.87291   0.25000   0.00000  Uiso   1.00
O907   O     0.43988   0.79375   0.24999   0.00000  Uiso   1.00
O908   O     0.50000   0.87293   0.18573   0.00000  Uiso   1.00
O909   O     0.50000   0.79374   0.31427   0.00000  Uiso   1.00
O910   O     0.50000   0.87293   0.31427   0.00000  Uiso   1.00
O911   O     0.50000   0.79374   0.18573   0.00000  Uiso   1.00
O912   O     0.47737   0.70503   0.17447   0.00000  Uiso   1.00
C913   C     0.75401   0.83345   0.24885   0.00000  Uiso   1.00
C914   C     0.97994   0.86737   0.27654   0.00000  Uiso   1.00
C915   C     0.97654   0.80049   0.22440   0.00000  Uiso   1.00
C916   C     0.68927   0.86839   0.27477   0.00000  Uiso   1.00
C917   C     0.87308   0.85060   0.05172   0.00000  Uiso   1.00
C918   C     0.86371   0.80251   0.45235   0.00000  Uiso   1.00
C919   C     0.81486   0.86652   0.45453   0.00000  Uiso   1.00
C920   C     0.80535   0.81365   0.04400   0.00000  Uiso   1.00
C921   C     0.87017   0.85179   0.09813   0.00000  Uiso   1.00
C922   C     0.86168   0.80313   0.40567   0.00000  Uiso   1.00
C923   C     0.81372   0.86667   0.40797   0.00000  Uiso   1.00
C924   C     0.91242   0.83342   0.25107   0.00000  Uiso   1.00
C925   C     0.80387   0.81406   0.09003   0.00000  Uiso   1.00
C926   C     0.83639   0.83190   0.11708   0.00000  Uiso   1.00
C927   C     0.83643   0.83477   0.38360   0.00000  Uiso   1.00
C928   C     0.83990   0.83256   0.02476   0.00000  Uiso   1.00
C929   C     0.84051   0.83482   0.47635   0.00000  Uiso   1.00
C930   C     0.95692   0.83331   0.25142   0.00000  Uiso   1.00
C931   C     0.70909   0.83449   0.24870   0.00000  Uiso   1.00
C932   C     0.77077   0.71751   0.16053   0.00000  Uiso   1.00
C933   C     0.76458   0.70748   0.11042   0.00000  Uiso   1.00
C934   C     0.85494   0.96757   0.35693   0.00000  Uiso   1.00
C935   C     0.83400   0.83273   0.16516   0.00000  Uiso   1.00
C936   C     0.88030   0.95222   0.39734   0.00000  Uiso   1.00
C937   C     0.92473   0.70904   0.30137   0.00000  Uiso   1.00
C938   C     0.95250   0.74106   0.33077   0.00000  Uiso   1.00
C939   C     0.76423   0.93522   0.16801   0.00000  Uiso   1.00
C940   C     0.71974   0.93852   0.15042   0.00000  Uiso   1.00
C941   C     0.94331   0.85262   0.04856   0.00000  Uiso   1.00
C942   C     0.88604   0.72686   0.45796   0.00000  Uiso   1.00
C943   C     0.75248   0.90207   0.46449   0.00000  Uiso   1.00
C944   C     0.77879   0.75450   0.49821   0.00000  Uiso   1.00
C945   C     0.70393   0.81071   0.15056   0.00000  Uiso   1.00
C946   C     0.83402   0.83398   0.33503   0.00000  Uiso   1.00
C947   C     0.95112   0.87993   0.34317   0.00000  Uiso   1.00
C948   C     0.93916   0.78059   0.15980   0.00000  Uiso   1.00
C949   C     0.72488   0.89658   0.33694   0.00000  Uiso   1.00
C950   C     0.81220   0.68948   0.21726   0.00000  Uiso   1.00
C951   C     0.85574   0.97677   0.28194   0.00000  Uiso   1.00
C952   C     0.85768   0.69314   0.28014   0.00000  Uiso   1.00
C953   C     0.80740   0.97387   0.22134   0.00000  Uiso   1.00
C954   C     0.68549   0.80299   0.22115   0.00000  Uiso   1.00
Cu955  Cu    0.83333   0.88022   0.25000   0.00000  Uiso   1.00
Cu956  Cu    0.83333   0.78645   0.25000   0.00000  Uiso   1.00
H957   H     0.89380   0.86873   0.11942   0.00000  Uiso   1.00
H958   H     0.82413   0.95123   0.35625   0.00000  Uiso   1.00
H959   H     0.85060   0.67218   0.36189   0.00000  Uiso   1.00
H960   H     0.91036   0.97050   0.39949   0.00000  Uiso   1.00
H961   H     0.86393   0.96062   0.42804   0.00000  Uiso   1.00
H962   H     0.88542   0.91440   0.39517   0.00000  Uiso   1.00
H963   H     0.93107   0.71452   0.26600   0.00000  Uiso   1.00
H964   H     0.93289   0.67290   0.30932   0.00000  Uiso   1.00
H965   H     0.98481   0.73681   0.32161   0.00000  Uiso   1.00
H966   H     0.94338   0.77758   0.32656   0.00000  Uiso   1.00
H967   H     0.95008   0.73267   0.36620   0.00000  Uiso   1.00
H968   H     0.88023   0.77967   0.38645   0.00000  Uiso   1.00
H969   H     0.76937   0.89784   0.16939   0.00000  Uiso   1.00
H970   H     0.78573   0.94955   0.14451   0.00000  Uiso   1.00
H971   H     0.71632   0.92173   0.11663   0.00000  Uiso   1.00
H972   H     0.69942   0.92030   0.17270   0.00000  Uiso   1.00
H973   H     0.70949   0.97484   0.14855   0.00000  Uiso   1.00
H974   H     0.94200   0.81427   0.05144   0.00000  Uiso   1.00
H975   H     0.95290   0.86979   0.08106   0.00000  Uiso   1.00
H976   H     0.96733   0.86013   0.02502   0.00000  Uiso   1.00
H977   H     0.89682   0.70298   0.48398   0.00000  Uiso   1.00
H978   H     0.90621   0.72196   0.42962   0.00000  Uiso   1.00
H979   H     0.79547   0.89179   0.39087   0.00000  Uiso   1.00
H980   H     0.85387   0.71675   0.44781   0.00000  Uiso   1.00
H981   H     0.73874   0.86764   0.45421   0.00000  Uiso   1.00
H982   H     0.74946   0.92640   0.43688   0.00000  Uiso   1.00
H983   H     0.73455   0.91653   0.49204   0.00000  Uiso   1.00
H984   H     0.78613   0.75878   0.46303   0.00000  Uiso   1.00
H985   H     0.75036   0.73331   0.49811   0.00000  Uiso   1.00
H986   H     0.80361   0.73448   0.01538   0.00000  Uiso   1.00
H987   H     0.67707   0.83425   0.14747   0.00000  Uiso   1.00
H988   H     0.70454   0.79056   0.11863   0.00000  Uiso   1.00
H989   H     0.73226   0.83187   0.15482   0.00000  Uiso   1.00
H990   H     0.77676   0.80143   0.10453   0.00000  Uiso   1.00
H991   H     0.91934   0.86614   0.34007   0.00000  Uiso   1.00
H992   H     0.95306   0.90714   0.37011   0.00000  Uiso   1.00
H993   H     0.97225   0.85181   0.35392   0.00000  Uiso   1.00
H994   H     0.93449   0.81871   0.15918   0.00000  Uiso   1.00
H995   H     0.90901   0.76363   0.15181   0.00000  Uiso   1.00
H996   H     0.95982   0.76959   0.13330   0.00000  Uiso   1.00
H997   H     0.74554   0.92537   0.34912   0.00000  Uiso   1.00
H998   H     0.74241   0.86366   0.33802   0.00000  Uiso   1.00
H999   H     0.69944   0.89571   0.35987   0.00000  Uiso   1.00
H1000  H     0.76831   0.75514   0.16655   0.00000  Uiso   1.00
H1001  H     0.74617   0.70067   0.17850   0.00000  Uiso   1.00
H1002  H     0.76202   0.67005   0.10196   0.00000  Uiso   1.00
H1003  H     0.73612   0.72387   0.09735   0.00000  Uiso   1.00
H1004  H     0.79107   0.72085   0.09308   0.00000  Uiso   1.00
N1005  N     0.83333   0.95069   0.25000   0.00000  Uiso   1.00
N1006  N     0.83333   0.71598   0.25000   0.00000  Uiso   1.00
O1007  O     0.77321   0.87291   0.24999   0.00000  Uiso   1.00
O1008  O     0.87484   0.95493   0.31740   0.00000  Uiso   1.00
O1009  O     0.88337   0.71891   0.30968   0.00000  Uiso   1.00
O1010  O     0.76849   0.95543   0.21141   0.00000  Uiso   1.00
O1011  O     0.90583   0.87081   0.03181   0.00000  Uiso   1.00
O1012  O     0.88932   0.77272   0.47582   0.00000  Uiso   1.00
O1013  O     0.79385   0.89891   0.47994   0.00000  Uiso   1.00
O1014  O     0.77114   0.79831   0.01855   0.00000  Uiso   1.00
O1015  O     0.70211   0.77969   0.18577   0.00000  Uiso   1.00
O1016  O     0.96126   0.90023   0.30314   0.00000  Uiso   1.00
O1017  O     0.95470   0.76519   0.20121   0.00000  Uiso   1.00
O1018  O     0.89345   0.79375   0.25000   0.00000  Uiso   1.00
O1019  O     0.71063   0.90634   0.29351   0.00000  Uiso   1.00
O1020  O     0.89345   0.87291   0.25000   0.00000  Uiso   1.00
O1021  O     0.77321   0.79375   0.24999   0.00000  Uiso   1.00
O1022  O     0.83333   0.87293   0.18573   0.00000  Uiso   1.00
O1023  O     0.83334   0.79374   0.31427   0.00000  Uiso   1.00
O1024  O     0.83334   0.87293   0.31427   0.00000  Uiso   1.00
O1025  O     0.83333   0.79374   0.18573   0.00000  Uiso   1.00
O1026  O     0.81070   0.70503   0.17447   0.00000  Uiso   1.00
C1027  C     0.08734   0.16678   0.74885   0.00000  Uiso   1.00
C1028  C     0.31327   0.20070   0.77654   0.00000  Uiso   1.00
C1029  C     0.30987   0.13382   0.72440   0.00000  Uiso   1.00
C1030  C     0.02260   0.20172   0.77477   0.00000  Uiso   1.00
C1031  C     0.20641   0.18394   0.55172   0.00000  Uiso   1.00
C1032  C     0.19705   0.13585   0.95235   0.00000  Uiso   1.00
C1033  C     0.14819   0.19985   0.95453   0.00000  Uiso   1.00
C1034  C     0.13868   0.14699   0.54400   0.00000  Uiso   1.00
C1035  C     0.20351   0.18513   0.59813   0.00000  Uiso   1.00
C1036  C     0.19501   0.13646   0.90567   0.00000  Uiso   1.00
C1037  C     0.14705   0.20001   0.90797   0.00000  Uiso   1.00
C1038  C     0.24575   0.16675   0.75107   0.00000  Uiso   1.00
C1039  C     0.13720   0.14739   0.59003   0.00000  Uiso   1.00
C1040  C     0.16973   0.16523   0.61708   0.00000  Uiso   1.00
C1041  C     0.16976   0.16810   0.88360   0.00000  Uiso   1.00
C1042  C     0.17324   0.16589   0.52476   0.00000  Uiso   1.00
C1043  C     0.17384   0.16815   0.97635   0.00000  Uiso   1.00
C1044  C     0.29025   0.16665   0.75142   0.00000  Uiso   1.00
C1045  C     0.04243   0.16782   0.74870   0.00000  Uiso   1.00
C1046  C     0.10410   0.05085   0.66053   0.00000  Uiso   1.00
C1047  C     0.09791   0.04081   0.61042   0.00000  Uiso   1.00
C1048  C     0.18828   0.30091   0.85693   0.00000  Uiso   1.00
C1049  C     0.16733   0.16606   0.66516   0.00000  Uiso   1.00
C1050  C     0.21364   0.28556   0.89734   0.00000  Uiso   1.00
C1051  C     0.25806   0.04237   0.80137   0.00000  Uiso   1.00
C1052  C     0.28583   0.07440   0.83077   0.00000  Uiso   1.00
C1053  C     0.09756   0.26855   0.66801   0.00000  Uiso   1.00
C1054  C     0.05308   0.27185   0.65042   0.00000  Uiso   1.00
C1055  C     0.27664   0.18596   0.54856   0.00000  Uiso   1.00
C1056  C     0.21937   0.06019   0.95796   0.00000  Uiso   1.00
C1057  C     0.08581   0.23540   0.96449   0.00000  Uiso   1.00
C1058  C     0.11212   0.08783   0.99821   0.00000  Uiso   1.00
C1059  C     0.03726   0.14404   0.65056   0.00000  Uiso   1.00
C1060  C     0.16735   0.16731   0.83503   0.00000  Uiso   1.00
C1061  C     0.28446   0.21326   0.84317   0.00000  Uiso   1.00
C1062  C     0.27249   0.11393   0.65980   0.00000  Uiso   1.00
C1063  C     0.05821   0.22992   0.83694   0.00000  Uiso   1.00
C1064  C     0.14553   0.02281   0.71726   0.00000  Uiso   1.00
C1065  C     0.18907   0.31010   0.78194   0.00000  Uiso   1.00
C1066  C     0.19102   0.02648   0.78014   0.00000  Uiso   1.00
C1067  C     0.14074   0.30720   0.72134   0.00000  Uiso   1.00
C1068  C     0.01882   0.13633   0.72115   0.00000  Uiso   1.00
Cu1069 Cu    0.16667   0.21355   0.75000   0.00000  Uiso   1.00
Cu1070 Cu    0.16667   0.11978   0.75000   0.00000  Uiso   1.00
H1071  H     0.22713   0.20206   0.61942   0.00000  Uiso   1.00
H1072  H     0.15746   0.28456   0.85625   0.00000  Uiso   1.00
H1073  H     0.18394   0.00551   0.86189   0.00000  Uiso   1.00
H1074  H     0.24370   0.30384   0.89949   0.00000  Uiso   1.00
H1075  H     0.19726   0.29395   0.92804   0.00000  Uiso   1.00
H1076  H     0.21875   0.24773   0.89517   0.00000  Uiso   1.00
H1077  H     0.26441   0.04785   0.76600   0.00000  Uiso   1.00
H1078  H     0.26622   0.00624   0.80932   0.00000  Uiso   1.00
H1079  H     0.31814   0.07015   0.82161   0.00000  Uiso   1.00
H1080  H     0.27672   0.11091   0.82656   0.00000  Uiso   1.00
H1081  H     0.28341   0.06601   0.86620   0.00000  Uiso   1.00
H1082  H     0.21357   0.11301   0.88645   0.00000  Uiso   1.00
H1083  H     0.10270   0.23117   0.66939   0.00000  Uiso   1.00
H1084  H     0.11906   0.28288   0.64451   0.00000  Uiso   1.00
H1085  H     0.04966   0.25506   0.61663   0.00000  Uiso   1.00
H1086  H     0.03275   0.25363   0.67270   0.00000  Uiso   1.00
H1087  H     0.04282   0.30818   0.64855   0.00000  Uiso   1.00
H1088  H     0.27534   0.14760   0.55144   0.00000  Uiso   1.00
H1089  H     0.28624   0.20313   0.58106   0.00000  Uiso   1.00
H1090  H     0.30066   0.19346   0.52502   0.00000  Uiso   1.00
H1091  H     0.23016   0.03631   0.98398   0.00000  Uiso   1.00
H1092  H     0.23955   0.05529   0.92962   0.00000  Uiso   1.00
H1093  H     0.12880   0.22513   0.89087   0.00000  Uiso   1.00
H1094  H     0.18721   0.05008   0.94781   0.00000  Uiso   1.00
H1095  H     0.07207   0.20098   0.95421   0.00000  Uiso   1.00
H1096  H     0.08279   0.25973   0.93688   0.00000  Uiso   1.00
H1097  H     0.06788   0.24987   0.99204   0.00000  Uiso   1.00
H1098  H     0.11947   0.09211   0.96303   0.00000  Uiso   1.00
H1099  H     0.08369   0.06664   0.99811   0.00000  Uiso   1.00
H1100  H     0.13694   0.06781   0.51538   0.00000  Uiso   1.00
H1101  H     0.01041   0.16758   0.64747   0.00000  Uiso   1.00
H1102  H     0.03787   0.12389   0.61863   0.00000  Uiso   1.00
H1103  H     0.06559   0.16520   0.65482   0.00000  Uiso   1.00
H1104  H     0.11009   0.13477   0.60453   0.00000  Uiso   1.00
H1105  H     0.25268   0.19947   0.84007   0.00000  Uiso   1.00
H1106  H     0.28639   0.24048   0.87011   0.00000  Uiso   1.00
H1107  H     0.30559   0.18514   0.85392   0.00000  Uiso   1.00
H1108  H     0.26782   0.15205   0.65918   0.00000  Uiso   1.00
H1109  H     0.24235   0.09696   0.65181   0.00000  Uiso   1.00
H1110  H     0.29316   0.10293   0.63330   0.00000  Uiso   1.00
H1111  H     0.07887   0.25870   0.84912   0.00000  Uiso   1.00
H1112  H     0.07574   0.19700   0.83802   0.00000  Uiso   1.00
H1113  H     0.03277   0.22904   0.85987   0.00000  Uiso   1.00
H1114  H     0.10164   0.08847   0.66655   0.00000  Uiso   1.00
H1115  H     0.07950   0.03400   0.67850   0.00000  Uiso   1.00
H1116  H     0.09535   0.00339   0.60196   0.00000  Uiso   1.00
H1117  H     0.06946   0.05721   0.59735   0.00000  Uiso   1.00
H1118  H     0.12440   0.05418   0.59308   0.00000  Uiso   1.00
N1119  N     0.16667   0.28402   0.75000   0.00000  Uiso   1.00
N1120  N     0.16667   0.04931   0.75000   0.00000  Uiso   1.00
O1121  O     0.10655   0.20625   0.74999   0.00000  Uiso   1.00
O1122  O     0.20818   0.28827   0.81740   0.00000  Uiso   1.00
O1123  O     0.21670   0.05224   0.80968   0.00000  Uiso   1.00
O1124  O     0.10183   0.28876   0.71141   0.00000  Uiso   1.00
O1125  O     0.23917   0.20414   0.53181   0.00000  Uiso   1.00
O1126  O     0.22266   0.10605   0.97582   0.00000  Uiso   1.00
O1127  O     0.12718   0.23224   0.97994   0.00000  Uiso   1.00
O1128  O     0.10447   0.13164   0.51855   0.00000  Uiso   1.00
O1129  O     0.03544   0.11303   0.68577   0.00000  Uiso   1.00
O1130  O     0.29459   0.23357   0.80314   0.00000  Uiso   1.00
O1131  O     0.28803   0.09852   0.70121   0.00000  Uiso   1.00
O1132  O     0.22679   0.12709   0.75000   0.00000  Uiso   1.00
O1133  O     0.04396   0.23968   0.79351   0.00000  Uiso   1.00
O1134  O     0.22679   0.20625   0.75000   0.00000  Uiso   1.00
O1135  O     0.10655   0.12709   0.74999   0.00000  Uiso   1.00
O1136  O     0.16666   0.20626   0.68573   0.00000  Uiso   1.00
O1137  O     0.16667   0.12707   0.81427   0.00000  Uiso   1.00
O1138  O     0.16667   0.20626   0.81427   0.00000  Uiso   1.00
O1139  O     0.16666   0.12707   0.68573   0.00000  Uiso   1.00
O1140  O     0.14404   0.03837   0.67447   0.00000  Uiso   1.00
C1141  C     0.42068   0.16678   0.74885   0.00000  Uiso   1.00
C1142  C     0.64661   0.20070   0.77654   0.00000  Uiso   1.00
C1143  C     0.64321   0.13382   0.72440   0.00000  Uiso   1.00
C1144  C     0.35594   0.20172   0.77477   0.00000  Uiso   1.00
C1145  C     0.53974   0.18394   0.55172   0.00000  Uiso   1.00
C1146  C     0.53038   0.13585   0.95235   0.00000  Uiso   1.00
C1147  C     0.48152   0.19985   0.95453   0.00000  Uiso   1.00
C1148  C     0.47201   0.14699   0.54400   0.00000  Uiso   1.00
C1149  C     0.53684   0.18513   0.59813   0.00000  Uiso   1.00
C1150  C     0.52835   0.13646   0.90567   0.00000  Uiso   1.00
C1151  C     0.48039   0.20001   0.90797   0.00000  Uiso   1.00
C1152  C     0.57908   0.16675   0.75107   0.00000  Uiso   1.00
C1153  C     0.47054   0.14739   0.59003   0.00000  Uiso   1.00
C1154  C     0.50306   0.16523   0.61708   0.00000  Uiso   1.00
C1155  C     0.50309   0.16810   0.88360   0.00000  Uiso   1.00
C1156  C     0.50657   0.16589   0.52476   0.00000  Uiso   1.00
C1157  C     0.50717   0.16815   0.97635   0.00000  Uiso   1.00
C1158  C     0.62359   0.16665   0.75142   0.00000  Uiso   1.00
C1159  C     0.37576   0.16782   0.74870   0.00000  Uiso   1.00
C1160  C     0.43744   0.05085   0.66053   0.00000  Uiso   1.00
C1161  C     0.43125   0.04081   0.61042   0.00000  Uiso   1.00
C1162  C     0.52161   0.30091   0.85693   0.00000  Uiso   1.00
C1163  C     0.50067   0.16606   0.66516   0.00000  Uiso   1.00
C1164  C     0.54697   0.28556   0.89734   0.00000  Uiso   1.00
C1165  C     0.59139   0.04237   0.80137   0.00000  Uiso   1.00
C1166  C     0.61916   0.07440   0.83077   0.00000  Uiso   1.00
C1167  C     0.43090   0.26855   0.66801   0.00000  Uiso   1.00
C1168  C     0.38641   0.27185   0.65042   0.00000  Uiso   1.00
C1169  C     0.60997   0.18596   0.54856   0.00000  Uiso   1.00
C1170  C     0.55271   0.06019   0.95796   0.00000  Uiso   1.00
C1171  C     0.41915   0.23540   0.96449   0.00000  Uiso   1.00
C1172  C     0.44546   0.08783   0.99821   0.00000  Uiso   1.00
C1173  C     0.37060   0.14404   0.65056   0.00000  Uiso   1.00
C1174  C     0.50069   0.16731   0.83503   0.00000  Uiso   1.00
C1175  C     0.61779   0.21326   0.84317   0.00000  Uiso   1.00
C1176  C     0.60582   0.11393   0.65980   0.00000  Uiso   1.00
C1177  C     0.39155   0.22992   0.83694   0.00000  Uiso   1.00
C1178  C     0.47886   0.02281   0.71726   0.00000  Uiso   1.00
C1179  C     0.52240   0.31010   0.78194   0.00000  Uiso   1.00
C1180  C     0.52435   0.02648   0.78014   0.00000  Uiso   1.00
C1181  C     0.47407   0.30720   0.72134   0.00000  Uiso   1.00
C1182  C     0.35215   0.13633   0.72115   0.00000  Uiso   1.00
Cu1183 Cu    0.50000   0.21355   0.75000   0.00000  Uiso   1.00
Cu1184 Cu    0.50000   0.11978   0.75000   0.00000  Uiso   1.00
H1185  H     0.56047   0.20206   0.61942   0.00000  Uiso   1.00
H1186  H     0.49080   0.28456   0.85625   0.00000  Uiso   1.00
H1187  H     0.51727   0.00551   0.86189   0.00000  Uiso   1.00
H1188  H     0.57703   0.30384   0.89949   0.00000  Uiso   1.00
H1189  H     0.53059   0.29395   0.92804   0.00000  Uiso   1.00
H1190  H     0.55208   0.24773   0.89517   0.00000  Uiso   1.00
H1191  H     0.59774   0.04785   0.76600   0.00000  Uiso   1.00
H1192  H     0.59955   0.00624   0.80932   0.00000  Uiso   1.00
H1193  H     0.65147   0.07015   0.82161   0.00000  Uiso   1.00
H1194  H     0.61005   0.11091   0.82656   0.00000  Uiso   1.00
H1195  H     0.61675   0.06601   0.86620   0.00000  Uiso   1.00
H1196  H     0.54690   0.11301   0.88645   0.00000  Uiso   1.00
H1197  H     0.43603   0.23117   0.66939   0.00000  Uiso   1.00
H1198  H     0.45239   0.28288   0.64451   0.00000  Uiso   1.00
H1199  H     0.38299   0.25506   0.61663   0.00000  Uiso   1.00
H1200  H     0.36609   0.25363   0.67270   0.00000  Uiso   1.00
H1201  H     0.37616   0.30818   0.64855   0.00000  Uiso   1.00
H1202  H     0.60867   0.14760   0.55144   0.00000  Uiso   1.00
H1203  H     0.61957   0.20313   0.58106   0.00000  Uiso   1.00
H1204  H     0.63400   0.19346   0.52502   0.00000  Uiso   1.00
H1205  H     0.56349   0.03631   0.98398   0.00000  Uiso   1.00
H1206  H     0.57288   0.05529   0.92962   0.00000  Uiso   1.00
H1207  H     0.46213   0.22513   0.89087   0.00000  Uiso   1.00
H1208  H     0.52054   0.05008   0.94781   0.00000  Uiso   1.00
H1209  H     0.40540   0.20098   0.95421   0.00000  Uiso   1.00
H1210  H     0.41612   0.25973   0.93688   0.00000  Uiso   1.00
H1211  H     0.40121   0.24987   0.99204   0.00000  Uiso   1.00
H1212  H     0.45280   0.09211   0.96303   0.00000  Uiso   1.00
H1213  H     0.41702   0.06664   0.99811   0.00000  Uiso   1.00
H1214  H     0.47028   0.06781   0.51538   0.00000  Uiso   1.00
H1215  H     0.34374   0.16758   0.64747   0.00000  Uiso   1.00
H1216  H     0.37120   0.12389   0.61863   0.00000  Uiso   1.00
H1217  H     0.39892   0.16520   0.65482   0.00000  Uiso   1.00
H1218  H     0.44342   0.13477   0.60453   0.00000  Uiso   1.00
H1219  H     0.58601   0.19947   0.84007   0.00000  Uiso   1.00
H1220  H     0.61972   0.24048   0.87011   0.00000  Uiso   1.00
H1221  H     0.63892   0.18514   0.85392   0.00000  Uiso   1.00
H1222  H     0.60115   0.15205   0.65918   0.00000  Uiso   1.00
H1223  H     0.57568   0.09696   0.65181   0.00000  Uiso   1.00
H1224  H     0.62649   0.10293   0.63330   0.00000  Uiso   1.00
H1225  H     0.41220   0.25870   0.84912   0.00000  Uiso   1.00
H1226  H     0.40908   0.19700   0.83802   0.00000  Uiso   1.00
H1227  H     0.36610   0.22904   0.85987   0.00000  Uiso   1.00
H1228  H     0.43497   0.08847   0.66655   0.00000  Uiso   1.00
H1229  H     0.41283   0.03400   0.67850   0.00000  Uiso   1.00
H1230  H     0.42869   0.00339   0.60196   0.00000  Uiso   1.00
H1231  H     0.40279   0.05721   0.59735   0.00000  Uiso   1.00
H1232  H     0.45773   0.05418   0.59308   0.00000  Uiso   1.00
N1233  N     0.50000   0.28402   0.75000   0.00000  Uiso   1.00
N1234  N     0.50000   0.04931   0.75000   0.00000  Uiso   1.00
O1235  O     0.43988   0.20625   0.74999   0.00000  Uiso   1.00
O1236  O     0.54151   0.28827   0.81740   0.00000  Uiso   1.00
O1237  O     0.55004   0.05224   0.80968   0.00000  Uiso   1.00
O1238  O     0.43516   0.28876   0.71141   0.00000  Uiso   1.00
O1239  O     0.57250   0.20414   0.53181   0.00000  Uiso   1.00
O1240  O     0.55599   0.10605   0.97582   0.00000  Uiso   1.00
O1241  O     0.46051   0.23224   0.97994   0.00000  Uiso   1.00
O1242  O     0.43781   0.13164   0.51855   0.00000  Uiso   1.00
O1243  O     0.36878   0.11303   0.68577   0.00000  Uiso   1.00
O1244  O     0.62792   0.23357   0.80314   0.00000  Uiso   1.00
O1245  O     0.62137   0.09852   0.70121   0.00000  Uiso   1.00
O1246  O     0.56012   0.12709   0.75000   0.00000  Uiso   1.00
O1247  O     0.37729   0.23968   0.79351   0.00000  Uiso   1.00
O1248  O     0.56012   0.20625   0.75000   0.00000  Uiso   1.00
O1249  O     0.43988   0.12709   0.74999   0.00000  Uiso   1.00
O1250  O     0.50000   0.20626   0.68573   0.00000  Uiso   1.00
O1251  O     0.50000   0.12707   0.81427   0.00000  Uiso   1.00
O1252  O     0.50000   0.20626   0.81427   0.00000  Uiso   1.00
O1253  O     0.50000   0.12707   0.68573   0.00000  Uiso   1.00
O1254  O     0.47737   0.03837   0.67447   0.00000  Uiso   1.00
C1255  C     0.75401   0.16678   0.74885   0.00000  Uiso   1.00
C1256  C     0.97994   0.20070   0.77654   0.00000  Uiso   1.00
C1257  C     0.97654   0.13382   0.72440   0.00000  Uiso   1.00
C1258  C     0.68927   0.20172   0.77477   0.00000  Uiso   1.00
C1259  C     0.87308   0.18394   0.55172   0.00000  Uiso   1.00
C1260  C     0.86371   0.13585   0.95235   0.00000  Uiso   1.00
C1261  C     0.81486   0.19985   0.95453   0.00000  Uiso   1.00
C1262  C     0.80535   0.14699   0.54400   0.00000  Uiso   1.00
C1263  C     0.87017   0.18513   0.59813   0.00000  Uiso   1.00
C1264  C     0.86168   0.13646   0.90567   0.00000  Uiso   1.00
C1265  C     0.81372   0.20001   0.90797   0.00000  Uiso   1.00
C1266  C     0.91242   0.16675   0.75107   0.00000  Uiso   1.00
C1267  C     0.80387   0.14739   0.59003   0.00000  Uiso   1.00
C1268  C     0.83639   0.16523   0.61708   0.00000  Uiso   1.00
C1269  C     0.83643   0.16810   0.88360   0.00000  Uiso   1.00
C1270  C     0.83990   0.16589   0.52476   0.00000  Uiso   1.00
C1271  C     0.84051   0.16815   0.97635   0.00000  Uiso   1.00
C1272  C     0.95692   0.16665   0.75142   0.00000  Uiso   1.00
C1273  C     0.70909   0.16782   0.74870   0.00000  Uiso   1.00
C1274  C     0.77077   0.05085   0.66053   0.00000  Uiso   1.00
C1275  C     0.76458   0.04081   0.61042   0.00000  Uiso   1.00
C1276  C     0.85494   0.30091   0.85693   0.00000  Uiso   1.00
C1277  C     0.83400   0.16606   0.66516   0.00000  Uiso   1.00
C1278  C     0.88030   0.28556   0.89734   0.00000  Uiso   1.00
C1279  C     0.92473   0.04237   0.80137   0.00000  Uiso   1.00
C1280  C     0.95250   0.07440   0.83077   0.00000  Uiso   1.00
C1281  C     0.76423   0.26855   0.66801   0.00000  Uiso   1.00
C1282  C     0.71974   0.27185   0.65042   0.00000  Uiso   1.00
C1283  C     0.94331   0.18596   0.54856   0.00000  Uiso   1.00
C1284  C     0.88604   0.06019   0.95796   0.00000  Uiso   1.00
C1285  C     0.75248   0.23540   0.96449   0.00000  Uiso   1.00
C1286  C     0.77879   0.08783   0.99821   0.00000  Uiso   1.00
C1287  C     0.70393   0.14404   0.65056   0.00000  Uiso   1.00
C1288  C     0.83402   0.16731   0.83503   0.00000  Uiso   1.00
C1289  C     0.95112   0.21326   0.84317   0.00000  Uiso   1.00
C1290  C     0.93916   0.11393   0.65980   0.00000  Uiso   1.00
C1291  C     0.72488   0.22992   0.83694   0.00000  Uiso   1.00
C1292  C     0.81220   0.02281   0.71726   0.00000  Uiso   1.00
C1293  C     0.85574   0.31010   0.78194   0.00000  Uiso   1.00
C1294  C     0.85768   0.02648   0.78014   0.00000  Uiso   1.00
C1295  C     0.80740   0.30720   0.72134   0.00000  Uiso   1.00
C1296  C     0.68549   0.13633   0.72115   0.00000  Uiso   1.00
Cu1297 Cu    0.83333   0.21355   0.75000   0.00000  Uiso   1.00
Cu1298 Cu    0.83333   0.11978   0.75000   0.00000  Uiso   1.00
H1299  H     0.89380   0.20206   0.61942   0.00000  Uiso   1.00
H1300  H     0.82413   0.28456   0.85625   0.00000  Uiso   1.00
H1301  H     0.85060   0.00551   0.86189   0.00000  Uiso   1.00
H1302  H     0.91036   0.30384   0.89949   0.00000  Uiso   1.00
H1303  H     0.86393   0.29395   0.92804   0.00000  Uiso   1.00
H1304  H     0.88542   0.24773   0.89517   0.00000  Uiso   1.00
H1305  H     0.93107   0.04785   0.76600   0.00000  Uiso   1.00
H1306  H     0.93289   0.00624   0.80932   0.00000  Uiso   1.00
H1307  H     0.98481   0.07015   0.82161   0.00000  Uiso   1.00
H1308  H     0.94338   0.11091   0.82656   0.00000  Uiso   1.00
H1309  H     0.95008   0.06601   0.86620   0.00000  Uiso   1.00
H1310  H     0.88023   0.11301   0.88645   0.00000  Uiso   1.00
H1311  H     0.76937   0.23117   0.66939   0.00000  Uiso   1.00
H1312  H     0.78573   0.28288   0.64451   0.00000  Uiso   1.00
H1313  H     0.71632   0.25506   0.61663   0.00000  Uiso   1.00
H1314  H     0.69942   0.25363   0.67270   0.00000  Uiso   1.00
H1315  H     0.70949   0.30818   0.64855   0.00000  Uiso   1.00
H1316  H     0.94200   0.14760   0.55144   0.00000  Uiso   1.00
H1317  H     0.95290   0.20313   0.58106   0.00000  Uiso   1.00
H1318  H     0.96733   0.19346   0.52502   0.00000  Uiso   1.00
H1319  H     0.89682   0.03631   0.98398   0.00000  Uiso   1.00
H1320  H     0.90621   0.05529   0.92962   0.00000  Uiso   1.00
H1321  H     0.79547   0.22513   0.89087   0.00000  Uiso   1.00
H1322  H     0.85387   0.05008   0.94781   0.00000  Uiso   1.00
H1323  H     0.73874   0.20098   0.95421   0.00000  Uiso   1.00
H1324  H     0.74946   0.25973   0.93688   0.00000  Uiso   1.00
H1325  H     0.73455   0.24987   0.99204   0.00000  Uiso   1.00
H1326  H     0.78613   0.09211   0.96303   0.00000  Uiso   1.00
H1327  H     0.75036   0.06664   0.99811   0.00000  Uiso   1.00
H1328  H     0.80361   0.06781   0.51538   0.00000  Uiso   1.00
H1329  H     0.67707   0.16758   0.64747   0.00000  Uiso   1.00
H1330  H     0.70454   0.12389   0.61863   0.00000  Uiso   1.00
H1331  H     0.73226   0.16520   0.65482   0.00000  Uiso   1.00
H1332  H     0.77676   0.13477   0.60453   0.00000  Uiso   1.00
H1333  H     0.91934   0.19947   0.84007   0.00000  Uiso   1.00
H1334  H     0.95306   0.24048   0.87011   0.00000  Uiso   1.00
H1335  H     0.97225   0.18514   0.85392   0.00000  Uiso   1.00
H1336  H     0.93449   0.15205   0.65918   0.00000  Uiso   1.00
H1337  H     0.90901   0.09696   0.65181   0.00000  Uiso   1.00
H1338  H     0.95982   0.10293   0.63330   0.00000  Uiso   1.00
H1339  H     0.74554   0.25870   0.84912   0.00000  Uiso   1.00
H1340  H     0.74241   0.19700   0.83802   0.00000  Uiso   1.00
H1341  H     0.69944   0.22904   0.85987   0.00000  Uiso   1.00
H1342  H     0.76831   0.08847   0.66655   0.00000  Uiso   1.00
H1343  H     0.74617   0.03400   0.67850   0.00000  Uiso   1.00
H1344  H     0.76202   0.00339   0.60196   0.00000  Uiso   1.00
H1345  H     0.73612   0.05721   0.59735   0.00000  Uiso   1.00
H1346  H     0.79107   0.05418   0.59308   0.00000  Uiso   1.00
N1347  N     0.83333   0.28402   0.75000   0.00000  Uiso   1.00
N1348  N     0.83333   0.04931   0.75000   0.00000  Uiso   1.00
O1349  O     0.77321   0.20625   0.74999   0.00000  Uiso   1.00
O1350  O     0.87484   0.28827   0.81740   0.00000  Uiso   1.00
O1351  O     0.88337   0.05224   0.80968   0.00000  Uiso   1.00
O1352  O     0.76849   0.28876   0.71141   0.00000  Uiso   1.00
O1353  O     0.90583   0.20414   0.53181   0.00000  Uiso   1.00
O1354  O     0.88932   0.10605   0.97582   0.00000  Uiso   1.00
O1355  O     0.79385   0.23224   0.97994   0.00000  Uiso   1.00
O1356  O     0.77114   0.13164   0.51855   0.00000  Uiso   1.00
O1357  O     0.70211   0.11303   0.68577   0.00000  Uiso   1.00
O1358  O     0.96126   0.23357   0.80314   0.00000  Uiso   1.00
O1359  O     0.95470   0.09852   0.70121   0.00000  Uiso   1.00
O1360  O     0.89345   0.12709   0.75000   0.00000  Uiso   1.00
O1361  O     0.71063   0.23968   0.79351   0.00000  Uiso   1.00
O1362  O     0.89345   0.20625   0.75000   0.00000  Uiso   1.00
O1363  O     0.77321   0.12709   0.74999   0.00000  Uiso   1.00
O1364  O     0.83333   0.20626   0.68573   0.00000  Uiso   1.00
O1365  O     0.83334   0.12707   0.81427   0.00000  Uiso   1.00
O1366  O     0.83334   0.20626   0.81427   0.00000  Uiso   1.00
O1367  O     0.83333   0.12707   0.68573   0.00000  Uiso   1.00
O1368  O     0.81070   0.03837   0.67447   0.00000  Uiso   1.00
C1369  C     0.08734   0.50011   0.74885   0.00000  Uiso   1.00
C1370  C     0.31327   0.53404   0.77654   0.00000  Uiso   1.00
C1371  C     0.30987   0.46716   0.72440   0.00000  Uiso   1.00
C1372  C     0.02260   0.53506   0.77477   0.00000  Uiso   1.00
C1373  C     0.20641   0.51727   0.55172   0.00000  Uiso   1.00
C1374  C     0.19705   0.46918   0.95235   0.00000  Uiso   1.00
C1375  C     0.14819   0.53319   0.95453   0.00000  Uiso   1.00
C1376  C     0.13868   0.48032   0.54400   0.00000  Uiso   1.00
C1377  C     0.20351   0.51846   0.59813   0.00000  Uiso   1.00
C1378  C     0.19501   0.46979   0.90567   0.00000  Uiso   1.00
C1379  C     0.14705   0.53334   0.90797   0.00000  Uiso   1.00
C1380  C     0.24575   0.50009   0.75107   0.00000  Uiso   1.00
C1381  C     0.13720   0.48072   0.59003   0.00000  Uiso   1.00
C1382  C     0.16973   0.49857   0.61708   0.00000  Uiso   1.00
C1383  C     0.16976   0.50144   0.88360   0.00000  Uiso   1.00
C1384  C     0.17324   0.49923   0.52476   0.00000  Uiso   1.00
C1385  C     0.17384   0.50149   0.97635   0.00000  Uiso   1.00
C1386  C     0.29025   0.49998   0.75142   0.00000  Uiso   1.00
C1387  C     0.04243   0.50116   0.74870   0.00000  Uiso   1.00
C1388  C     0.10410   0.38418   0.66053   0.00000  Uiso   1.00
C1389  C     0.09791   0.37415   0.61042   0.00000  Uiso   1.00
C1390  C     0.18828   0.63424   0.85693   0.00000  Uiso   1.00
C1391  C     0.16733   0.49940   0.66516   0.00000  Uiso   1.00
C1392  C     0.21364   0.61889   0.89734   0.00000  Uiso   1.00
C1393  C     0.25806   0.37571   0.80137   0.00000  Uiso   1.00
C1394  C     0.28583   0.40773   0.83077   0.00000  Uiso   1.00
C1395  C     0.09756   0.60188   0.66801   0.00000  Uiso   1.00
C1396  C     0.05308   0.60518   0.65042   0.00000  Uiso   1.00
C1397  C     0.27664   0.51929   0.54856   0.00000  Uiso   1.00
C1398  C     0.21937   0.39352   0.95796   0.00000  Uiso   1.00
C1399  C     0.08581   0.56873   0.96449   0.00000  Uiso   1.00
C1400  C     0.11212   0.42116   0.99821   0.00000  Uiso   1.00
C1401  C     0.03726   0.47737   0.65056   0.00000  Uiso   1.00
C1402  C     0.16735   0.50064   0.83503   0.00000  Uiso   1.00
C1403  C     0.28446   0.54659   0.84317   0.00000  Uiso   1.00
C1404  C     0.27249   0.44726   0.65980   0.00000  Uiso   1.00
C1405  C     0.05821   0.56325   0.83694   0.00000  Uiso   1.00
C1406  C     0.14553   0.35615   0.71726   0.00000  Uiso   1.00
C1407  C     0.18907   0.64343   0.78194   0.00000  Uiso   1.00
C1408  C     0.19102   0.35981   0.78014   0.00000  Uiso   1.00
C1409  C     0.14074   0.64053   0.72134   0.00000  Uiso   1.00
C1410  C     0.01882   0.46966   0.72115   0.00000  Uiso   1.00
Cu1411 Cu    0.16667   0.54689   0.75000   0.00000  Uiso   1.00
Cu1412 Cu    0.16667   0.45311   0.75000   0.00000  Uiso   1.00
H1413  H     0.22713   0.53540   0.61942   0.00000  Uiso   1.00
H1414  H     0.15746   0.61790   0.85625   0.00000  Uiso   1.00
H1415  H     0.18394   0.33884   0.86189   0.00000  Uiso   1.00
H1416  H     0.24370   0.63717   0.89949   0.00000  Uiso   1.00
H1417  H     0.19726   0.62728   0.92804   0.00000  Uiso   1.00
H1418  H     0.21875   0.58107   0.89517   0.00000  Uiso   1.00
H1419  H     0.26441   0.38118   0.76600   0.00000  Uiso   1.00
H1420  H     0.26622   0.33957   0.80932   0.00000  Uiso   1.00
H1421  H     0.31814   0.40348   0.82161   0.00000  Uiso   1.00
H1422  H     0.27672   0.44425   0.82656   0.00000  Uiso   1.00
H1423  H     0.28341   0.39934   0.86620   0.00000  Uiso   1.00
H1424  H     0.21357   0.44634   0.88645   0.00000  Uiso   1.00
H1425  H     0.10270   0.56451   0.66939   0.00000  Uiso   1.00
H1426  H     0.11906   0.61621   0.64451   0.00000  Uiso   1.00
H1427  H     0.04966   0.58839   0.61663   0.00000  Uiso   1.00
H1428  H     0.03275   0.58696   0.67270   0.00000  Uiso   1.00
H1429  H     0.04282   0.64151   0.64855   0.00000  Uiso   1.00
H1430  H     0.27534   0.48093   0.55144   0.00000  Uiso   1.00
H1431  H     0.28624   0.53646   0.58106   0.00000  Uiso   1.00
H1432  H     0.30066   0.52679   0.52502   0.00000  Uiso   1.00
H1433  H     0.23016   0.36964   0.98398   0.00000  Uiso   1.00
H1434  H     0.23955   0.38863   0.92962   0.00000  Uiso   1.00
H1435  H     0.12880   0.55846   0.89087   0.00000  Uiso   1.00
H1436  H     0.18721   0.38342   0.94781   0.00000  Uiso   1.00
H1437  H     0.07207   0.53431   0.95421   0.00000  Uiso   1.00
H1438  H     0.08279   0.59307   0.93688   0.00000  Uiso   1.00
H1439  H     0.06788   0.58320   0.99204   0.00000  Uiso   1.00
H1440  H     0.11947   0.42544   0.96303   0.00000  Uiso   1.00
H1441  H     0.08369   0.39998   0.99811   0.00000  Uiso   1.00
H1442  H     0.13694   0.40115   0.51538   0.00000  Uiso   1.00
H1443  H     0.01041   0.50092   0.64747   0.00000  Uiso   1.00
H1444  H     0.03787   0.45722   0.61863   0.00000  Uiso   1.00
H1445  H     0.06559   0.49853   0.65482   0.00000  Uiso   1.00
H1446  H     0.11009   0.46810   0.60453   0.00000  Uiso   1.00
H1447  H     0.25268   0.53281   0.84007   0.00000  Uiso   1.00
H1448  H     0.28639   0.57381   0.87011   0.00000  Uiso   1.00
H1449  H     0.30559   0.51847   0.85392   0.00000  Uiso   1.00
H1450  H     0.26782   0.48538   0.65918   0.00000  Uiso   1.00
H1451  H     0.24235   0.43030   0.65181   0.00000  Uiso   1.00
H1452  H     0.29316   0.43626   0.63330   0.00000  Uiso   1.00
H1453  H     0.07887   0.59204   0.84912   0.00000  Uiso   1.00
H1454  H     0.07574   0.53033   0.83802   0.00000  Uiso   1.00
H1455  H     0.03277   0.56238   0.85987   0.00000  Uiso   1.00
H1456  H     0.10164   0.42181   0.66655   0.00000  Uiso   1.00
H1457  H     0.07950   0.36734   0.67850   0.00000  Uiso   1.00
H1458  H     0.09535   0.33672   0.60196   0.00000  Uiso   1.00
H1459  H     0.06946   0.39054   0.59735   0.00000  Uiso   1.00
H1460  H     0.12440   0.38751   0.59308   0.00000  Uiso   1.00
N1461  N     0.16667   0.61736   0.75000   0.00000  Uiso   1.00
N1462  N     0.16667   0.38264   0.75000   0.00000  Uiso   1.00
O1463  O     0.10655   0.53958   0.74999   0.00000  Uiso   1.00
O1464  O     0.20818   0.62160   0.81740   0.00000  Uiso   1.00
O1465  O     0.21670   0.38558   0.80968   0.00000  Uiso   1.00
O1466  O     0.10183   0.62209   0.71141   0.00000  Uiso   1.00
O1467  O     0.23917   0.53747   0.53181   0.00000  Uiso   1.00
O1468  O     0.22266   0.43939   0.97582   0.00000  Uiso   1.00
O1469  O     0.12718   0.56557   0.97994   0.00000  Uiso   1.00
O1470  O     0.10447   0.46497   0.51855   0.00000  Uiso   1.00
O1471  O     0.03544   0.44636   0.68577   0.00000  Uiso   1.00
O1472  O     0.29459   0.56690   0.80314   0.00000  Uiso   1.00
O1473  O     0.28803   0.43186   0.70121   0.00000  Uiso   1.00
O1474  O     0.22679   0.46042   0.75000   0.00000  Uiso   1.00
O1475  O     0.04396   0.57301   0.79351   0.00000  Uiso   1.00
O1476  O     0.22679   0.53958   0.75000   0.00000  Uiso   1.00
O1477  O     0.10655   0.46042   0.74999   0.00000  Uiso   1.00
O1478  O     0.16666   0.53959   0.68573   0.00000  Uiso   1.00
O1479  O     0.16667   0.46041   0.81427   0.00000  Uiso   1.00
O1480  O     0.16667   0.53959   0.81427   0.00000  Uiso   1.00
O1481  O     0.16666   0.46041   0.68573   0.00000  Uiso   1.00
O1482  O     0.14404   0.37170   0.67447   0.00000  Uiso   1.00
C1483  C     0.42068   0.50011   0.74885   0.00000  Uiso   1.00
C1484  C     0.64661   0.53404   0.77654   0.00000  Uiso   1.00
C1485  C     0.64321   0.46716   0.72440   0.00000  Uiso   1.00
C1486  C     0.35594   0.53506   0.77477   0.00000  Uiso   1.00
C1487  C     0.53974   0.51727   0.55172   0.00000  Uiso   1.00
C1488  C     0.53038   0.46918   0.95235   0.00000  Uiso   1.00
C1489  C     0.48152   0.53319   0.95453   0.00000  Uiso   1.00
C1490  C     0.47201   0.48032   0.54400   0.00000  Uiso   1.00
C1491  C     0.53684   0.51846   0.59813   0.00000  Uiso   1.00
C1492  C     0.52835   0.46979   0.90567   0.00000  Uiso   1.00
C1493  C     0.48039   0.53334   0.90797   0.00000  Uiso   1.00
C1494  C     0.57908   0.50009   0.75107   0.00000  Uiso   1.00
C1495  C     0.47054   0.48072   0.59003   0.00000  Uiso   1.00
C1496  C     0.50306   0.49857   0.61708   0.00000  Uiso   1.00
C1497  C     0.50309   0.50144   0.88360   0.00000  Uiso   1.00
C1498  C     0.50657   0.49923   0.52476   0.00000  Uiso   1.00
C1499  C     0.50717   0.50149   0.97635   0.00000  Uiso   1.00
C1500  C     0.62359   0.49998   0.75142   0.00000  Uiso   1.00
C1501  C     0.37576   0.50116   0.74870   0.00000  Uiso   1.00
C1502  C     0.43744   0.38418   0.66053   0.00000  Uiso   1.00
C1503  C     0.43125   0.37415   0.61042   0.00000  Uiso   1.00
C1504  C     0.52161   0.63424   0.85693   0.00000  Uiso   1.00
C1505  C     0.50067   0.49940   0.66516   0.00000  Uiso   1.00
C1506  C     0.54697   0.61889   0.89734   0.00000  Uiso   1.00
C1507  C     0.59139   0.37571   0.80137   0.00000  Uiso   1.00
C1508  C     0.61916   0.40773   0.83077   0.00000  Uiso   1.00
C1509  C     0.43090   0.60188   0.66801   0.00000  Uiso   1.00
C1510  C     0.38641   0.60518   0.65042   0.00000  Uiso   1.00
C1511  C     0.60997   0.51929   0.54856   0.00000  Uiso   1.00
C1512  C     0.55271   0.39352   0.95796   0.00000  Uiso   1.00
C1513  C     0.41915   0.56873   0.96449   0.00000  Uiso   1.00
C1514  C     0.44546   0.42116   0.99821   0.00000  Uiso   1.00
C1515  C     0.37060   0.47737   0.65056   0.00000  Uiso   1.00
C1516  C     0.50069   0.50064   0.83503   0.00000  Uiso   1.00
C1517  C     0.61779   0.54659   0.84317   0.00000  Uiso   1.00
C1518  C     0.60582   0.44726   0.65980   0.00000  Uiso   1.00
C1519  C     0.39155   0.56325   0.83694   0.00000  Uiso   1.00
C1520  C     0.47886   0.35615   0.71726   0.00000  Uiso   1.00
C1521  C     0.52240   0.64343   0.78194   0.00000  Uiso   1.00
C1522  C     0.52435   0.35981   0.78014   0.00000  Uiso   1.00
C1523  C     0.47407   0.64053   0.72134   0.00000  Uiso   1.00
C1524  C     0.35215   0.46966   0.72115   0.00000  Uiso   1.00
Cu1525 Cu    0.50000   0.54689   0.75000   0.00000  Uiso   1.00
Cu1526 Cu    0.50000   0.45311   0.75000   0.00000  Uiso   1.00
H1527  H     0.56047   0.53540   0.61942   0.00000  Uiso   1.00
H1528  H     0.49080   0.61790   0.85625   0.00000  Uiso   1.00
H1529  H     0.51727   0.33884   0.86189   0.00000  Uiso   1.00
H1530  H     0.57703   0.63717   0.89949   0.00000  Uiso   1.00
H1531  H     0.53059   0.62728   0.92804   0.00000  Uiso   1.00
H1532  H     0.55208   0.58107   0.89517   0.00000  Uiso   1.00
H1533  H     0.59774   0.38118   0.76600   0.00000  Uiso   1.00
H1534  H     0.59955   0.33957   0.80932   0.00000  Uiso   1.00
H1535  H     0.65147   0.40348   0.82161   0.00000  Uiso   1.00
H1536  H     0.61005   0.44425   0.82656   0.00000  Uiso   1.00
H1537  H     0.61675   0.39934   0.86620   0.00000  Uiso   1.00
H1538  H     0.54690   0.44634   0.88645   0.00000  Uiso   1.00
H1539  H     0.43603   0.56451   0.66939   0.00000  Uiso   1.00
H1540  H     0.45239   0.61621   0.64451   0.00000  Uiso   1.00
H1541  H     0.38299   0.58839   0.61663   0.00000  Uiso   1.00
H1542  H     0.36609   0.58696   0.67270   0.00000  Uiso   1.00
H1543  H     0.37616   0.64151   0.64855   0.00000  Uiso   1.00
H1544  H     0.60867   0.48093   0.55144   0.00000  Uiso   1.00
H1545  H     0.61957   0.53646   0.58106   0.00000  Uiso   1.00
H1546  H     0.63400   0.52679   0.52502   0.00000  Uiso   1.00
H1547  H     0.56349   0.36964   0.98398   0.00000  Uiso   1.00
H1548  H     0.57288   0.38863   0.92962   0.00000  Uiso   1.00
H1549  H     0.46213   0.55846   0.89087   0.00000  Uiso   1.00
H1550  H     0.52054   0.38342   0.94781   0.00000  Uiso   1.00
H1551  H     0.40540   0.53431   0.95421   0.00000  Uiso   1.00
H1552  H     0.41612   0.59307   0.93688   0.00000  Uiso   1.00
H1553  H     0.40121   0.58320   0.99204   0.00000  Uiso   1.00
H1554  H     0.45280   0.42544   0.96303   0.00000  Uiso   1.00
H1555  H     0.41702   0.39998   0.99811   0.00000  Uiso   1.00
H1556  H     0.47028   0.40115   0.51538   0.00000  Uiso   1.00
H1557  H     0.34374   0.50092   0.64747   0.00000  Uiso   1.00
H1558  H     0.37120   0.45722   0.61863   0.00000  Uiso   1.00
H1559  H     0.39892   0.49853   0.65482   0.00000  Uiso   1.00
H1560  H     0.44342   0.46810   0.60453   0.00000  Uiso   1.00
H1561  H     0.58601   0.53281   0.84007   0.00000  Uiso   1.00
H1562  H     0.61972   0.57381   0.87011   0.00000  Uiso   1.00
H1563  H     0.63892   0.51847   0.85392   0.00000  Uiso   1.00
H1564  H     0.60115   0.48538   0.65918   0.00000  Uiso   1.00
H1565  H     0.57568   0.43030   0.65181   0.00000  Uiso   1.00
H1566  H     0.62649   0.43626   0.63330   0.00000  Uiso   1.00
H1567  H     0.41220   0.59204   0.84912   0.00000  Uiso   1.00
H1568  H     0.40908   0.53033   0.83802   0.00000  Uiso   1.00
H1569  H     0.36610   0.56238   0.85987   0.00000  Uiso   1.00
H1570  H     0.43497   0.42181   0.66655   0.00000  Uiso   1.00
H1571  H     0.41283   0.36734   0.67850   0.00000  Uiso   1.00
H1572  H     0.42869   0.33672   0.60196   0.00000  Uiso   1.00
H1573  H     0.40279   0.39054   0.59735   0.00000  Uiso   1.00
H1574  H     0.45773   0.38751   0.59308   0.00000  Uiso   1.00
N1575  N     0.50000   0.61736   0.75000   0.00000  Uiso   1.00
N1576  N     0.50000   0.38264   0.75000   0.00000  Uiso   1.00
O1577  O     0.43988   0.53958   0.74999   0.00000  Uiso   1.00
O1578  O     0.54151   0.62160   0.81740   0.00000  Uiso   1.00
O1579  O     0.55004   0.38558   0.80968   0.00000  Uiso   1.00
O1580  O     0.43516   0.62209   0.71141   0.00000  Uiso   1.00
O1581  O     0.57250   0.53747   0.53181   0.00000  Uiso   1.00
O1582  O     0.55599   0.43939   0.97582   0.00000  Uiso   1.00
O1583  O     0.46051   0.56557   0.97994   0.00000  Uiso   1.00
O1584  O     0.43781   0.46497   0.51855   0.00000  Uiso   1.00
O1585  O     0.36878   0.44636   0.68577   0.00000  Uiso   1.00
O1586  O     0.62792   0.56690   0.80314   0.00000  Uiso   1.00
O1587  O     0.62137   0.43186   0.70121   0.00000  Uiso   1.00
O1588  O     0.56012   0.46042   0.75000   0.00000  Uiso   1.00
O1589  O     0.37729   0.57301   0.79351   0.00000  Uiso   1.00
O1590  O     0.56012   0.53958   0.75000   0.00000  Uiso   1.00
O1591  O     0.43988   0.46042   0.74999   0.00000  Uiso   1.00
O1592  O     0.50000   0.53959   0.68573   0.00000  Uiso   1.00
O1593  O     0.50000   0.46041   0.81427   0.00000  Uiso   1.00
O1594  O     0.50000   0.53959   0.81427   0.00000  Uiso   1.00
O1595  O     0.50000   0.46041   0.68573   0.00000  Uiso   1.00
O1596  O     0.47737   0.37170   0.67447   0.00000  Uiso   1.00
C1597  C     0.75401   0.50011   0.74885   0.00000  Uiso   1.00
C1598  C     0.97994   0.53404   0.77654   0.00000  Uiso   1.00
C1599  C     0.97654   0.46716   0.72440   0.00000  Uiso   1.00
C1600  C     0.68927   0.53506   0.77477   0.00000  Uiso   1.00
C1601  C     0.87308   0.51727   0.55172   0.00000  Uiso   1.00
C1602  C     0.86371   0.46918   0.95235   0.00000  Uiso   1.00
C1603  C     0.81486   0.53319   0.95453   0.00000  Uiso   1.00
C1604  C     0.80535   0.48032   0.54400   0.00000  Uiso   1.00
C1605  C     0.87017   0.51846   0.59813   0.00000  Uiso   1.00
C1606  C     0.86168   0.46979   0.90567   0.00000  Uiso   1.00
C1607  C     0.81372   0.53334   0.90797   0.00000  Uiso   1.00
C1608  C     0.91242   0.50009   0.75107   0.00000  Uiso   1.00
C1609  C     0.80387   0.48072   0.59003   0.00000  Uiso   1.00
C1610  C     0.83639   0.49857   0.61708   0.00000  Uiso   1.00
C1611  C     0.83643   0.50144   0.88360   0.00000  Uiso   1.00
C1612  C     0.83990   0.49923   0.52476   0.00000  Uiso   1.00
C1613  C     0.84051   0.50149   0.97635   0.00000  Uiso   1.00
C1614  C     0.95692   0.49998   0.75142   0.00000  Uiso   1.00
C1615  C     0.70909   0.50116   0.74870   0.00000  Uiso   1.00
C1616  C     0.77077   0.38418   0.66053   0.00000  Uiso   1.00
C1617  C     0.76458   0.37415   0.61042   0.00000  Uiso   1.00
C1618  C     0.85494   0.63424   0.85693   0.00000  Uiso   1.00
C1619  C     0.83400   0.49940   0.66516   0.00000  Uiso   1.00
C1620  C     0.88030   0.61889   0.89734   0.00000  Uiso   1.00
C1621  C     0.92473   0.37571   0.80137   0.00000  Uiso   1.00
C1622  C     0.95250   0.40773   0.83077   0.00000  Uiso   1.00
C1623  C     0.76423   0.60188   0.66801   0.00000  Uiso   1.00
C1624  C     0.71974   0.60518   0.65042   0.00000  Uiso   1.00
C1625  C     0.94331   0.51929   0.54856   0.00000  Uiso   1.00
C1626  C     0.88604   0.39352   0.95796   0.00000  Uiso   1.00
C1627  C     0.75248   0.56873   0.96449   0.00000  Uiso   1.00
C1628  C     0.77879   0.42116   0.99821   0.00000  Uiso   1.00
C1629  C     0.70393   0.47737   0.65056   0.00000  Uiso   1.00
C1630  C     0.83402   0.50064   0.83503   0.00000  Uiso   1.00
C1631  C     0.95112   0.54659   0.84317   0.00000  Uiso   1.00
C1632  C     0.93916   0.44726   0.65980   0.00000  Uiso   1.00
C1633  C     0.72488   0.56325   0.83694   0.00000  Uiso   1.00
C1634  C     0.81220   0.35615   0.71726   0.00000  Uiso   1.00
C1635  C     0.85574   0.64343   0.78194   0.00000  Uiso   1.00
C1636  C     0.85768   0.35981   0.78014   0.00000  Uiso   1.00
C1637  C     0.80740   0.64053   0.72134   0.00000  Uiso   1.00
C1638  C     0.68549   0.46966   0.72115   0.00000  Uiso   1.00
Cu1639 Cu    0.83333   0.54689   0.75000   0.00000  Uiso   1.00
Cu1640 Cu    0.83333   0.45311   0.75000   0.00000  Uiso   1.00
H1641  H     0.89380   0.53540   0.61942   0.00000  Uiso   1.00
H1642  H     0.82413   0.61790   0.85625   0.00000  Uiso   1.00
H1643  H     0.85060   0.33884   0.86189   0.00000  Uiso   1.00
H1644  H     0.91036   0.63717   0.89949   0.00000  Uiso   1.00
H1645  H     0.86393   0.62728   0.92804   0.00000  Uiso   1.00
H1646  H     0.88542   0.58107   0.89517   0.00000  Uiso   1.00
H1647  H     0.93107   0.38118   0.76600   0.00000  Uiso   1.00
H1648  H     0.93289   0.33957   0.80932   0.00000  Uiso   1.00
H1649  H     0.98481   0.40348   0.82161   0.00000  Uiso   1.00
H1650  H     0.94338   0.44425   0.82656   0.00000  Uiso   1.00
H1651  H     0.95008   0.39934   0.86620   0.00000  Uiso   1.00
H1652  H     0.88023   0.44634   0.88645   0.00000  Uiso   1.00
H1653  H     0.76937   0.56451   0.66939   0.00000  Uiso   1.00
H1654  H     0.78573   0.61621   0.64451   0.00000  Uiso   1.00
H1655  H     0.71632   0.58839   0.61663   0.00000  Uiso   1.00
H1656  H     0.69942   0.58696   0.67270   0.00000  Uiso   1.00
H1657  H     0.70949   0.64151   0.64855   0.00000  Uiso   1.00
H1658  H     0.94200   0.48093   0.55144   0.00000  Uiso   1.00
H1659  H     0.95290   0.53646   0.58106   0.00000  Uiso   1.00
H1660  H     0.96733   0.52679   0.52502   0.00000  Uiso   1.00
H1661  H     0.89682   0.36964   0.98398   0.00000  Uiso   1.00
H1662  H     0.90621   0.38863   0.92962   0.00000  Uiso   1.00
H1663  H     0.79547   0.55846   0.89087   0.00000  Uiso   1.00
H1664  H     0.85387   0.38342   0.94781   0.00000  Uiso   1.00
H1665  H     0.73874   0.53431   0.95421   0.00000  Uiso   1.00
H1666  H     0.74946   0.59307   0.93688   0.00000  Uiso   1.00
H1667  H     0.73455   0.58320   0.99204   0.00000  Uiso   1.00
H1668  H     0.78613   0.42544   0.96303   0.00000  Uiso   1.00
H1669  H     0.75036   0.39998   0.99811   0.00000  Uiso   1.00
H1670  H     0.80361   0.40115   0.51538   0.00000  Uiso   1.00
H1671  H     0.67707   0.50092   0.64747   0.00000  Uiso   1.00
H1672  H     0.70454   0.45722   0.61863   0.00000  Uiso   1.00
H1673  H     0.73226   0.49853   0.65482   0.00000  Uiso   1.00
H1674  H     0.77676   0.46810   0.60453   0.00000  Uiso   1.00
H1675  H     0.91934   0.53281   0.84007   0.00000  Uiso   1.00
H1676  H     0.95306   0.57381   0.87011   0.00000  Uiso   1.00
H1677  H     0.97225   0.51847   0.85392   0.00000  Uiso   1.00
H1678  H     0.93449   0.48538   0.65918   0.00000  Uiso   1.00
H1679  H     0.90901   0.43030   0.65181   0.00000  Uiso   1.00
H1680  H     0.95982   0.43626   0.63330   0.00000  Uiso   1.00
H1681  H     0.74554   0.59204   0.84912   0.00000  Uiso   1.00
H1682  H     0.74241   0.53033   0.83802   0.00000  Uiso   1.00
H1683  H     0.69944   0.56238   0.85987   0.00000  Uiso   1.00
H1684  H     0.76831   0.42181   0.66655   0.00000  Uiso   1.00
H1685  H     0.74617   0.36734   0.67850   0.00000  Uiso   1.00
H1686  H     0.76202   0.33672   0.60196   0.00000  Uiso   1.00
H1687  H     0.73612   0.39054   0.59735   0.00000  Uiso   1.00
H1688  H     0.79107   0.38751   0.59308   0.00000  Uiso   1.00
N1689  N     0.83333   0.61736   0.75000   0.00000  Uiso   1.00
N1690  N     0.83333   0.38264   0.75000   0.00000  Uiso   1.00
O1691  O     0.77321   0.53958   0.74999   0.00000  Uiso   1.00
O1692  O     0.87484   0.62160   0.81740   0.00000  Uiso   1.00
O1693  O     0.88337   0.38558   0.80968   0.00000  Uiso   1.00
O1694  O     0.76849   0.62209   0.71141   0.00000  Uiso   1.00
O1695  O     0.90583   0.53747   0.53181   0.00000  Uiso   1.00
O1696  O     0.88932   0.43939   0.97582   0.00000  Uiso   1.00
O1697  O     0.79385   0.56557   0.97994   0.00000  Uiso   1.00
O1698  O     0.77114   0.46497   0.51855   0.00000  Uiso   1.00
O1699  O     0.70211   0.44636   0.68577   0.00000  Uiso   1.00
O1700  O     0.96126   0.56690   0.80314   0.00000  Uiso   1.00
O1701  O     0.95470   0.43186   0.70121   0.00000  Uiso   1.00
O1702  O     0.89345   0.46042   0.75000   0.00000  Uiso   1.00
O1703  O     0.71063   0.57301   0.79351   0.00000  Uiso   1.00
O1704  O     0.89345   0.53958   0.75000   0.00000  Uiso   1.00
O1705  O     0.77321   0.46042   0.74999   0.00000  Uiso   1.00
O1706  O     0.83333   0.53959   0.68573   0.00000  Uiso   1.00
O1707  O     0.83334   0.46041   0.81427   0.00000  Uiso   1.00
O1708  O     0.83334   0.53959   0.81427   0.00000  Uiso   1.00
O1709  O     0.83333   0.46041   0.68573   0.00000  Uiso   1.00
O1710  O     0.81070   0.37170   0.67447   0.00000  Uiso   1.00
C1711  C     0.08734   0.83345   0.74885   0.00000  Uiso   1.00
C1712  C     0.31327   0.86737   0.77654   0.00000  Uiso   1.00
C1713  C     0.30987   0.80049   0.72440   0.00000  Uiso   1.00
C1714  C     0.02260   0.86839   0.77477   0.00000  Uiso   1.00
C1715  C     0.20641   0.85060   0.55172   0.00000  Uiso   1.00
C1716  C     0.19705   0.80251   0.95235   0.00000  Uiso   1.00
C1717  C     0.14819   0.86652   0.95453   0.00000  Uiso   1.00
C1718  C     0.13868   0.81365   0.54400   0.00000  Uiso   1.00
C1719  C     0.20351   0.85179   0.59813   0.00000  Uiso   1.00
C1720  C     0.19501   0.80313   0.90567   0.00000  Uiso   1.00
C1721  C     0.14705   0.86667   0.90797   0.00000  Uiso   1.00
C1722  C     0.24575   0.83342   0.75107   0.00000  Uiso   1.00
C1723  C     0.13720   0.81406   0.59003   0.00000  Uiso   1.00
C1724  C     0.16973   0.83190   0.61708   0.00000  Uiso   1.00
C1725  C     0.16976   0.83477   0.88360   0.00000  Uiso   1.00
C1726  C     0.17324   0.83256   0.52476   0.00000  Uiso   1.00
C1727  C     0.17384   0.83482   0.97635   0.00000  Uiso   1.00
C1728  C     0.29025   0.83331   0.75142   0.00000  Uiso   1.00
C1729  C     0.04243   0.83449   0.74870   0.00000  Uiso   1.00
C1730  C     0.10410   0.71751   0.66053   0.00000  Uiso   1.00
C1731  C     0.09791   0.70748   0.61042   0.00000  Uiso   1.00
C1732  C     0.18828   0.96757   0.85693   0.00000  Uiso   1.00
C1733  C     0.16733   0.83273   0.66516   0.00000  Uiso   1.00
C1734  C     0.21364   0.95222   0.89734   0.00000  Uiso   1.00
C1735  C     0.25806   0.70904   0.80137   0.00000  Uiso   1.00
C1736  C     0.28583   0.74106   0.83077   0.00000  Uiso   1.00
C1737  C     0.09756   0.93522   0.66801   0.00000  Uiso   1.00
C1738  C     0.05308   0.93852   0.65042   0.00000  Uiso   1.00
C1739  C     0.27664   0.85262   0.54856   0.00000  Uiso   1.00
C1740  C     0.21937   0.72686   0.95796   0.00000  Uiso   1.00
C1741  C     0.08581   0.90207   0.96449   0.00000  Uiso   1.00
C1742  C     0.11212   0.75450   0.99821   0.00000  Uiso   1.00
C1743  C     0.03726   0.81071   0.65056   0.00000  Uiso   1.00
C1744  C     0.16735   0.83398   0.83503   0.00000  Uiso   1.00
C1745  C     0.28446   0.87993   0.84317   0.00000  Uiso   1.00
C1746  C     0.27249   0.78059   0.65980   0.00000  Uiso   1.00
C1747  C     0.05821   0.89658   0.83694   0.00000  Uiso   1.00
C1748  C     0.14553   0.68948   0.71726   0.00000  Uiso   1.00
C1749  C     0.18907   0.97677   0.78194   0.00000  Uiso   1.00
C1750  C     0.19102   0.69314   0.78014   0.00000  Uiso   1.00
C1751  C     0.14074   0.97387   0.72134   0.00000  Uiso   1.00
C1752  C     0.01882   0.80299   0.72115   0.00000  Uiso   1.00
Cu1753 Cu    0.16667   0.88022   0.75000   0.00000  Uiso   1.00
Cu1754 Cu    0.16667   0.78645   0.75000   0.00000  Uiso   1.00
H1755  H     0.22713   0.86873   0.61942   0.00000  Uiso   1.00
H1756  H     0.15746   0.95123   0.85625   0.00000  Uiso   1.00
H1757  H     0.18394   0.67218   0.86189   0.00000  Uiso   1.00
H1758  H     0.24370   0.97050   0.89949   0.00000  Uiso   1.00
H1759  H     0.19726   0.96062   0.92804   0.00000  Uiso   1.00
H1760  H     0.21875   0.91440   0.89517   0.00000  Uiso   1.00
H1761  H     0.26441   0.71452   0.76600   0.00000  Uiso   1.00
H1762  H     0.26622   0.67290   0.80932   0.00000  Uiso   1.00
H1763  H     0.31814   0.73681   0.82161   0.00000  Uiso   1.00
H1764  H     0.27672   0.77758   0.82656   0.00000  Uiso   1.00
H1765  H     0.28341   0.73267   0.86620   0.00000  Uiso   1.00
H1766  H     0.21357   0.77967   0.88645   0.00000  Uiso   1.00
H1767  H     0.10270   0.89784   0.66939   0.00000  Uiso   1.00
H1768  H     0.11906   0.94955   0.64451   0.00000  Uiso   1.00
H1769  H     0.04966   0.92173   0.61663   0.00000  Uiso   1.00
H1770  H     0.03275   0.92030   0.67270   0.00000  Uiso   1.00
H1771  H     0.04282   0.97484   0.64855   0.00000  Uiso   1.00
H1772  H     0.27534   0.81427   0.55144   0.00000  Uiso   1.00
H1773  H     0.28624   0.86979   0.58106   0.00000  Uiso   1.00
H1774  H     0.30066   0.86013   0.52502   0.00000  Uiso   1.00
H1775  H     0.23016   0.70298   0.98398   0.00000  Uiso   1.00
H1776  H     0.23955   0.72196   0.92962   0.00000  Uiso   1.00
H1777  H     0.12880   0.89179   0.89087   0.00000  Uiso   1.00
H1778  H     0.18721   0.71675   0.94781   0.00000  Uiso   1.00
H1779  H     0.07207   0.86764   0.95421   0.00000  Uiso   1.00
H1780  H     0.08279   0.92640   0.93688   0.00000  Uiso   1.00
H1781  H     0.06788   0.91653   0.99204   0.00000  Uiso   1.00
H1782  H     0.11947   0.75878   0.96303   0.00000  Uiso   1.00
H1783  H     0.08369   0.73331   0.99811   0.00000  Uiso   1.00
H1784  H     0.13694   0.73448   0.51538   0.00000  Uiso   1.00
H1785  H     0.01041   0.83425   0.64747   0.00000  Uiso   1.00
H1786  H     0.03787   0.79056   0.61863   0.00000  Uiso   1.00
H1787  H     0.06559   0.83187   0.65482   0.00000  Uiso   1.00
H1788  H     0.11009   0.80143   0.60453   0.00000  Uiso   1.00
H1789  H     0.25268   0.86614   0.84007   0.00000  Uiso   1.00
H1790  H     0.28639   0.90714   0.87011   0.00000  Uiso   1.00
H1791  H     0.30559   0.85181   0.85392   0.00000  Uiso   1.00
H1792  H     0.26782   0.81871   0.65918   0.00000  Uiso   1.00
H1793  H     0.24235   0.76363   0.65181   0.00000  Uiso   1.00
H1794  H     0.29316   0.76959   0.63330   0.00000  Uiso   1.00
H1795  H     0.07887   0.92537   0.84912   0.00000  Uiso   1.00
H1796  H     0.07574   0.86366   0.83802   0.00000  Uiso   1.00
H1797  H     0.03277   0.89571   0.85987   0.00000  Uiso   1.00
H1798  H     0.10164   0.75514   0.66655   0.00000  Uiso   1.00
H1799  H     0.07950   0.70067   0.67850   0.00000  Uiso   1.00
H1800  H     0.09535   0.67005   0.60196   0.00000  Uiso   1.00
H1801  H     0.06946   0.72387   0.59735   0.00000  Uiso   1.00
H1802  H     0.12440   0.72085   0.59308   0.00000  Uiso   1.00
N1803  N     0.16667   0.95069   0.75000   0.00000  Uiso   1.00
N1804  N     0.16667   0.71598   0.75000   0.00000  Uiso   1.00
O1805  O     0.10655   0.87291   0.74999   0.00000  Uiso   1.00
O1806  O     0.20818   0.95493   0.81740   0.00000  Uiso   1.00
O1807  O     0.21670   0.71891   0.80968   0.00000  Uiso   1.00
O1808  O     0.10183   0.95543   0.71141   0.00000  Uiso   1.00
O1809  O     0.23917   0.87081   0.53181   0.00000  Uiso   1.00
O1810  O     0.22266   0.77272   0.97582   0.00000  Uiso   1.00
O1811  O     0.12718   0.89891   0.97994   0.00000  Uiso   1.00
O1812  O     0.10447   0.79831   0.51855   0.00000  Uiso   1.00
O1813  O     0.03544   0.77969   0.68577   0.00000  Uiso   1.00
O1814  O     0.29459   0.90023   0.80314   0.00000  Uiso   1.00
O1815  O     0.28803   0.76519   0.70121   0.00000  Uiso   1.00
O1816  O     0.22679   0.79375   0.75000   0.00000  Uiso   1.00
O1817  O     0.04396   0.90634   0.79351   0.00000  Uiso   1.00
O1818  O     0.22679   0.87291   0.75000   0.00000  Uiso   1.00
O1819  O     0.10655   0.79375   0.74999   0.00000  Uiso   1.00
O1820  O     0.16666   0.87293   0.68573   0.00000  Uiso   1.00
O1821  O     0.16667   0.79374   0.81427   0.00000  Uiso   1.00
O1822  O     0.16667   0.87293   0.81427   0.00000  Uiso   1.00
O1823  O     0.16666   0.79374   0.68573   0.00000  Uiso   1.00
O1824  O     0.14404   0.70503   0.67447   0.00000  Uiso   1.00
C1825  C     0.42068   0.83345   0.74885   0.00000  Uiso   1.00
C1826  C     0.64661   0.86737   0.77654   0.00000  Uiso   1.00
C1827  C     0.64321   0.80049   0.72440   0.00000  Uiso   1.00
C1828  C     0.35594   0.86839   0.77477   0.00000  Uiso   1.00
C1829  C     0.53974   0.85060   0.55172   0.00000  Uiso   1.00
C1830  C     0.53038   0.80251   0.95235   0.00000  Uiso   1.00
C1831  C     0.48152   0.86652   0.95453   0.00000  Uiso   1.00
C1832  C     0.47201   0.81365   0.54400   0.00000  Uiso   1.00
C1833  C     0.53684   0.85179   0.59813   0.00000  Uiso   1.00
C1834  C     0.52835   0.80313   0.90567   0.00000  Uiso   1.00
C1835  C     0.48039   0.86667   0.90797   0.00000  Uiso   1.00
C1836  C     0.57908   0.83342   0.75107   0.00000  Uiso   1.00
C1837  C     0.47054   0.81406   0.59003   0.00000  Uiso   1.00
C1838  C     0.50306   0.83190   0.61708   0.00000  Uiso   1.00
C1839  C     0.50309   0.83477   0.88360   0.00000  Uiso   1.00
C1840  C     0.50657   0.83256   0.52476   0.00000  Uiso   1.00
C1841  C     0.50717   0.83482   0.97635   0.00000  Uiso   1.00
C1842  C     0.62359   0.83331   0.75142   0.00000  Uiso   1.00
C1843  C     0.37576   0.83449   0.74870   0.00000  Uiso   1.00
C1844  C     0.43744   0.71751   0.66053   0.00000  Uiso   1.00
C1845  C     0.43125   0.70748   0.61042   0.00000  Uiso   1.00
C1846  C     0.52161   0.96757   0.85693   0.00000  Uiso   1.00
C1847  C     0.50067   0.83273   0.66516   0.00000  Uiso   1.00
C1848  C     0.54697   0.95222   0.89734   0.00000  Uiso   1.00
C1849  C     0.59139   0.70904   0.80137   0.00000  Uiso   1.00
C1850  C     0.61916   0.74106   0.83077   0.00000  Uiso   1.00
C1851  C     0.43090   0.93522   0.66801   0.00000  Uiso   1.00
C1852  C     0.38641   0.93852   0.65042   0.00000  Uiso   1.00
C1853  C     0.60997   0.85262   0.54856   0.00000  Uiso   1.00
C1854  C     0.55271   0.72686   0.95796   0.00000  Uiso   1.00
C1855  C     0.41915   0.90207   0.96449   0.00000  Uiso   1.00
C1856  C     0.44546   0.75450   0.99821   0.00000  Uiso   1.00
C1857  C     0.37060   0.81071   0.65056   0.00000  Uiso   1.00
C1858  C     0.50069   0.83398   0.83503   0.00000  Uiso   1.00
C1859  C     0.61779   0.87993   0.84317   0.00000  Uiso   1.00
C1860  C     0.60582   0.78059   0.65980   0.00000  Uiso   1.00
C1861  C     0.39155   0.89658   0.83694   0.00000  Uiso   1.00
C1862  C     0.47886   0.68948   0.71726   0.00000  Uiso   1.00
C1863  C     0.52240   0.97677   0.78194   0.00000  Uiso   1.00
C1864  C     0.52435   0.69314   0.78014   0.00000  Uiso   1.00
C1865  C     0.47407   0.97387   0.72134   0.00000  Uiso   1.00
C1866  C     0.35215   0.80299   0.72115   0.00000  Uiso   1.00
Cu1867 Cu    0.50000   0.88022   0.75000   0.00000  Uiso   1.00
Cu1868 Cu    0.50000   0.78645   0.75000   0.00000  Uiso   1.00
H1869  H     0.56047   0.86873   0.61942   0.00000  Uiso   1.00
H1870  H     0.49080   0.95123   0.85625   0.00000  Uiso   1.00
H1871  H     0.51727   0.67218   0.86189   0.00000  Uiso   1.00
H1872  H     0.57703   0.97050   0.89949   0.00000  Uiso   1.00
H1873  H     0.53059   0.96062   0.92804   0.00000  Uiso   1.00
H1874  H     0.55208   0.91440   0.89517   0.00000  Uiso   1.00
H1875  H     0.59774   0.71452   0.76600   0.00000  Uiso   1.00
H1876  H     0.59955   0.67290   0.80932   0.00000  Uiso   1.00
H1877  H     0.65147   0.73681   0.82161   0.00000  Uiso   1.00
H1878  H     0.61005   0.77758   0.82656   0.00000  Uiso   1.00
H1879  H     0.61675   0.73267   0.86620   0.00000  Uiso   1.00
H1880  H     0.54690   0.77967   0.88645   0.00000  Uiso   1.00
H1881  H     0.43603   0.89784   0.66939   0.00000  Uiso   1.00
H1882  H     0.45239   0.94955   0.64451   0.00000  Uiso   1.00
H1883  H     0.38299   0.92173   0.61663   0.00000  Uiso   1.00
H1884  H     0.36609   0.92030   0.67270   0.00000  Uiso   1.00
H1885  H     0.37616   0.97484   0.64855   0.00000  Uiso   1.00
H1886  H     0.60867   0.81427   0.55144   0.00000  Uiso   1.00
H1887  H     0.61957   0.86979   0.58106   0.00000  Uiso   1.00
H1888  H     0.63400   0.86013   0.52502   0.00000  Uiso   1.00
H1889  H     0.56349   0.70298   0.98398   0.00000  Uiso   1.00
H1890  H     0.57288   0.72196   0.92962   0.00000  Uiso   1.00
H1891  H     0.46213   0.89179   0.89087   0.00000  Uiso   1.00
H1892  H     0.52054   0.71675   0.94781   0.00000  Uiso   1.00
H1893  H     0.40540   0.86764   0.95421   0.00000  Uiso   1.00
H1894  H     0.41612   0.92640   0.93688   0.00000  Uiso   1.00
H1895  H     0.40121   0.91653   0.99204   0.00000  Uiso   1.00
H1896  H     0.45280   0.75878   0.96303   0.00000  Uiso   1.00
H1897  H     0.41702   0.73331   0.99811   0.00000  Uiso   1.00
H1898  H     0.47028   0.73448   0.51538   0.00000  Uiso   1.00
H1899  H     0.34374   0.83425   0.64747   0.00000  Uiso   1.00
H1900  H     0.37120   0.79056   0.61863   0.00000  Uiso   1.00
H1901  H     0.39892   0.83187   0.65482   0.00000  Uiso   1.00
H1902  H     0.44342   0.80143   0.60453   0.00000  Uiso   1.00
H1903  H     0.58601   0.86614   0.84007   0.00000  Uiso   1.00
H1904  H     0.61972   0.90714   0.87011   0.00000  Uiso   1.00
H1905  H     0.63892   0.85181   0.85392   0.00000  Uiso   1.00
H1906  H     0.60115   0.81871   0.65918   0.00000  Uiso   1.00
H1907  H     0.57568   0.76363   0.65181   0.00000  Uiso   1.00
H1908  H     0.62649   0.76959   0.63330   0.00000  Uiso   1.00
H1909  H     0.41220   0.92537   0.84912   0.00000  Uiso   1.00
H1910  H     0.40908   0.86366   0.83802   0.00000  Uiso   1.00
H1911  H     0.36610   0.89571   0.85987   0.00000  Uiso   1.00
H1912  H     0.43497   0.75514   0.66655   0.00000  Uiso   1.00
H1913  H     0.41283   0.70067   0.67850   0.00000  Uiso   1.00
H1914  H     0.42869   0.67005   0.60196   0.00000  Uiso   1.00
H1915  H     0.40279   0.72387   0.59735   0.00000  Uiso   1.00
H1916  H     0.45773   0.72085   0.59308   0.00000  Uiso   1.00
N1917  N     0.50000   0.95069   0.75000   0.00000  Uiso   1.00
N1918  N     0.50000   0.71598   0.75000   0.00000  Uiso   1.00
O1919  O     0.43988   0.87291   0.74999   0.00000  Uiso   1.00
O1920  O     0.54151   0.95493   0.81740   0.00000  Uiso   1.00
O1921  O     0.55004   0.71891   0.80968   0.00000  Uiso   1.00
O1922  O     0.43516   0.95543   0.71141   0.00000  Uiso   1.00
O1923  O     0.57250   0.87081   0.53181   0.00000  Uiso   1.00
O1924  O     0.55599   0.77272   0.97582   0.00000  Uiso   1.00
O1925  O     0.46051   0.89891   0.97994   0.00000  Uiso   1.00
O1926  O     0.43781   0.79831   0.51855   0.00000  Uiso   1.00
O1927  O     0.36878   0.77969   0.68577   0.00000  Uiso   1.00
O1928  O     0.62792   0.90023   0.80314   0.00000  Uiso   1.00
O1929  O     0.62137   0.76519   0.70121   0.00000  Uiso   1.00
O1930  O     0.56012   0.79375   0.75000   0.00000  Uiso   1.00
O1931  O     0.37729   0.90634   0.79351   0.00000  Uiso   1.00
O1932  O     0.56012   0.87291   0.75000   0.00000  Uiso   1.00
O1933  O     0.43988   0.79375   0.74999   0.00000  Uiso   1.00
O1934  O     0.50000   0.87293   0.68573   0.00000  Uiso   1.00
O1935  O     0.50000   0.79374   0.81427   0.00000  Uiso   1.00
O1936  O     0.50000   0.87293   0.81427   0.00000  Uiso   1.00
O1937  O     0.50000   0.79374   0.68573   0.00000  Uiso   1.00
O1938  O     0.47737   0.70503   0.67447   0.00000  Uiso   1.00
C1939  C     0.75401   0.83345   0.74885   0.00000  Uiso   1.00
C1940  C     0.97994   0.86737   0.77654   0.00000  Uiso   1.00
C1941  C     0.97654   0.80049   0.72440   0.00000  Uiso   1.00
C1942  C     0.68927   0.86839   0.77477   0.00000  Uiso   1.00
C1943  C     0.87308   0.85060   0.55172   0.00000  Uiso   1.00
C1944  C     0.86371   0.80251   0.95235   0.00000  Uiso   1.00
C1945  C     0.81486   0.86652   0.95453   0.00000  Uiso   1.00
C1946  C     0.80535   0.81365   0.54400   0.00000  Uiso   1.00
C1947  C     0.87017   0.85179   0.59813   0.00000  Uiso   1.00
C1948  C     0.86168   0.80313   0.90567   0.00000  Uiso   1.00
C1949  C     0.81372   0.86667   0.90797   0.00000  Uiso   1.00
C1950  C     0.91242   0.83342   0.75107   0.00000  Uiso   1.00
C1951  C     0.80387   0.81406   0.59003   0.00000  Uiso   1.00
C1952  C     0.83639   0.83190   0.61708   0.00000  Uiso   1.00
C1953  C     0.83643   0.83477   0.88360   0.00000  Uiso   1.00
C1954  C     0.83990   0.83256   0.52476   0.00000  Uiso   1.00
C1955  C     0.84051   0.83482   0.97635   0.00000  Uiso   1.00
C1956  C     0.95692   0.83331   0.75142   0.00000  Uiso   1.00
C1957  C     0.70909   0.83449   0.74870   0.00000  Uiso   1.00
C1958  C     0.77077   0.71751   0.66053   0.00000  Uiso   1.00
C1959  C     0.76458   0.70748   0.61042   0.00000  Uiso   1.00
C1960  C     0.85494   0.96757   0.85693   0.00000  Uiso   1.00
C1961  C     0.83400   0.83273   0.66516   0.00000  Uiso   1.00
C1962  C     0.88030   0.95222   0.89734   0.00000  Uiso   1.00
C1963  C     0.92473   0.70904   0.80137   0.00000  Uiso   1.00
C1964  C     0.95250   0.74106   0.83077   0.00000  Uiso   1.00
C1965  C     0.76423   0.93522   0.66801   0.00000  Uiso   1.00
C1966  C     0.71974   0.93852   0.65042   0.00000  Uiso   1.00
C1967  C     0.94331   0.85262   0.54856   0.00000  Uiso   1.00
C1968  C     0.88604   0.72686   0.95796   0.00000  Uiso   1.00
C1969  C     0.75248   0.90207   0.96449   0.00000  Uiso   1.00
C1970  C     0.77879   0.75450   0.99821   0.00000  Uiso   1.00
C1971  C     0.70393   0.81071   0.65056   0.00000  Uiso   1.00
C1972  C     0.83402   0.83398   0.83503   0.00000  Uiso   1.00
C1973  C     0.95112   0.87993   0.84317   0.00000  Uiso   1.00
C1974  C     0.93916   0.78059   0.65980   0.00000  Uiso   1.00
C1975  C     0.72488   0.89658   0.83694   0.00000  Uiso   1.00
C1976  C     0.81220   0.68948   0.71726   0.00000  Uiso   1.00
C1977  C     0.85574   0.97677   0.78194   0.00000  Uiso   1.00
C1978  C     0.85768   0.69314   0.78014   0.00000  Uiso   1.00
C1979  C     0.80740   0.97387   0.72134   0.00000  Uiso   1.00
C1980  C     0.68549   0.80299   0.72115   0.00000  Uiso   1.00
Cu1981 Cu    0.83333   0.88022   0.75000   0.00000  Uiso   1.00
Cu1982 Cu    0.83333   0.78645   0.75000   0.00000  Uiso   1.00
H1983  H     0.89380   0.86873   0.61942   0.00000  Uiso   1.00
H1984  H     0.82413   0.95123   0.85625   0.00000  Uiso   1.00
H1985  H     0.85060   0.67218   0.86189   0.00000  Uiso   1.00
H1986  H     0.91036   0.97050   0.89949   0.00000  Uiso   1.00
H1987  H     0.86393   0.96062   0.92804   0.00000  Uiso   1.00
H1988  H     0.88542   0.91440   0.89517   0.00000  Uiso   1.00
H1989  H     0.93107   0.71452   0.76600   0.00000  Uiso   1.00
H1990  H     0.93289   0.67290   0.80932   0.00000  Uiso   1.00
H1991  H     0.98481   0.73681   0.82161   0.00000  Uiso   1.00
H1992  H     0.94338   0.77758   0.82656   0.00000  Uiso   1.00
H1993  H     0.95008   0.73267   0.86620   0.00000  Uiso   1.00
H1994  H     0.88023   0.77967   0.88645   0.00000  Uiso   1.00
H1995  H     0.76937   0.89784   0.66939   0.00000  Uiso   1.00
H1996  H     0.78573   0.94955   0.64451   0.00000  Uiso   1.00
H1997  H     0.71632   0.92173   0.61663   0.00000  Uiso   1.00
H1998  H     0.69942   0.92030   0.67270   0.00000  Uiso   1.00
H1999  H     0.70949   0.97484   0.64855   0.00000  Uiso   1.00
H2000  H     0.94200   0.81427   0.55144   0.00000  Uiso   1.00
H2001  H     0.95290   0.86979   0.58106   0.00000  Uiso   1.00
H2002  H     0.96733   0.86013   0.52502   0.00000  Uiso   1.00
H2003  H     0.89682   0.70298   0.98398   0.00000  Uiso   1.00
H2004  H     0.90621   0.72196   0.92962   0.00000  Uiso   1.00
H2005  H     0.79547   0.89179   0.89087   0.00000  Uiso   1.00
H2006  H     0.85387   0.71675   0.94781   0.00000  Uiso   1.00
H2007  H     0.73874   0.86764   0.95421   0.00000  Uiso   1.00
H2008  H     0.74946   0.92640   0.93688   0.00000  Uiso   1.00
H2009  H     0.73455   0.91653   0.99204   0.00000  Uiso   1.00
H2010  H     0.78613   0.75878   0.96303   0.00000  Uiso   1.00
H2011  H     0.75036   0.73331   0.99811   0.00000  Uiso   1.00
H2012  H     0.80361   0.73448   0.51538   0.00000  Uiso   1.00
H2013  H     0.67707   0.83425   0.64747   0.00000  Uiso   1.00
H2014  H     0.70454   0.79056   0.61863   0.00000  Uiso   1.00
H2015  H     0.73226   0.83187   0.65482   0.00000  Uiso   1.00
H2016  H     0.77676   0.80143   0.60453   0.00000  Uiso   1.00
H2017  H     0.91934   0.86614   0.84007   0.00000  Uiso   1.00
H2018  H     0.95306   0.90714   0.87011   0.00000  Uiso   1.00
H2019  H     0.97225   0.85181   0.85392   0.00000  Uiso   1.00
H2020  H     0.93449   0.81871   0.65918   0.00000  Uiso   1.00
H2021  H     0.90901   0.76363   0.65181   0.00000  Uiso   1.00
H2022  H     0.95982   0.76959   0.63330   0.00000  Uiso   1.00
H2023  H     0.74554   0.92537   0.84912   0.00000  Uiso   1.00
H2024  H     0.74241   0.86366   0.83802   0.00000  Uiso   1.00
H2025  H     0.69944   0.89571   0.85987   0.00000  Uiso   1.00
H2026  H     0.76831   0.75514   0.66655   0.00000  Uiso   1.00
H2027  H     0.74617   0.70067   0.67850   0.00000  Uiso   1.00
H2028  H     0.76202   0.67005   0.60196   0.00000  Uiso   1.00
H2029  H     0.73612   0.72387   0.59735   0.00000  Uiso   1.00
H2030  H     0.79107   0.72085   0.59308   0.00000  Uiso   1.00
N2031  N     0.83333   0.95069   0.75000   0.00000  Uiso   1.00
N2032  N     0.83333   0.71598   0.75000   0.00000  Uiso   1.00
O2033  O     0.77321   0.87291   0.74999   0.00000  Uiso   1.00
O2034  O     0.87484   0.95493   0.81740   0.00000  Uiso   1.00
O2035  O     0.88337   0.71891   0.80968   0.00000  Uiso   1.00
O2036  O     0.76849   0.95543   0.71141   0.00000  Uiso   1.00
O2037  O     0.90583   0.87081   0.53181   0.00000  Uiso   1.00
O2038  O     0.88932   0.77272   0.97582   0.00000  Uiso   1.00
O2039  O     0.79385   0.89891   0.97994   0.00000  Uiso   1.00
O2040  O     0.77114   0.79831   0.51855   0.00000  Uiso   1.00
O2041  O     0.70211   0.77969   0.68577   0.00000  Uiso   1.00
O2042  O     0.96126   0.90023   0.80314   0.00000  Uiso   1.00
O2043  O     0.95470   0.76519   0.70121   0.00000  Uiso   1.00
O2044  O     0.89345   0.79375   0.75000   0.00000  Uiso   1.00
O2045  O     0.71063   0.90634   0.79351   0.00000  Uiso   1.00
O2046  O     0.89345   0.87291   0.75000   0.00000  Uiso   1.00
O2047  O     0.77321   0.79375   0.74999   0.00000  Uiso   1.00
O2048  O     0.83333   0.87293   0.68573   0.00000  Uiso   1.00
O2049  O     0.83334   0.79374   0.81427   0.00000  Uiso   1.00
O2050  O     0.83334   0.87293   0.81427   0.00000  Uiso   1.00
O2051  O     0.83333   0.79374   0.68573   0.00000  Uiso   1.00
O2052  O     0.81070   0.70503   0.67447   0.00000  Uiso   1.00
loop_
_geom_bond_atom_site_label_1
_geom_bond_atom_site_label_2
_geom_bond_distance
_geom_bond_site_symmetry_2
_ccdc_geom_bond_type
C1     O109    1.310   .     A
C1     C19     1.468   .     S
C1     O95     1.296   .     A
C2     C18     1.409   .     A
C2     O104    1.382   .     S
C2     C118    1.398   .     S
C3     O105    1.387   .     S
C3     C18     1.404   .     A
C3     C156    1.391   .     S
C4     C19     1.411   .     A
C4     O107    1.383   .     S
C4     C230    1.398   1_455 S
C5     C16     1.407   .     A
C5     O99     1.389   .     S
C5     C9      1.405   .     A
C6     C17     1.406   .     A
C6     O100    1.391   .     S
C6     C10     1.405   .     A
C7     C11     1.401   .     A
C7     C17     1.404   .     A
C7     O101    1.391   .     S
C8     C13     1.389   .     A
C8     C16     1.411   .     A
C8     O102    1.384   .     S
C9     H45     1.081   .     S
C9     C14     1.398   .     A
C10    C15     1.399   .     A
C10    H56     1.082   .     S
C11    C15     1.395   .     A
C11    H67     1.072   .     S
C12    O106    1.298   .     A
C12    O108    1.301   .     A
C12    C18     1.453   .     S
C13    C14     1.391   .     A
C13    H78     1.075   .     S
C14    C23     1.453   .     S
C15    C34     1.460   .     S
C16    C1043   1.463   1_554 S
C17    C1042   1.463   .     S
C19    C42     1.408   .     A
C20    H89     1.111   .     S
C20    O114    1.404   .     S
C20    H88     1.099   .     S
C20    C21     1.529   .     S
C21    H90     1.102   .     S
C21    H91     1.107   .     S
C21    H92     1.108   .     S
C22    H46     1.108   .     S
C22    O96     1.421   .     S
C22    C24     1.520   .     S
C22    H389    1.111   .     S
C23    O113    1.306   .     A
C23    O110    1.295   .     A
C24    H50     1.106   .     S
C24    H48     1.110   .     S
C24    H49     1.110   .     S
C25    C26     1.520   .     S
C25    H51     1.112   .     S
C25    O97     1.415   .     S
C25    H52     1.110   .     S
C26    H55     1.110   .     S
C26    H54     1.107   .     S
C26    H53     1.111   .     S
C27    H57     1.095   .     S
C27    O98     1.411   .     S
C27    H58     1.111   .     S
C27    C28     1.527   .     S
C28    H60     1.111   .     S
C28    H59     1.111   .     S
C28    H61     1.105   .     S
C29    H63     1.111   .     S
C29    H62     1.115   .     S
C29    H64     1.109   .     S
C29    O99     1.413   .     S
C30    O100    1.411   .     S
C30    H66     1.109   .     S
C30    H65     1.109   .     S
C30    H68     1.114   .     S
C31    O101    1.412   .     S
C31    H70     1.110   .     S
C31    H71     1.109   .     S
C31    H69     1.115   .     S
C32    H72     1.109   .     S
C32    H73     1.109   .     S
C32    H1100   1.116   .     S
C32    O1128   1.413   .     S
C33    H75     1.115   .     S
C33    H76     1.106   .     S
C33    O103    1.417   .     S
C33    H77     1.106   .     S
C34    O112    1.307   .     A
C34    O111    1.298   .     A
C35    H81     1.116   .     S
C35    H80     1.107   .     S
C35    O104    1.414   .     S
C35    H79     1.108   .     S
C36    H83     1.109   .     S
C36    H82     1.113   .     S
C36    O105    1.412   .     S
C36    H84     1.109   .     S
C37    H85     1.108   .     S
C37    O107    1.406   .     S
C37    H86     1.113   .     S
C37    H87     1.107   .     S
C38    O114    1.380   .     S
C38    N94     1.380   .     A
C38    C725    1.432   1_545 S
C39    N93     1.377   .     A
C39    O96     1.385   .     S
C39    C382    1.440   .     S
C40    O97     1.385   .     S
C40    N94     1.368   .     A
C40    C723    1.440   1_545 S
C41    N93     1.374   .     A
C41    O98     1.390   .     S
C41    C380    1.432   .     S
C42    O103    1.374   .     S
C42    C231    1.391   1_455 S
Cu43   Cu44    2.707   .     S
Cu43   O95     1.974   .     S
Cu43   O110    1.939   .     S
Cu43   O112    1.955   .     S
Cu43   N93     2.035   .     S
Cu43   O108    1.977   .     S
Cu44   O109    1.977   .     S
Cu44   O113    1.955   .     S
Cu44   O106    1.974   .     S
Cu44   N94     2.035   .     S
Cu44   O111    1.939   .     S
H47    C706    1.111   1_545 S
H74    C1058   1.116   1_554 S
O102   C1058   1.413   1_554 S
C115   O223    1.310   .     A
C115   C133    1.468   .     S
C115   O209    1.296   .     A
C116   C132    1.409   .     A
C116   O218    1.382   .     S
C116   C232    1.398   .     S
C117   O219    1.387   .     S
C117   C132    1.404   .     A
C117   C270    1.391   .     S
C118   C133    1.411   .     A
C118   O221    1.383   .     S
C119   C130    1.407   .     A
C119   O213    1.389   .     S
C119   C123    1.405   .     A
C120   C131    1.406   .     A
C120   O214    1.391   .     S
C120   C124    1.405   .     A
C121   C125    1.401   .     A
C121   C131    1.404   .     A
C121   O215    1.391   .     S
C122   C127    1.389   .     A
C122   C130    1.411   .     A
C122   O216    1.384   .     S
C123   H159    1.081   .     S
C123   C128    1.398   .     A
C124   C129    1.399   .     A
C124   H170    1.082   .     S
C125   C129    1.395   .     A
C125   H181    1.072   .     S
C126   O220    1.298   .     A
C126   O222    1.301   .     A
C126   C132    1.453   .     S
C127   C128    1.391   .     A
C127   H192    1.075   .     S
C128   C137    1.453   .     S
C129   C148    1.460   .     S
C130   C1157   1.463   1_554 S
C131   C1156   1.463   .     S
C133   C156    1.408   .     A
C134   H203    1.111   .     S
C134   O228    1.404   .     S
C134   H202    1.099   .     S
C134   C135    1.529   .     S
C135   H204    1.102   .     S
C135   H205    1.107   .     S
C135   H206    1.108   .     S
C136   H160    1.108   .     S
C136   O210    1.421   .     S
C136   C138    1.520   .     S
C136   H503    1.111   .     S
C137   O227    1.306   .     A
C137   O224    1.295   .     A
C138   H164    1.106   .     S
C138   H162    1.110   .     S
C138   H163    1.110   .     S
C139   C140    1.520   .     S
C139   H165    1.112   .     S
C139   O211    1.415   .     S
C139   H166    1.110   .     S
C140   H169    1.110   .     S
C140   H168    1.107   .     S
C140   H167    1.111   .     S
C141   H171    1.095   .     S
C141   O212    1.411   .     S
C141   H172    1.111   .     S
C141   C142    1.527   .     S
C142   H174    1.111   .     S
C142   H173    1.111   .     S
C142   H175    1.105   .     S
C143   H177    1.111   .     S
C143   H176    1.115   .     S
C143   H178    1.109   .     S
C143   O213    1.413   .     S
C144   O214    1.411   .     S
C144   H180    1.109   .     S
C144   H179    1.109   .     S
C144   H182    1.114   .     S
C145   O215    1.412   .     S
C145   H184    1.110   .     S
C145   H185    1.109   .     S
C145   H183    1.115   .     S
C146   H186    1.109   .     S
C146   H187    1.109   .     S
C146   H1214   1.116   .     S
C146   O1242   1.413   .     S
C147   H189    1.115   .     S
C147   H190    1.106   .     S
C147   O217    1.417   .     S
C147   H191    1.106   .     S
C148   O226    1.307   .     A
C148   O225    1.298   .     A
C149   H195    1.116   .     S
C149   H194    1.107   .     S
C149   O218    1.414   .     S
C149   H193    1.108   .     S
C150   H197    1.109   .     S
C150   H196    1.113   .     S
C150   O219    1.412   .     S
C150   H198    1.109   .     S
C151   H199    1.108   .     S
C151   O221    1.406   .     S
C151   H200    1.113   .     S
C151   H201    1.107   .     S
C152   O228    1.380   .     S
C152   N208    1.380   .     A
C152   C839    1.432   1_545 S
C153   N207    1.377   .     A
C153   O210    1.385   .     S
C153   C496    1.440   .     S
C154   O211    1.385   .     S
C154   N208    1.368   .     A
C154   C837    1.440   1_545 S
C155   N207    1.374   .     A
C155   O212    1.390   .     S
C155   C494    1.432   .     S
C156   O217    1.374   .     S
Cu157  Cu158   2.707   .     S
Cu157  O209    1.974   .     S
Cu157  O224    1.939   .     S
Cu157  O226    1.955   .     S
Cu157  N207    2.035   .     S
Cu157  O222    1.977   .     S
Cu158  O223    1.977   .     S
Cu158  O227    1.955   .     S
Cu158  O220    1.974   .     S
Cu158  N208    2.035   .     S
Cu158  O225    1.939   .     S
H161   C820    1.111   1_545 S
H188   C1172   1.116   1_554 S
O216   C1172   1.413   1_554 S
C229   O337    1.310   .     A
C229   C247    1.468   .     S
C229   O323    1.296   .     A
C230   C246    1.409   .     A
C230   O332    1.382   .     S
C230   C4      1.398   1_655 S
C231   O333    1.387   .     S
C231   C246    1.404   .     A
C231   C42     1.391   1_655 S
C232   C247    1.411   .     A
C232   O335    1.383   .     S
C233   C244    1.407   .     A
C233   O327    1.389   .     S
C233   C237    1.405   .     A
C234   C245    1.406   .     A
C234   O328    1.391   .     S
C234   C238    1.405   .     A
C235   C239    1.401   .     A
C235   C245    1.404   .     A
C235   O329    1.391   .     S
C236   C241    1.389   .     A
C236   C244    1.411   .     A
C236   O330    1.384   .     S
C237   H273    1.081   .     S
C237   C242    1.398   .     A
C238   C243    1.399   .     A
C238   H284    1.082   .     S
C239   C243    1.395   .     A
C239   H295    1.072   .     S
C240   O334    1.298   .     A
C240   O336    1.301   .     A
C240   C246    1.453   .     S
C241   C242    1.391   .     A
C241   H306    1.075   .     S
C242   C251    1.453   .     S
C243   C262    1.460   .     S
C244   C1271   1.463   1_554 S
C245   C1270   1.463   .     S
C247   C270    1.408   .     A
C248   H317    1.111   .     S
C248   O342    1.404   .     S
C248   H316    1.099   .     S
C248   C249    1.529   .     S
C249   H318    1.102   .     S
C249   H319    1.107   .     S
C249   H320    1.108   .     S
C250   H274    1.108   .     S
C250   O324    1.421   .     S
C250   C252    1.520   .     S
C250   H617    1.111   .     S
C251   O341    1.306   .     A
C251   O338    1.295   .     A
C252   H278    1.106   .     S
C252   H276    1.110   .     S
C252   H277    1.110   .     S
C253   C254    1.520   .     S
C253   H279    1.112   .     S
C253   O325    1.415   .     S
C253   H280    1.110   .     S
C254   H283    1.110   .     S
C254   H282    1.107   .     S
C254   H281    1.111   .     S
C255   H285    1.095   .     S
C255   O326    1.411   .     S
C255   H286    1.111   .     S
C255   C256    1.527   .     S
C256   H288    1.111   .     S
C256   H287    1.111   .     S
C256   H289    1.105   .     S
C257   H291    1.111   .     S
C257   H290    1.115   .     S
C257   H292    1.109   .     S
C257   O327    1.413   .     S
C258   O328    1.411   .     S
C258   H294    1.109   .     S
C258   H293    1.109   .     S
C258   H296    1.114   .     S
C259   O329    1.412   .     S
C259   H298    1.110   .     S
C259   H299    1.109   .     S
C259   H297    1.115   .     S
C260   H300    1.109   .     S
C260   H301    1.109   .     S
C260   H1328   1.116   .     S
C260   O1356   1.413   .     S
C261   H303    1.115   .     S
C261   H304    1.106   .     S
C261   O331    1.417   .     S
C261   H305    1.106   .     S
C262   O340    1.307   .     A
C262   O339    1.298   .     A
C263   H309    1.116   .     S
C263   H308    1.107   .     S
C263   O332    1.414   .     S
C263   H307    1.108   .     S
C264   H311    1.109   .     S
C264   H310    1.113   .     S
C264   O333    1.412   .     S
C264   H312    1.109   .     S
C265   H313    1.108   .     S
C265   O335    1.406   .     S
C265   H314    1.113   .     S
C265   H315    1.107   .     S
C266   O342    1.380   .     S
C266   N322    1.380   .     A
C266   C953    1.432   1_545 S
C267   N321    1.377   .     A
C267   O324    1.385   .     S
C267   C610    1.440   .     S
C268   O325    1.385   .     S
C268   N322    1.368   .     A
C268   C951    1.440   1_545 S
C269   N321    1.374   .     A
C269   O326    1.390   .     S
C269   C608    1.432   .     S
C270   O331    1.374   .     S
Cu271  Cu272   2.707   .     S
Cu271  O323    1.974   .     S
Cu271  O338    1.939   .     S
Cu271  O340    1.955   .     S
Cu271  N321    2.035   .     S
Cu271  O336    1.977   .     S
Cu272  O337    1.977   .     S
Cu272  O341    1.955   .     S
Cu272  O334    1.974   .     S
Cu272  N322    2.035   .     S
Cu272  O339    1.939   .     S
H275   C934    1.111   1_545 S
H302   C1286   1.116   1_554 S
O330   C1286   1.413   1_554 S
C343   O451    1.310   .     A
C343   C361    1.468   .     S
C343   O437    1.296   .     A
C344   C360    1.409   .     A
C344   O446    1.382   .     S
C344   C460    1.398   .     S
C345   O447    1.387   .     S
C345   C360    1.404   .     A
C345   C498    1.391   .     S
C346   C361    1.411   .     A
C346   O449    1.383   .     S
C346   C572    1.398   1_455 S
C347   C358    1.407   .     A
C347   O441    1.389   .     S
C347   C351    1.405   .     A
C348   C359    1.406   .     A
C348   O442    1.391   .     S
C348   C352    1.405   .     A
C349   C353    1.401   .     A
C349   C359    1.404   .     A
C349   O443    1.391   .     S
C350   C355    1.389   .     A
C350   C358    1.411   .     A
C350   O444    1.384   .     S
C351   H387    1.081   .     S
C351   C356    1.398   .     A
C352   C357    1.399   .     A
C352   H398    1.082   .     S
C353   C357    1.395   .     A
C353   H409    1.072   .     S
C354   O448    1.298   .     A
C354   O450    1.301   .     A
C354   C360    1.453   .     S
C355   C356    1.391   .     A
C355   H420    1.075   .     S
C356   C365    1.453   .     S
C357   C376    1.460   .     S
C358   C1385   1.463   1_554 S
C359   C1384   1.463   .     S
C361   C384    1.408   .     A
C362   H431    1.111   .     S
C362   O456    1.404   .     S
C362   H430    1.099   .     S
C362   C363    1.529   .     S
C363   H432    1.102   .     S
C363   H433    1.107   .     S
C363   H434    1.108   .     S
C364   H388    1.108   .     S
C364   O438    1.421   .     S
C364   C366    1.520   .     S
C364   H731    1.111   .     S
C365   O455    1.306   .     A
C365   O452    1.295   .     A
C366   H392    1.106   .     S
C366   H390    1.110   .     S
C366   H391    1.110   .     S
C367   C368    1.520   .     S
C367   H393    1.112   .     S
C367   O439    1.415   .     S
C367   H394    1.110   .     S
C368   H397    1.110   .     S
C368   H396    1.107   .     S
C368   H395    1.111   .     S
C369   H399    1.095   .     S
C369   O440    1.411   .     S
C369   H400    1.111   .     S
C369   C370    1.527   .     S
C370   H402    1.111   .     S
C370   H401    1.111   .     S
C370   H403    1.105   .     S
C371   H405    1.111   .     S
C371   H404    1.115   .     S
C371   H406    1.109   .     S
C371   O441    1.413   .     S
C372   O442    1.411   .     S
C372   H408    1.109   .     S
C372   H407    1.109   .     S
C372   H410    1.114   .     S
C373   O443    1.412   .     S
C373   H412    1.110   .     S
C373   H413    1.109   .     S
C373   H411    1.115   .     S
C374   H414    1.109   .     S
C374   H415    1.109   .     S
C374   H1442   1.116   .     S
C374   O1470   1.413   .     S
C375   H417    1.115   .     S
C375   H418    1.106   .     S
C375   O445    1.417   .     S
C375   H419    1.106   .     S
C376   O454    1.307   .     A
C376   O453    1.298   .     A
C377   H423    1.116   .     S
C377   H422    1.107   .     S
C377   O446    1.414   .     S
C377   H421    1.108   .     S
C378   H425    1.109   .     S
C378   H424    1.113   .     S
C378   O447    1.412   .     S
C378   H426    1.109   .     S
C379   H427    1.108   .     S
C379   O449    1.406   .     S
C379   H428    1.113   .     S
C379   H429    1.107   .     S
C380   O456    1.380   .     S
C380   N436    1.380   .     A
C381   N435    1.377   .     A
C381   O438    1.385   .     S
C381   C724    1.440   .     S
C382   O439    1.385   .     S
C382   N436    1.368   .     A
C383   N435    1.374   .     A
C383   O440    1.390   .     S
C383   C722    1.432   .     S
C384   O445    1.374   .     S
C384   C573    1.391   1_455 S
Cu385  Cu386   2.707   .     S
Cu385  O437    1.974   .     S
Cu385  O452    1.939   .     S
Cu385  O454    1.955   .     S
Cu385  N435    2.035   .     S
Cu385  O450    1.977   .     S
Cu386  O451    1.977   .     S
Cu386  O455    1.955   .     S
Cu386  O448    1.974   .     S
Cu386  N436    2.035   .     S
Cu386  O453    1.939   .     S
H416   C1400   1.116   1_554 S
O444   C1400   1.413   1_554 S
C457   O565    1.310   .     A
C457   C475    1.468   .     S
C457   O551    1.296   .     A
C458   C474    1.409   .     A
C458   O560    1.382   .     S
C458   C574    1.398   .     S
C459   O561    1.387   .     S
C459   C474    1.404   .     A
C459   C612    1.391   .     S
C460   C475    1.411   .     A
C460   O563    1.383   .     S
C461   C472    1.407   .     A
C461   O555    1.389   .     S
C461   C465    1.405   .     A
C462   C473    1.406   .     A
C462   O556    1.391   .     S
C462   C466    1.405   .     A
C463   C467    1.401   .     A
C463   C473    1.404   .     A
C463   O557    1.391   .     S
C464   C469    1.389   .     A
C464   C472    1.411   .     A
C464   O558    1.384   .     S
C465   H501    1.081   .     S
C465   C470    1.398   .     A
C466   C471    1.399   .     A
C466   H512    1.082   .     S
C467   C471    1.395   .     A
C467   H523    1.072   .     S
C468   O562    1.298   .     A
C468   O564    1.301   .     A
C468   C474    1.453   .     S
C469   C470    1.391   .     A
C469   H534    1.075   .     S
C470   C479    1.453   .     S
C471   C490    1.460   .     S
C472   C1499   1.463   1_554 S
C473   C1498   1.463   .     S
C475   C498    1.408   .     A
C476   H545    1.111   .     S
C476   O570    1.404   .     S
C476   H544    1.099   .     S
C476   C477    1.529   .     S
C477   H546    1.102   .     S
C477   H547    1.107   .     S
C477   H548    1.108   .     S
C478   H502    1.108   .     S
C478   O552    1.421   .     S
C478   C480    1.520   .     S
C478   H845    1.111   .     S
C479   O569    1.306   .     A
C479   O566    1.295   .     A
C480   H506    1.106   .     S
C480   H504    1.110   .     S
C480   H505    1.110   .     S
C481   C482    1.520   .     S
C481   H507    1.112   .     S
C481   O553    1.415   .     S
C481   H508    1.110   .     S
C482   H511    1.110   .     S
C482   H510    1.107   .     S
C482   H509    1.111   .     S
C483   H513    1.095   .     S
C483   O554    1.411   .     S
C483   H514    1.111   .     S
C483   C484    1.527   .     S
C484   H516    1.111   .     S
C484   H515    1.111   .     S
C484   H517    1.105   .     S
C485   H519    1.111   .     S
C485   H518    1.115   .     S
C485   H520    1.109   .     S
C485   O555    1.413   .     S
C486   O556    1.411   .     S
C486   H522    1.109   .     S
C486   H521    1.109   .     S
C486   H524    1.114   .     S
C487   O557    1.412   .     S
C487   H526    1.110   .     S
C487   H527    1.109   .     S
C487   H525    1.115   .     S
C488   H528    1.109   .     S
C488   H529    1.109   .     S
C488   H1556   1.116   .     S
C488   O1584   1.413   .     S
C489   H531    1.115   .     S
C489   H532    1.106   .     S
C489   O559    1.417   .     S
C489   H533    1.106   .     S
C490   O568    1.307   .     A
C490   O567    1.298   .     A
C491   H537    1.116   .     S
C491   H536    1.107   .     S
C491   O560    1.414   .     S
C491   H535    1.108   .     S
C492   H539    1.109   .     S
C492   H538    1.113   .     S
C492   O561    1.412   .     S
C492   H540    1.109   .     S
C493   H541    1.108   .     S
C493   O563    1.406   .     S
C493   H542    1.113   .     S
C493   H543    1.107   .     S
C494   O570    1.380   .     S
C494   N550    1.380   .     A
C495   N549    1.377   .     A
C495   O552    1.385   .     S
C495   C838    1.440   .     S
C496   O553    1.385   .     S
C496   N550    1.368   .     A
C497   N549    1.374   .     A
C497   O554    1.390   .     S
C497   C836    1.432   .     S
C498   O559    1.374   .     S
Cu499  Cu500   2.707   .     S
Cu499  O551    1.974   .     S
Cu499  O566    1.939   .     S
Cu499  O568    1.955   .     S
Cu499  N549    2.035   .     S
Cu499  O564    1.977   .     S
Cu500  O565    1.977   .     S
Cu500  O569    1.955   .     S
Cu500  O562    1.974   .     S
Cu500  N550    2.035   .     S
Cu500  O567    1.939   .     S
H530   C1514   1.116   1_554 S
O558   C1514   1.413   1_554 S
C571   O679    1.310   .     A
C571   C589    1.468   .     S
C571   O665    1.296   .     A
C572   C588    1.409   .     A
C572   O674    1.382   .     S
C572   C346    1.398   1_655 S
C573   O675    1.387   .     S
C573   C588    1.404   .     A
C573   C384    1.391   1_655 S
C574   C589    1.411   .     A
C574   O677    1.383   .     S
C575   C586    1.407   .     A
C575   O669    1.389   .     S
C575   C579    1.405   .     A
C576   C587    1.406   .     A
C576   O670    1.391   .     S
C576   C580    1.405   .     A
C577   C581    1.401   .     A
C577   C587    1.404   .     A
C577   O671    1.391   .     S
C578   C583    1.389   .     A
C578   C586    1.411   .     A
C578   O672    1.384   .     S
C579   H615    1.081   .     S
C579   C584    1.398   .     A
C580   C585    1.399   .     A
C580   H626    1.082   .     S
C581   C585    1.395   .     A
C581   H637    1.072   .     S
C582   O676    1.298   .     A
C582   O678    1.301   .     A
C582   C588    1.453   .     S
C583   C584    1.391   .     A
C583   H648    1.075   .     S
C584   C593    1.453   .     S
C585   C604    1.460   .     S
C586   C1613   1.463   1_554 S
C587   C1612   1.463   .     S
C589   C612    1.408   .     A
C590   H659    1.111   .     S
C590   O684    1.404   .     S
C590   H658    1.099   .     S
C590   C591    1.529   .     S
C591   H660    1.102   .     S
C591   H661    1.107   .     S
C591   H662    1.108   .     S
C592   H616    1.108   .     S
C592   O666    1.421   .     S
C592   C594    1.520   .     S
C592   H959    1.111   .     S
C593   O683    1.306   .     A
C593   O680    1.295   .     A
C594   H620    1.106   .     S
C594   H618    1.110   .     S
C594   H619    1.110   .     S
C595   C596    1.520   .     S
C595   H621    1.112   .     S
C595   O667    1.415   .     S
C595   H622    1.110   .     S
C596   H625    1.110   .     S
C596   H624    1.107   .     S
C596   H623    1.111   .     S
C597   H627    1.095   .     S
C597   O668    1.411   .     S
C597   H628    1.111   .     S
C597   C598    1.527   .     S
C598   H630    1.111   .     S
C598   H629    1.111   .     S
C598   H631    1.105   .     S
C599   H633    1.111   .     S
C599   H632    1.115   .     S
C599   H634    1.109   .     S
C599   O669    1.413   .     S
C600   O670    1.411   .     S
C600   H636    1.109   .     S
C600   H635    1.109   .     S
C600   H638    1.114   .     S
C601   O671    1.412   .     S
C601   H640    1.110   .     S
C601   H641    1.109   .     S
C601   H639    1.115   .     S
C602   H642    1.109   .     S
C602   H643    1.109   .     S
C602   H1670   1.116   .     S
C602   O1698   1.413   .     S
C603   H645    1.115   .     S
C603   H646    1.106   .     S
C603   O673    1.417   .     S
C603   H647    1.106   .     S
C604   O682    1.307   .     A
C604   O681    1.298   .     A
C605   H651    1.116   .     S
C605   H650    1.107   .     S
C605   O674    1.414   .     S
C605   H649    1.108   .     S
C606   H653    1.109   .     S
C606   H652    1.113   .     S
C606   O675    1.412   .     S
C606   H654    1.109   .     S
C607   H655    1.108   .     S
C607   O677    1.406   .     S
C607   H656    1.113   .     S
C607   H657    1.107   .     S
C608   O684    1.380   .     S
C608   N664    1.380   .     A
C609   N663    1.377   .     A
C609   O666    1.385   .     S
C609   C952    1.440   .     S
C610   O667    1.385   .     S
C610   N664    1.368   .     A
C611   N663    1.374   .     A
C611   O668    1.390   .     S
C611   C950    1.432   .     S
C612   O673    1.374   .     S
Cu613  Cu614   2.707   .     S
Cu613  O665    1.974   .     S
Cu613  O680    1.939   .     S
Cu613  O682    1.955   .     S
Cu613  N663    2.035   .     S
Cu613  O678    1.977   .     S
Cu614  O679    1.977   .     S
Cu614  O683    1.955   .     S
Cu614  O676    1.974   .     S
Cu614  N664    2.035   .     S
Cu614  O681    1.939   .     S
H644   C1628   1.116   1_554 S
O672   C1628   1.413   1_554 S
C685   O793    1.310   .     A
C685   C703    1.468   .     S
C685   O779    1.296   .     A
C686   C702    1.409   .     A
C686   O788    1.382   .     S
C686   C802    1.398   .     S
C687   O789    1.387   .     S
C687   C702    1.404   .     A
C687   C840    1.391   .     S
C688   C703    1.411   .     A
C688   O791    1.383   .     S
C688   C914    1.398   1_455 S
C689   C700    1.407   .     A
C689   O783    1.389   .     S
C689   C693    1.405   .     A
C690   C701    1.406   .     A
C690   O784    1.391   .     S
C690   C694    1.405   .     A
C691   C695    1.401   .     A
C691   C701    1.404   .     A
C691   O785    1.391   .     S
C692   C697    1.389   .     A
C692   C700    1.411   .     A
C692   O786    1.384   .     S
C693   H729    1.081   .     S
C693   C698    1.398   .     A
C694   C699    1.399   .     A
C694   H740    1.082   .     S
C695   C699    1.395   .     A
C695   H751    1.072   .     S
C696   O790    1.298   .     A
C696   O792    1.301   .     A
C696   C702    1.453   .     S
C697   C698    1.391   .     A
C697   H762    1.075   .     S
C698   C707    1.453   .     S
C699   C718    1.460   .     S
C700   C1727   1.463   1_554 S
C701   C1726   1.463   .     S
C703   C726    1.408   .     A
C704   H773    1.111   .     S
C704   O798    1.404   .     S
C704   H772    1.099   .     S
C704   C705    1.529   .     S
C705   H774    1.102   .     S
C705   H775    1.107   .     S
C705   H776    1.108   .     S
C706   H730    1.108   .     S
C706   O780    1.421   .     S
C706   C708    1.520   .     S
C706   H47     1.111   1_565 S
C707   O797    1.306   .     A
C707   O794    1.295   .     A
C708   H734    1.106   .     S
C708   H732    1.110   .     S
C708   H733    1.110   .     S
C709   C710    1.520   .     S
C709   H735    1.112   .     S
C709   O781    1.415   .     S
C709   H736    1.110   .     S
C710   H739    1.110   .     S
C710   H738    1.107   .     S
C710   H737    1.111   .     S
C711   H741    1.095   .     S
C711   O782    1.411   .     S
C711   H742    1.111   .     S
C711   C712    1.527   .     S
C712   H744    1.111   .     S
C712   H743    1.111   .     S
C712   H745    1.105   .     S
C713   H747    1.111   .     S
C713   H746    1.115   .     S
C713   H748    1.109   .     S
C713   O783    1.413   .     S
C714   O784    1.411   .     S
C714   H750    1.109   .     S
C714   H749    1.109   .     S
C714   H752    1.114   .     S
C715   O785    1.412   .     S
C715   H754    1.110   .     S
C715   H755    1.109   .     S
C715   H753    1.115   .     S
C716   H756    1.109   .     S
C716   H757    1.109   .     S
C716   H1784   1.116   .     S
C716   O1812   1.413   .     S
C717   H759    1.115   .     S
C717   H760    1.106   .     S
C717   O787    1.417   .     S
C717   H761    1.106   .     S
C718   O796    1.307   .     A
C718   O795    1.298   .     A
C719   H765    1.116   .     S
C719   H764    1.107   .     S
C719   O788    1.414   .     S
C719   H763    1.108   .     S
C720   H767    1.109   .     S
C720   H766    1.113   .     S
C720   O789    1.412   .     S
C720   H768    1.109   .     S
C721   H769    1.108   .     S
C721   O791    1.406   .     S
C721   H770    1.113   .     S
C721   H771    1.107   .     S
C722   O798    1.380   .     S
C722   N778    1.380   .     A
C723   N777    1.377   .     A
C723   O780    1.385   .     S
C723   C40     1.440   1_565 S
C724   O781    1.385   .     S
C724   N778    1.368   .     A
C725   N777    1.374   .     A
C725   O782    1.390   .     S
C725   C38     1.432   1_565 S
C726   O787    1.374   .     S
C726   C915    1.391   1_455 S
Cu727  Cu728   2.707   .     S
Cu727  O779    1.974   .     S
Cu727  O794    1.939   .     S
Cu727  O796    1.955   .     S
Cu727  N777    2.035   .     S
Cu727  O792    1.977   .     S
Cu728  O793    1.977   .     S
Cu728  O797    1.955   .     S
Cu728  O790    1.974   .     S
Cu728  N778    2.035   .     S
Cu728  O795    1.939   .     S
H758   C1742   1.116   1_554 S
O786   C1742   1.413   1_554 S
C799   O907    1.310   .     A
C799   C817    1.468   .     S
C799   O893    1.296   .     A
C800   C816    1.409   .     A
C800   O902    1.382   .     S
C800   C916    1.398   .     S
C801   O903    1.387   .     S
C801   C816    1.404   .     A
C801   C954    1.391   .     S
C802   C817    1.411   .     A
C802   O905    1.383   .     S
C803   C814    1.407   .     A
C803   O897    1.389   .     S
C803   C807    1.405   .     A
C804   C815    1.406   .     A
C804   O898    1.391   .     S
C804   C808    1.405   .     A
C805   C809    1.401   .     A
C805   C815    1.404   .     A
C805   O899    1.391   .     S
C806   C811    1.389   .     A
C806   C814    1.411   .     A
C806   O900    1.384   .     S
C807   H843    1.081   .     S
C807   C812    1.398   .     A
C808   C813    1.399   .     A
C808   H854    1.082   .     S
C809   C813    1.395   .     A
C809   H865    1.072   .     S
C810   O904    1.298   .     A
C810   O906    1.301   .     A
C810   C816    1.453   .     S
C811   C812    1.391   .     A
C811   H876    1.075   .     S
C812   C821    1.453   .     S
C813   C832    1.460   .     S
C814   C1841   1.463   1_554 S
C815   C1840   1.463   .     S
C817   C840    1.408   .     A
C818   H887    1.111   .     S
C818   O912    1.404   .     S
C818   H886    1.099   .     S
C818   C819    1.529   .     S
C819   H888    1.102   .     S
C819   H889    1.107   .     S
C819   H890    1.108   .     S
C820   H844    1.108   .     S
C820   O894    1.421   .     S
C820   C822    1.520   .     S
C820   H161    1.111   1_565 S
C821   O911    1.306   .     A
C821   O908    1.295   .     A
C822   H848    1.106   .     S
C822   H846    1.110   .     S
C822   H847    1.110   .     S
C823   C824    1.520   .     S
C823   H849    1.112   .     S
C823   O895    1.415   .     S
C823   H850    1.110   .     S
C824   H853    1.110   .     S
C824   H852    1.107   .     S
C824   H851    1.111   .     S
C825   H855    1.095   .     S
C825   O896    1.411   .     S
C825   H856    1.111   .     S
C825   C826    1.527   .     S
C826   H858    1.111   .     S
C826   H857    1.111   .     S
C826   H859    1.105   .     S
C827   H861    1.111   .     S
C827   H860    1.115   .     S
C827   H862    1.109   .     S
C827   O897    1.413   .     S
C828   O898    1.411   .     S
C828   H864    1.109   .     S
C828   H863    1.109   .     S
C828   H866    1.114   .     S
C829   O899    1.412   .     S
C829   H868    1.110   .     S
C829   H869    1.109   .     S
C829   H867    1.115   .     S
C830   H870    1.109   .     S
C830   H871    1.109   .     S
C830   H1898   1.116   .     S
C830   O1926   1.413   .     S
C831   H873    1.115   .     S
C831   H874    1.106   .     S
C831   O901    1.417   .     S
C831   H875    1.106   .     S
C832   O910    1.307   .     A
C832   O909    1.298   .     A
C833   H879    1.116   .     S
C833   H878    1.107   .     S
C833   O902    1.414   .     S
C833   H877    1.108   .     S
C834   H881    1.109   .     S
C834   H880    1.113   .     S
C834   O903    1.412   .     S
C834   H882    1.109   .     S
C835   H883    1.108   .     S
C835   O905    1.406   .     S
C835   H884    1.113   .     S
C835   H885    1.107   .     S
C836   O912    1.380   .     S
C836   N892    1.380   .     A
C837   N891    1.377   .     A
C837   O894    1.385   .     S
C837   C154    1.440   1_565 S
C838   O895    1.385   .     S
C838   N892    1.368   .     A
C839   N891    1.374   .     A
C839   O896    1.390   .     S
C839   C152    1.432   1_565 S
C840   O901    1.374   .     S
Cu841  Cu842   2.707   .     S
Cu841  O893    1.974   .     S
Cu841  O908    1.939   .     S
Cu841  O910    1.955   .     S
Cu841  N891    2.035   .     S
Cu841  O906    1.977   .     S
Cu842  O907    1.977   .     S
Cu842  O911    1.955   .     S
Cu842  O904    1.974   .     S
Cu842  N892    2.035   .     S
Cu842  O909    1.939   .     S
H872   C1856   1.116   1_554 S
O900   C1856   1.413   1_554 S
C913   O1021   1.310   .     A
C913   C931    1.468   .     S
C913   O1007   1.296   .     A
C914   C930    1.409   .     A
C914   O1016   1.382   .     S
C914   C688    1.398   1_655 S
C915   O1017   1.387   .     S
C915   C930    1.404   .     A
C915   C726    1.391   1_655 S
C916   C931    1.411   .     A
C916   O1019   1.383   .     S
C917   C928    1.407   .     A
C917   O1011   1.389   .     S
C917   C921    1.405   .     A
C918   C929    1.406   .     A
C918   O1012   1.391   .     S
C918   C922    1.405   .     A
C919   C923    1.401   .     A
C919   C929    1.404   .     A
C919   O1013   1.391   .     S
C920   C925    1.389   .     A
C920   C928    1.411   .     A
C920   O1014   1.384   .     S
C921   H957    1.081   .     S
C921   C926    1.398   .     A
C922   C927    1.399   .     A
C922   H968    1.082   .     S
C923   C927    1.395   .     A
C923   H979    1.072   .     S
C924   O1018   1.298   .     A
C924   O1020   1.301   .     A
C924   C930    1.453   .     S
C925   C926    1.391   .     A
C925   H990    1.075   .     S
C926   C935    1.453   .     S
C927   C946    1.460   .     S
C928   C1955   1.463   1_554 S
C929   C1954   1.463   .     S
C931   C954    1.408   .     A
C932   H1001   1.111   .     S
C932   O1026   1.404   .     S
C932   H1000   1.099   .     S
C932   C933    1.529   .     S
C933   H1002   1.102   .     S
C933   H1003   1.107   .     S
C933   H1004   1.108   .     S
C934   H958    1.108   .     S
C934   O1008   1.421   .     S
C934   C936    1.520   .     S
C934   H275    1.111   1_565 S
C935   O1025   1.306   .     A
C935   O1022   1.295   .     A
C936   H962    1.106   .     S
C936   H960    1.110   .     S
C936   H961    1.110   .     S
C937   C938    1.520   .     S
C937   H963    1.112   .     S
C937   O1009   1.415   .     S
C937   H964    1.110   .     S
C938   H967    1.110   .     S
C938   H966    1.107   .     S
C938   H965    1.111   .     S
C939   H969    1.095   .     S
C939   O1010   1.411   .     S
C939   H970    1.111   .     S
C939   C940    1.527   .     S
C940   H972    1.111   .     S
C940   H971    1.111   .     S
C940   H973    1.105   .     S
C941   H975    1.111   .     S
C941   H974    1.115   .     S
C941   H976    1.109   .     S
C941   O1011   1.413   .     S
C942   O1012   1.411   .     S
C942   H978    1.109   .     S
C942   H977    1.109   .     S
C942   H980    1.114   .     S
C943   O1013   1.412   .     S
C943   H982    1.110   .     S
C943   H983    1.109   .     S
C943   H981    1.115   .     S
C944   H984    1.109   .     S
C944   H985    1.109   .     S
C944   H2012   1.116   .     S
C944   O2040   1.413   .     S
C945   H987    1.115   .     S
C945   H988    1.106   .     S
C945   O1015   1.417   .     S
C945   H989    1.106   .     S
C946   O1024   1.307   .     A
C946   O1023   1.298   .     A
C947   H993    1.116   .     S
C947   H992    1.107   .     S
C947   O1016   1.414   .     S
C947   H991    1.108   .     S
C948   H995    1.109   .     S
C948   H994    1.113   .     S
C948   O1017   1.412   .     S
C948   H996    1.109   .     S
C949   H997    1.108   .     S
C949   O1019   1.406   .     S
C949   H998    1.113   .     S
C949   H999    1.107   .     S
C950   O1026   1.380   .     S
C950   N1006   1.380   .     A
C951   N1005   1.377   .     A
C951   O1008   1.385   .     S
C951   C268    1.440   1_565 S
C952   O1009   1.385   .     S
C952   N1006   1.368   .     A
C953   N1005   1.374   .     A
C953   O1010   1.390   .     S
C953   C266    1.432   1_565 S
C954   O1015   1.374   .     S
Cu955  Cu956   2.707   .     S
Cu955  O1007   1.974   .     S
Cu955  O1022   1.939   .     S
Cu955  O1024   1.955   .     S
Cu955  N1005   2.035   .     S
Cu955  O1020   1.977   .     S
Cu956  O1021   1.977   .     S
Cu956  O1025   1.955   .     S
Cu956  O1018   1.974   .     S
Cu956  N1006   2.035   .     S
Cu956  O1023   1.939   .     S
H986   C1970   1.116   1_554 S
O1014  C1970   1.413   1_554 S
C1027  O1135   1.310   .     A
C1027  C1045   1.468   .     S
C1027  O1121   1.296   .     A
C1028  C1044   1.409   .     A
C1028  O1130   1.382   .     S
C1028  C1144   1.398   .     S
C1029  O1131   1.387   .     S
C1029  C1044   1.404   .     A
C1029  C1182   1.391   .     S
C1030  C1045   1.411   .     A
C1030  O1133   1.383   .     S
C1030  C1256   1.398   1_455 S
C1031  C1042   1.407   .     A
C1031  O1125   1.389   .     S
C1031  C1035   1.405   .     A
C1032  C1043   1.406   .     A
C1032  O1126   1.391   .     S
C1032  C1036   1.405   .     A
C1033  C1037   1.401   .     A
C1033  C1043   1.404   .     A
C1033  O1127   1.391   .     S
C1034  C1039   1.389   .     A
C1034  C1042   1.411   .     A
C1034  O1128   1.384   .     S
C1035  H1071   1.081   .     S
C1035  C1040   1.398   .     A
C1036  C1041   1.399   .     A
C1036  H1082   1.082   .     S
C1037  C1041   1.395   .     A
C1037  H1093   1.072   .     S
C1038  O1132   1.298   .     A
C1038  O1134   1.301   .     A
C1038  C1044   1.453   .     S
C1039  C1040   1.391   .     A
C1039  H1104   1.075   .     S
C1040  C1049   1.453   .     S
C1041  C1060   1.460   .     S
C1043  C16     1.463   1_556 S
C1045  C1068   1.408   .     A
C1046  H1115   1.111   .     S
C1046  O1140   1.404   .     S
C1046  H1114   1.099   .     S
C1046  C1047   1.529   .     S
C1047  H1116   1.102   .     S
C1047  H1117   1.107   .     S
C1047  H1118   1.108   .     S
C1048  H1072   1.108   .     S
C1048  O1122   1.421   .     S
C1048  C1050   1.520   .     S
C1048  H1415   1.111   .     S
C1049  O1139   1.306   .     A
C1049  O1136   1.295   .     A
C1050  H1076   1.106   .     S
C1050  H1074   1.110   .     S
C1050  H1075   1.110   .     S
C1051  C1052   1.520   .     S
C1051  H1077   1.112   .     S
C1051  O1123   1.415   .     S
C1051  H1078   1.110   .     S
C1052  H1081   1.110   .     S
C1052  H1080   1.107   .     S
C1052  H1079   1.111   .     S
C1053  H1083   1.095   .     S
C1053  O1124   1.411   .     S
C1053  H1084   1.111   .     S
C1053  C1054   1.527   .     S
C1054  H1086   1.111   .     S
C1054  H1085   1.111   .     S
C1054  H1087   1.105   .     S
C1055  H1089   1.111   .     S
C1055  H1088   1.115   .     S
C1055  H1090   1.109   .     S
C1055  O1125   1.413   .     S
C1056  O1126   1.411   .     S
C1056  H1092   1.109   .     S
C1056  H1091   1.109   .     S
C1056  H1094   1.114   .     S
C1057  O1127   1.412   .     S
C1057  H1096   1.110   .     S
C1057  H1097   1.109   .     S
C1057  H1095   1.115   .     S
C1058  H1098   1.109   .     S
C1058  H1099   1.109   .     S
C1058  H74     1.116   1_556 S
C1058  O102    1.413   1_556 S
C1059  H1101   1.115   .     S
C1059  H1102   1.106   .     S
C1059  O1129   1.417   .     S
C1059  H1103   1.106   .     S
C1060  O1138   1.307   .     A
C1060  O1137   1.298   .     A
C1061  H1107   1.116   .     S
C1061  H1106   1.107   .     S
C1061  O1130   1.414   .     S
C1061  H1105   1.108   .     S
C1062  H1109   1.109   .     S
C1062  H1108   1.113   .     S
C1062  O1131   1.412   .     S
C1062  H1110   1.109   .     S
C1063  H1111   1.108   .     S
C1063  O1133   1.406   .     S
C1063  H1112   1.113   .     S
C1063  H1113   1.107   .     S
C1064  O1140   1.380   .     S
C1064  N1120   1.380   .     A
C1064  C1751   1.432   1_545 S
C1065  N1119   1.377   .     A
C1065  O1122   1.385   .     S
C1065  C1408   1.440   .     S
C1066  O1123   1.385   .     S
C1066  N1120   1.368   .     A
C1066  C1749   1.440   1_545 S
C1067  N1119   1.374   .     A
C1067  O1124   1.390   .     S
C1067  C1406   1.432   .     S
C1068  O1129   1.374   .     S
C1068  C1257   1.391   1_455 S
Cu1069 Cu1070  2.707   .     S
Cu1069 O1121   1.974   .     S
Cu1069 O1136   1.939   .     S
Cu1069 O1138   1.955   .     S
Cu1069 N1119   2.035   .     S
Cu1069 O1134   1.977   .     S
Cu1070 O1135   1.977   .     S
Cu1070 O1139   1.955   .     S
Cu1070 O1132   1.974   .     S
Cu1070 N1120   2.035   .     S
Cu1070 O1137   1.939   .     S
H1073  C1732   1.111   1_545 S
C1141  O1249   1.310   .     A
C1141  C1159   1.468   .     S
C1141  O1235   1.296   .     A
C1142  C1158   1.409   .     A
C1142  O1244   1.382   .     S
C1142  C1258   1.398   .     S
C1143  O1245   1.387   .     S
C1143  C1158   1.404   .     A
C1143  C1296   1.391   .     S
C1144  C1159   1.411   .     A
C1144  O1247   1.383   .     S
C1145  C1156   1.407   .     A
C1145  O1239   1.389   .     S
C1145  C1149   1.405   .     A
C1146  C1157   1.406   .     A
C1146  O1240   1.391   .     S
C1146  C1150   1.405   .     A
C1147  C1151   1.401   .     A
C1147  C1157   1.404   .     A
C1147  O1241   1.391   .     S
C1148  C1153   1.389   .     A
C1148  C1156   1.411   .     A
C1148  O1242   1.384   .     S
C1149  H1185   1.081   .     S
C1149  C1154   1.398   .     A
C1150  C1155   1.399   .     A
C1150  H1196   1.082   .     S
C1151  C1155   1.395   .     A
C1151  H1207   1.072   .     S
C1152  O1246   1.298   .     A
C1152  O1248   1.301   .     A
C1152  C1158   1.453   .     S
C1153  C1154   1.391   .     A
C1153  H1218   1.075   .     S
C1154  C1163   1.453   .     S
C1155  C1174   1.460   .     S
C1157  C130    1.463   1_556 S
C1159  C1182   1.408   .     A
C1160  H1229   1.111   .     S
C1160  O1254   1.404   .     S
C1160  H1228   1.099   .     S
C1160  C1161   1.529   .     S
C1161  H1230   1.102   .     S
C1161  H1231   1.107   .     S
C1161  H1232   1.108   .     S
C1162  H1186   1.108   .     S
C1162  O1236   1.421   .     S
C1162  C1164   1.520   .     S
C1162  H1529   1.111   .     S
C1163  O1253   1.306   .     A
C1163  O1250   1.295   .     A
C1164  H1190   1.106   .     S
C1164  H1188   1.110   .     S
C1164  H1189   1.110   .     S
C1165  C1166   1.520   .     S
C1165  H1191   1.112   .     S
C1165  O1237   1.415   .     S
C1165  H1192   1.110   .     S
C1166  H1195   1.110   .     S
C1166  H1194   1.107   .     S
C1166  H1193   1.111   .     S
C1167  H1197   1.095   .     S
C1167  O1238   1.411   .     S
C1167  H1198   1.111   .     S
C1167  C1168   1.527   .     S
C1168  H1200   1.111   .     S
C1168  H1199   1.111   .     S
C1168  H1201   1.105   .     S
C1169  H1203   1.111   .     S
C1169  H1202   1.115   .     S
C1169  H1204   1.109   .     S
C1169  O1239   1.413   .     S
C1170  O1240   1.411   .     S
C1170  H1206   1.109   .     S
C1170  H1205   1.109   .     S
C1170  H1208   1.114   .     S
C1171  O1241   1.412   .     S
C1171  H1210   1.110   .     S
C1171  H1211   1.109   .     S
C1171  H1209   1.115   .     S
C1172  H1212   1.109   .     S
C1172  H1213   1.109   .     S
C1172  H188    1.116   1_556 S
C1172  O216    1.413   1_556 S
C1173  H1215   1.115   .     S
C1173  H1216   1.106   .     S
C1173  O1243   1.417   .     S
C1173  H1217   1.106   .     S
C1174  O1252   1.307   .     A
C1174  O1251   1.298   .     A
C1175  H1221   1.116   .     S
C1175  H1220   1.107   .     S
C1175  O1244   1.414   .     S
C1175  H1219   1.108   .     S
C1176  H1223   1.109   .     S
C1176  H1222   1.113   .     S
C1176  O1245   1.412   .     S
C1176  H1224   1.109   .     S
C1177  H1225   1.108   .     S
C1177  O1247   1.406   .     S
C1177  H1226   1.113   .     S
C1177  H1227   1.107   .     S
C1178  O1254   1.380   .     S
C1178  N1234   1.380   .     A
C1178  C1865   1.432   1_545 S
C1179  N1233   1.377   .     A
C1179  O1236   1.385   .     S
C1179  C1522   1.440   .     S
C1180  O1237   1.385   .     S
C1180  N1234   1.368   .     A
C1180  C1863   1.440   1_545 S
C1181  N1233   1.374   .     A
C1181  O1238   1.390   .     S
C1181  C1520   1.432   .     S
C1182  O1243   1.374   .     S
Cu1183 Cu1184  2.707   .     S
Cu1183 O1235   1.974   .     S
Cu1183 O1250   1.939   .     S
Cu1183 O1252   1.955   .     S
Cu1183 N1233   2.035   .     S
Cu1183 O1248   1.977   .     S
Cu1184 O1249   1.977   .     S
Cu1184 O1253   1.955   .     S
Cu1184 O1246   1.974   .     S
Cu1184 N1234   2.035   .     S
Cu1184 O1251   1.939   .     S
H1187  C1846   1.111   1_545 S
C1255  O1363   1.310   .     A
C1255  C1273   1.468   .     S
C1255  O1349   1.296   .     A
C1256  C1272   1.409   .     A
C1256  O1358   1.382   .     S
C1256  C1030   1.398   1_655 S
C1257  O1359   1.387   .     S
C1257  C1272   1.404   .     A
C1257  C1068   1.391   1_655 S
C1258  C1273   1.411   .     A
C1258  O1361   1.383   .     S
C1259  C1270   1.407   .     A
C1259  O1353   1.389   .     S
C1259  C1263   1.405   .     A
C1260  C1271   1.406   .     A
C1260  O1354   1.391   .     S
C1260  C1264   1.405   .     A
C1261  C1265   1.401   .     A
C1261  C1271   1.404   .     A
C1261  O1355   1.391   .     S
C1262  C1267   1.389   .     A
C1262  C1270   1.411   .     A
C1262  O1356   1.384   .     S
C1263  H1299   1.081   .     S
C1263  C1268   1.398   .     A
C1264  C1269   1.399   .     A
C1264  H1310   1.082   .     S
C1265  C1269   1.395   .     A
C1265  H1321   1.072   .     S
C1266  O1360   1.298   .     A
C1266  O1362   1.301   .     A
C1266  C1272   1.453   .     S
C1267  C1268   1.391   .     A
C1267  H1332   1.075   .     S
C1268  C1277   1.453   .     S
C1269  C1288   1.460   .     S
C1271  C244    1.463   1_556 S
C1273  C1296   1.408   .     A
C1274  H1343   1.111   .     S
C1274  O1368   1.404   .     S
C1274  H1342   1.099   .     S
C1274  C1275   1.529   .     S
C1275  H1344   1.102   .     S
C1275  H1345   1.107   .     S
C1275  H1346   1.108   .     S
C1276  H1300   1.108   .     S
C1276  O1350   1.421   .     S
C1276  C1278   1.520   .     S
C1276  H1643   1.111   .     S
C1277  O1367   1.306   .     A
C1277  O1364   1.295   .     A
C1278  H1304   1.106   .     S
C1278  H1302   1.110   .     S
C1278  H1303   1.110   .     S
C1279  C1280   1.520   .     S
C1279  H1305   1.112   .     S
C1279  O1351   1.415   .     S
C1279  H1306   1.110   .     S
C1280  H1309   1.110   .     S
C1280  H1308   1.107   .     S
C1280  H1307   1.111   .     S
C1281  H1311   1.095   .     S
C1281  O1352   1.411   .     S
C1281  H1312   1.111   .     S
C1281  C1282   1.527   .     S
C1282  H1314   1.111   .     S
C1282  H1313   1.111   .     S
C1282  H1315   1.105   .     S
C1283  H1317   1.111   .     S
C1283  H1316   1.115   .     S
C1283  H1318   1.109   .     S
C1283  O1353   1.413   .     S
C1284  O1354   1.411   .     S
C1284  H1320   1.109   .     S
C1284  H1319   1.109   .     S
C1284  H1322   1.114   .     S
C1285  O1355   1.412   .     S
C1285  H1324   1.110   .     S
C1285  H1325   1.109   .     S
C1285  H1323   1.115   .     S
C1286  H1326   1.109   .     S
C1286  H1327   1.109   .     S
C1286  H302    1.116   1_556 S
C1286  O330    1.413   1_556 S
C1287  H1329   1.115   .     S
C1287  H1330   1.106   .     S
C1287  O1357   1.417   .     S
C1287  H1331   1.106   .     S
C1288  O1366   1.307   .     A
C1288  O1365   1.298   .     A
C1289  H1335   1.116   .     S
C1289  H1334   1.107   .     S
C1289  O1358   1.414   .     S
C1289  H1333   1.108   .     S
C1290  H1337   1.109   .     S
C1290  H1336   1.113   .     S
C1290  O1359   1.412   .     S
C1290  H1338   1.109   .     S
C1291  H1339   1.108   .     S
C1291  O1361   1.406   .     S
C1291  H1340   1.113   .     S
C1291  H1341   1.107   .     S
C1292  O1368   1.380   .     S
C1292  N1348   1.380   .     A
C1292  C1979   1.432   1_545 S
C1293  N1347   1.377   .     A
C1293  O1350   1.385   .     S
C1293  C1636   1.440   .     S
C1294  O1351   1.385   .     S
C1294  N1348   1.368   .     A
C1294  C1977   1.440   1_545 S
C1295  N1347   1.374   .     A
C1295  O1352   1.390   .     S
C1295  C1634   1.432   .     S
C1296  O1357   1.374   .     S
Cu1297 Cu1298  2.707   .     S
Cu1297 O1349   1.974   .     S
Cu1297 O1364   1.939   .     S
Cu1297 O1366   1.955   .     S
Cu1297 N1347   2.035   .     S
Cu1297 O1362   1.977   .     S
Cu1298 O1363   1.977   .     S
Cu1298 O1367   1.955   .     S
Cu1298 O1360   1.974   .     S
Cu1298 N1348   2.035   .     S
Cu1298 O1365   1.939   .     S
H1301  C1960   1.111   1_545 S
C1369  O1477   1.310   .     A
C1369  C1387   1.468   .     S
C1369  O1463   1.296   .     A
C1370  C1386   1.409   .     A
C1370  O1472   1.382   .     S
C1370  C1486   1.398   .     S
C1371  O1473   1.387   .     S
C1371  C1386   1.404   .     A
C1371  C1524   1.391   .     S
C1372  C1387   1.411   .     A
C1372  O1475   1.383   .     S
C1372  C1598   1.398   1_455 S
C1373  C1384   1.407   .     A
C1373  O1467   1.389   .     S
C1373  C1377   1.405   .     A
C1374  C1385   1.406   .     A
C1374  O1468   1.391   .     S
C1374  C1378   1.405   .     A
C1375  C1379   1.401   .     A
C1375  C1385   1.404   .     A
C1375  O1469   1.391   .     S
C1376  C1381   1.389   .     A
C1376  C1384   1.411   .     A
C1376  O1470   1.384   .     S
C1377  H1413   1.081   .     S
C1377  C1382   1.398   .     A
C1378  C1383   1.399   .     A
C1378  H1424   1.082   .     S
C1379  C1383   1.395   .     A
C1379  H1435   1.072   .     S
C1380  O1474   1.298   .     A
C1380  O1476   1.301   .     A
C1380  C1386   1.453   .     S
C1381  C1382   1.391   .     A
C1381  H1446   1.075   .     S
C1382  C1391   1.453   .     S
C1383  C1402   1.460   .     S
C1385  C358    1.463   1_556 S
C1387  C1410   1.408   .     A
C1388  H1457   1.111   .     S
C1388  O1482   1.404   .     S
C1388  H1456   1.099   .     S
C1388  C1389   1.529   .     S
C1389  H1458   1.102   .     S
C1389  H1459   1.107   .     S
C1389  H1460   1.108   .     S
C1390  H1414   1.108   .     S
C1390  O1464   1.421   .     S
C1390  C1392   1.520   .     S
C1390  H1757   1.111   .     S
C1391  O1481   1.306   .     A
C1391  O1478   1.295   .     A
C1392  H1418   1.106   .     S
C1392  H1416   1.110   .     S
C1392  H1417   1.110   .     S
C1393  C1394   1.520   .     S
C1393  H1419   1.112   .     S
C1393  O1465   1.415   .     S
C1393  H1420   1.110   .     S
C1394  H1423   1.110   .     S
C1394  H1422   1.107   .     S
C1394  H1421   1.111   .     S
C1395  H1425   1.095   .     S
C1395  O1466   1.411   .     S
C1395  H1426   1.111   .     S
C1395  C1396   1.527   .     S
C1396  H1428   1.111   .     S
C1396  H1427   1.111   .     S
C1396  H1429   1.105   .     S
C1397  H1431   1.111   .     S
C1397  H1430   1.115   .     S
C1397  H1432   1.109   .     S
C1397  O1467   1.413   .     S
C1398  O1468   1.411   .     S
C1398  H1434   1.109   .     S
C1398  H1433   1.109   .     S
C1398  H1436   1.114   .     S
C1399  O1469   1.412   .     S
C1399  H1438   1.110   .     S
C1399  H1439   1.109   .     S
C1399  H1437   1.115   .     S
C1400  H1440   1.109   .     S
C1400  H1441   1.109   .     S
C1400  H416    1.116   1_556 S
C1400  O444    1.413   1_556 S
C1401  H1443   1.115   .     S
C1401  H1444   1.106   .     S
C1401  O1471   1.417   .     S
C1401  H1445   1.106   .     S
C1402  O1480   1.307   .     A
C1402  O1479   1.298   .     A
C1403  H1449   1.116   .     S
C1403  H1448   1.107   .     S
C1403  O1472   1.414   .     S
C1403  H1447   1.108   .     S
C1404  H1451   1.109   .     S
C1404  H1450   1.113   .     S
C1404  O1473   1.412   .     S
C1404  H1452   1.109   .     S
C1405  H1453   1.108   .     S
C1405  O1475   1.406   .     S
C1405  H1454   1.113   .     S
C1405  H1455   1.107   .     S
C1406  O1482   1.380   .     S
C1406  N1462   1.380   .     A
C1407  N1461   1.377   .     A
C1407  O1464   1.385   .     S
C1407  C1750   1.440   .     S
C1408  O1465   1.385   .     S
C1408  N1462   1.368   .     A
C1409  N1461   1.374   .     A
C1409  O1466   1.390   .     S
C1409  C1748   1.432   .     S
C1410  O1471   1.374   .     S
C1410  C1599   1.391   1_455 S
Cu1411 Cu1412  2.707   .     S
Cu1411 O1463   1.974   .     S
Cu1411 O1478   1.939   .     S
Cu1411 O1480   1.955   .     S
Cu1411 N1461   2.035   .     S
Cu1411 O1476   1.977   .     S
Cu1412 O1477   1.977   .     S
Cu1412 O1481   1.955   .     S
Cu1412 O1474   1.974   .     S
Cu1412 N1462   2.035   .     S
Cu1412 O1479   1.939   .     S
C1483  O1591   1.310   .     A
C1483  C1501   1.468   .     S
C1483  O1577   1.296   .     A
C1484  C1500   1.409   .     A
C1484  O1586   1.382   .     S
C1484  C1600   1.398   .     S
C1485  O1587   1.387   .     S
C1485  C1500   1.404   .     A
C1485  C1638   1.391   .     S
C1486  C1501   1.411   .     A
C1486  O1589   1.383   .     S
C1487  C1498   1.407   .     A
C1487  O1581   1.389   .     S
C1487  C1491   1.405   .     A
C1488  C1499   1.406   .     A
C1488  O1582   1.391   .     S
C1488  C1492   1.405   .     A
C1489  C1493   1.401   .     A
C1489  C1499   1.404   .     A
C1489  O1583   1.391   .     S
C1490  C1495   1.389   .     A
C1490  C1498   1.411   .     A
C1490  O1584   1.384   .     S
C1491  H1527   1.081   .     S
C1491  C1496   1.398   .     A
C1492  C1497   1.399   .     A
C1492  H1538   1.082   .     S
C1493  C1497   1.395   .     A
C1493  H1549   1.072   .     S
C1494  O1588   1.298   .     A
C1494  O1590   1.301   .     A
C1494  C1500   1.453   .     S
C1495  C1496   1.391   .     A
C1495  H1560   1.075   .     S
C1496  C1505   1.453   .     S
C1497  C1516   1.460   .     S
C1499  C472    1.463   1_556 S
C1501  C1524   1.408   .     A
C1502  H1571   1.111   .     S
C1502  O1596   1.404   .     S
C1502  H1570   1.099   .     S
C1502  C1503   1.529   .     S
C1503  H1572   1.102   .     S
C1503  H1573   1.107   .     S
C1503  H1574   1.108   .     S
C1504  H1528   1.108   .     S
C1504  O1578   1.421   .     S
C1504  C1506   1.520   .     S
C1504  H1871   1.111   .     S
C1505  O1595   1.306   .     A
C1505  O1592   1.295   .     A
C1506  H1532   1.106   .     S
C1506  H1530   1.110   .     S
C1506  H1531   1.110   .     S
C1507  C1508   1.520   .     S
C1507  H1533   1.112   .     S
C1507  O1579   1.415   .     S
C1507  H1534   1.110   .     S
C1508  H1537   1.110   .     S
C1508  H1536   1.107   .     S
C1508  H1535   1.111   .     S
C1509  H1539   1.095   .     S
C1509  O1580   1.411   .     S
C1509  H1540   1.111   .     S
C1509  C1510   1.527   .     S
C1510  H1542   1.111   .     S
C1510  H1541   1.111   .     S
C1510  H1543   1.105   .     S
C1511  H1545   1.111   .     S
C1511  H1544   1.115   .     S
C1511  H1546   1.109   .     S
C1511  O1581   1.413   .     S
C1512  O1582   1.411   .     S
C1512  H1548   1.109   .     S
C1512  H1547   1.109   .     S
C1512  H1550   1.114   .     S
C1513  O1583   1.412   .     S
C1513  H1552   1.110   .     S
C1513  H1553   1.109   .     S
C1513  H1551   1.115   .     S
C1514  H1554   1.109   .     S
C1514  H1555   1.109   .     S
C1514  H530    1.116   1_556 S
C1514  O558    1.413   1_556 S
C1515  H1557   1.115   .     S
C1515  H1558   1.106   .     S
C1515  O1585   1.417   .     S
C1515  H1559   1.106   .     S
C1516  O1594   1.307   .     A
C1516  O1593   1.298   .     A
C1517  H1563   1.116   .     S
C1517  H1562   1.107   .     S
C1517  O1586   1.414   .     S
C1517  H1561   1.108   .     S
C1518  H1565   1.109   .     S
C1518  H1564   1.113   .     S
C1518  O1587   1.412   .     S
C1518  H1566   1.109   .     S
C1519  H1567   1.108   .     S
C1519  O1589   1.406   .     S
C1519  H1568   1.113   .     S
C1519  H1569   1.107   .     S
C1520  O1596   1.380   .     S
C1520  N1576   1.380   .     A
C1521  N1575   1.377   .     A
C1521  O1578   1.385   .     S
C1521  C1864   1.440   .     S
C1522  O1579   1.385   .     S
C1522  N1576   1.368   .     A
C1523  N1575   1.374   .     A
C1523  O1580   1.390   .     S
C1523  C1862   1.432   .     S
C1524  O1585   1.374   .     S
Cu1525 Cu1526  2.707   .     S
Cu1525 O1577   1.974   .     S
Cu1525 O1592   1.939   .     S
Cu1525 O1594   1.955   .     S
Cu1525 N1575   2.035   .     S
Cu1525 O1590   1.977   .     S
Cu1526 O1591   1.977   .     S
Cu1526 O1595   1.955   .     S
Cu1526 O1588   1.974   .     S
Cu1526 N1576   2.035   .     S
Cu1526 O1593   1.939   .     S
C1597  O1705   1.310   .     A
C1597  C1615   1.468   .     S
C1597  O1691   1.296   .     A
C1598  C1614   1.409   .     A
C1598  O1700   1.382   .     S
C1598  C1372   1.398   1_655 S
C1599  O1701   1.387   .     S
C1599  C1614   1.404   .     A
C1599  C1410   1.391   1_655 S
C1600  C1615   1.411   .     A
C1600  O1703   1.383   .     S
C1601  C1612   1.407   .     A
C1601  O1695   1.389   .     S
C1601  C1605   1.405   .     A
C1602  C1613   1.406   .     A
C1602  O1696   1.391   .     S
C1602  C1606   1.405   .     A
C1603  C1607   1.401   .     A
C1603  C1613   1.404   .     A
C1603  O1697   1.391   .     S
C1604  C1609   1.389   .     A
C1604  C1612   1.411   .     A
C1604  O1698   1.384   .     S
C1605  H1641   1.081   .     S
C1605  C1610   1.398   .     A
C1606  C1611   1.399   .     A
C1606  H1652   1.082   .     S
C1607  C1611   1.395   .     A
C1607  H1663   1.072   .     S
C1608  O1702   1.298   .     A
C1608  O1704   1.301   .     A
C1608  C1614   1.453   .     S
C1609  C1610   1.391   .     A
C1609  H1674   1.075   .     S
C1610  C1619   1.453   .     S
C1611  C1630   1.460   .     S
C1613  C586    1.463   1_556 S
C1615  C1638   1.408   .     A
C1616  H1685   1.111   .     S
C1616  O1710   1.404   .     S
C1616  H1684   1.099   .     S
C1616  C1617   1.529   .     S
C1617  H1686   1.102   .     S
C1617  H1687   1.107   .     S
C1617  H1688   1.108   .     S
C1618  H1642   1.108   .     S
C1618  O1692   1.421   .     S
C1618  C1620   1.520   .     S
C1618  H1985   1.111   .     S
C1619  O1709   1.306   .     A
C1619  O1706   1.295   .     A
C1620  H1646   1.106   .     S
C1620  H1644   1.110   .     S
C1620  H1645   1.110   .     S
C1621  C1622   1.520   .     S
C1621  H1647   1.112   .     S
C1621  O1693   1.415   .     S
C1621  H1648   1.110   .     S
C1622  H1651   1.110   .     S
C1622  H1650   1.107   .     S
C1622  H1649   1.111   .     S
C1623  H1653   1.095   .     S
C1623  O1694   1.411   .     S
C1623  H1654   1.111   .     S
C1623  C1624   1.527   .     S
C1624  H1656   1.111   .     S
C1624  H1655   1.111   .     S
C1624  H1657   1.105   .     S
C1625  H1659   1.111   .     S
C1625  H1658   1.115   .     S
C1625  H1660   1.109   .     S
C1625  O1695   1.413   .     S
C1626  O1696   1.411   .     S
C1626  H1662   1.109   .     S
C1626  H1661   1.109   .     S
C1626  H1664   1.114   .     S
C1627  O1697   1.412   .     S
C1627  H1666   1.110   .     S
C1627  H1667   1.109   .     S
C1627  H1665   1.115   .     S
C1628  H1668   1.109   .     S
C1628  H1669   1.109   .     S
C1628  H644    1.116   1_556 S
C1628  O672    1.413   1_556 S
C1629  H1671   1.115   .     S
C1629  H1672   1.106   .     S
C1629  O1699   1.417   .     S
C1629  H1673   1.106   .     S
C1630  O1708   1.307   .     A
C1630  O1707   1.298   .     A
C1631  H1677   1.116   .     S
C1631  H1676   1.107   .     S
C1631  O1700   1.414   .     S
C1631  H1675   1.108   .     S
C1632  H1679   1.109   .     S
C1632  H1678   1.113   .     S
C1632  O1701   1.412   .     S
C1632  H1680   1.109   .     S
C1633  H1681   1.108   .     S
C1633  O1703   1.406   .     S
C1633  H1682   1.113   .     S
C1633  H1683   1.107   .     S
C1634  O1710   1.380   .     S
C1634  N1690   1.380   .     A
C1635  N1689   1.377   .     A
C1635  O1692   1.385   .     S
C1635  C1978   1.440   .     S
C1636  O1693   1.385   .     S
C1636  N1690   1.368   .     A
C1637  N1689   1.374   .     A
C1637  O1694   1.390   .     S
C1637  C1976   1.432   .     S
C1638  O1699   1.374   .     S
Cu1639 Cu1640  2.707   .     S
Cu1639 O1691   1.974   .     S
Cu1639 O1706   1.939   .     S
Cu1639 O1708   1.955   .     S
Cu1639 N1689   2.035   .     S
Cu1639 O1704   1.977   .     S
Cu1640 O1705   1.977   .     S
Cu1640 O1709   1.955   .     S
Cu1640 O1702   1.974   .     S
Cu1640 N1690   2.035   .     S
Cu1640 O1707   1.939   .     S
C1711  O1819   1.310   .     A
C1711  C1729   1.468   .     S
C1711  O1805   1.296   .     A
C1712  C1728   1.409   .     A
C1712  O1814   1.382   .     S
C1712  C1828   1.398   .     S
C1713  O1815   1.387   .     S
C1713  C1728   1.404   .     A
C1713  C1866   1.391   .     S
C1714  C1729   1.411   .     A
C1714  O1817   1.383   .     S
C1714  C1940   1.398   1_455 S
C1715  C1726   1.407   .     A
C1715  O1809   1.389   .     S
C1715  C1719   1.405   .     A
C1716  C1727   1.406   .     A
C1716  O1810   1.391   .     S
C1716  C1720   1.405   .     A
C1717  C1721   1.401   .     A
C1717  C1727   1.404   .     A
C1717  O1811   1.391   .     S
C1718  C1723   1.389   .     A
C1718  C1726   1.411   .     A
C1718  O1812   1.384   .     S
C1719  H1755   1.081   .     S
C1719  C1724   1.398   .     A
C1720  C1725   1.399   .     A
C1720  H1766   1.082   .     S
C1721  C1725   1.395   .     A
C1721  H1777   1.072   .     S
C1722  O1816   1.298   .     A
C1722  O1818   1.301   .     A
C1722  C1728   1.453   .     S
C1723  C1724   1.391   .     A
C1723  H1788   1.075   .     S
C1724  C1733   1.453   .     S
C1725  C1744   1.460   .     S
C1727  C700    1.463   1_556 S
C1729  C1752   1.408   .     A
C1730  H1799   1.111   .     S
C1730  O1824   1.404   .     S
C1730  H1798   1.099   .     S
C1730  C1731   1.529   .     S
C1731  H1800   1.102   .     S
C1731  H1801   1.107   .     S
C1731  H1802   1.108   .     S
C1732  H1756   1.108   .     S
C1732  O1806   1.421   .     S
C1732  C1734   1.520   .     S
C1732  H1073   1.111   1_565 S
C1733  O1823   1.306   .     A
C1733  O1820   1.295   .     A
C1734  H1760   1.106   .     S
C1734  H1758   1.110   .     S
C1734  H1759   1.110   .     S
C1735  C1736   1.520   .     S
C1735  H1761   1.112   .     S
C1735  O1807   1.415   .     S
C1735  H1762   1.110   .     S
C1736  H1765   1.110   .     S
C1736  H1764   1.107   .     S
C1736  H1763   1.111   .     S
C1737  H1767   1.095   .     S
C1737  O1808   1.411   .     S
C1737  H1768   1.111   .     S
C1737  C1738   1.527   .     S
C1738  H1770   1.111   .     S
C1738  H1769   1.111   .     S
C1738  H1771   1.105   .     S
C1739  H1773   1.111   .     S
C1739  H1772   1.115   .     S
C1739  H1774   1.109   .     S
C1739  O1809   1.413   .     S
C1740  O1810   1.411   .     S
C1740  H1776   1.109   .     S
C1740  H1775   1.109   .     S
C1740  H1778   1.114   .     S
C1741  O1811   1.412   .     S
C1741  H1780   1.110   .     S
C1741  H1781   1.109   .     S
C1741  H1779   1.115   .     S
C1742  H1782   1.109   .     S
C1742  H1783   1.109   .     S
C1742  H758    1.116   1_556 S
C1742  O786    1.413   1_556 S
C1743  H1785   1.115   .     S
C1743  H1786   1.106   .     S
C1743  O1813   1.417   .     S
C1743  H1787   1.106   .     S
C1744  O1822   1.307   .     A
C1744  O1821   1.298   .     A
C1745  H1791   1.116   .     S
C1745  H1790   1.107   .     S
C1745  O1814   1.414   .     S
C1745  H1789   1.108   .     S
C1746  H1793   1.109   .     S
C1746  H1792   1.113   .     S
C1746  O1815   1.412   .     S
C1746  H1794   1.109   .     S
C1747  H1795   1.108   .     S
C1747  O1817   1.406   .     S
C1747  H1796   1.113   .     S
C1747  H1797   1.107   .     S
C1748  O1824   1.380   .     S
C1748  N1804   1.380   .     A
C1749  N1803   1.377   .     A
C1749  O1806   1.385   .     S
C1749  C1066   1.440   1_565 S
C1750  O1807   1.385   .     S
C1750  N1804   1.368   .     A
C1751  N1803   1.374   .     A
C1751  O1808   1.390   .     S
C1751  C1064   1.432   1_565 S
C1752  O1813   1.374   .     S
C1752  C1941   1.391   1_455 S
Cu1753 Cu1754  2.707   .     S
Cu1753 O1805   1.974   .     S
Cu1753 O1820   1.939   .     S
Cu1753 O1822   1.955   .     S
Cu1753 N1803   2.035   .     S
Cu1753 O1818   1.977   .     S
Cu1754 O1819   1.977   .     S
Cu1754 O1823   1.955   .     S
Cu1754 O1816   1.974   .     S
Cu1754 N1804   2.035   .     S
Cu1754 O1821   1.939   .     S
C1825  O1933   1.310   .     A
C1825  C1843   1.468   .     S
C1825  O1919   1.296   .     A
C1826  C1842   1.409   .     A
C1826  O1928   1.382   .     S
C1826  C1942   1.398   .     S
C1827  O1929   1.387   .     S
C1827  C1842   1.404   .     A
C1827  C1980   1.391   .     S
C1828  C1843   1.411   .     A
C1828  O1931   1.383   .     S
C1829  C1840   1.407   .     A
C1829  O1923   1.389   .     S
C1829  C1833   1.405   .     A
C1830  C1841   1.406   .     A
C1830  O1924   1.391   .     S
C1830  C1834   1.405   .     A
C1831  C1835   1.401   .     A
C1831  C1841   1.404   .     A
C1831  O1925   1.391   .     S
C1832  C1837   1.389   .     A
C1832  C1840   1.411   .     A
C1832  O1926   1.384   .     S
C1833  H1869   1.081   .     S
C1833  C1838   1.398   .     A
C1834  C1839   1.399   .     A
C1834  H1880   1.082   .     S
C1835  C1839   1.395   .     A
C1835  H1891   1.072   .     S
C1836  O1930   1.298   .     A
C1836  O1932   1.301   .     A
C1836  C1842   1.453   .     S
C1837  C1838   1.391   .     A
C1837  H1902   1.075   .     S
C1838  C1847   1.453   .     S
C1839  C1858   1.460   .     S
C1841  C814    1.463   1_556 S
C1843  C1866   1.408   .     A
C1844  H1913   1.111   .     S
C1844  O1938   1.404   .     S
C1844  H1912   1.099   .     S
C1844  C1845   1.529   .     S
C1845  H1914   1.102   .     S
C1845  H1915   1.107   .     S
C1845  H1916   1.108   .     S
C1846  H1870   1.108   .     S
C1846  O1920   1.421   .     S
C1846  C1848   1.520   .     S
C1846  H1187   1.111   1_565 S
C1847  O1937   1.306   .     A
C1847  O1934   1.295   .     A
C1848  H1874   1.106   .     S
C1848  H1872   1.110   .     S
C1848  H1873   1.110   .     S
C1849  C1850   1.520   .     S
C1849  H1875   1.112   .     S
C1849  O1921   1.415   .     S
C1849  H1876   1.110   .     S
C1850  H1879   1.110   .     S
C1850  H1878   1.107   .     S
C1850  H1877   1.111   .     S
C1851  H1881   1.095   .     S
C1851  O1922   1.411   .     S
C1851  H1882   1.111   .     S
C1851  C1852   1.527   .     S
C1852  H1884   1.111   .     S
C1852  H1883   1.111   .     S
C1852  H1885   1.105   .     S
C1853  H1887   1.111   .     S
C1853  H1886   1.115   .     S
C1853  H1888   1.109   .     S
C1853  O1923   1.413   .     S
C1854  O1924   1.411   .     S
C1854  H1890   1.109   .     S
C1854  H1889   1.109   .     S
C1854  H1892   1.114   .     S
C1855  O1925   1.412   .     S
C1855  H1894   1.110   .     S
C1855  H1895   1.109   .     S
C1855  H1893   1.115   .     S
C1856  H1896   1.109   .     S
C1856  H1897   1.109   .     S
C1856  H872    1.116   1_556 S
C1856  O900    1.413   1_556 S
C1857  H1899   1.115   .     S
C1857  H1900   1.106   .     S
C1857  O1927   1.417   .     S
C1857  H1901   1.106   .     S
C1858  O1936   1.307   .     A
C1858  O1935   1.298   .     A
C1859  H1905   1.116   .     S
C1859  H1904   1.107   .     S
C1859  O1928   1.414   .     S
C1859  H1903   1.108   .     S
C1860  H1907   1.109   .     S
C1860  H1906   1.113   .     S
C1860  O1929   1.412   .     S
C1860  H1908   1.109   .     S
C1861  H1909   1.108   .     S
C1861  O1931   1.406   .     S
C1861  H1910   1.113   .     S
C1861  H1911   1.107   .     S
C1862  O1938   1.380   .     S
C1862  N1918   1.380   .     A
C1863  N1917   1.377   .     A
C1863  O1920   1.385   .     S
C1863  C1180   1.440   1_565 S
C1864  O1921   1.385   .     S
C1864  N1918   1.368   .     A
C1865  N1917   1.374   .     A
C1865  O1922   1.390   .     S
C1865  C1178   1.432   1_565 S
C1866  O1927   1.374   .     S
Cu1867 Cu1868  2.707   .     S
Cu1867 O1919   1.974   .     S
Cu1867 O1934   1.939   .     S
Cu1867 O1936   1.955   .     S
Cu1867 N1917   2.035   .     S
Cu1867 O1932   1.977   .     S
Cu1868 O1933   1.977   .     S
Cu1868 O1937   1.955   .     S
Cu1868 O1930   1.974   .     S
Cu1868 N1918   2.035   .     S
Cu1868 O1935   1.939   .     S
C1939  O2047   1.310   .     A
C1939  C1957   1.468   .     S
C1939  O2033   1.296   .     A
C1940  C1956   1.409   .     A
C1940  O2042   1.382   .     S
C1940  C1714   1.398   1_655 S
C1941  O2043   1.387   .     S
C1941  C1956   1.404   .     A
C1941  C1752   1.391   1_655 S
C1942  C1957   1.411   .     A
C1942  O2045   1.383   .     S
C1943  C1954   1.407   .     A
C1943  O2037   1.389   .     S
C1943  C1947   1.405   .     A
C1944  C1955   1.406   .     A
C1944  O2038   1.391   .     S
C1944  C1948   1.405   .     A
C1945  C1949   1.401   .     A
C1945  C1955   1.404   .     A
C1945  O2039   1.391   .     S
C1946  C1951   1.389   .     A
C1946  C1954   1.411   .     A
C1946  O2040   1.384   .     S
C1947  H1983   1.081   .     S
C1947  C1952   1.398   .     A
C1948  C1953   1.399   .     A
C1948  H1994   1.082   .     S
C1949  C1953   1.395   .     A
C1949  H2005   1.072   .     S
C1950  O2044   1.298   .     A
C1950  O2046   1.301   .     A
C1950  C1956   1.453   .     S
C1951  C1952   1.391   .     A
C1951  H2016   1.075   .     S
C1952  C1961   1.453   .     S
C1953  C1972   1.460   .     S
C1955  C928    1.463   1_556 S
C1957  C1980   1.408   .     A
C1958  H2027   1.111   .     S
C1958  O2052   1.404   .     S
C1958  H2026   1.099   .     S
C1958  C1959   1.529   .     S
C1959  H2028   1.102   .     S
C1959  H2029   1.107   .     S
C1959  H2030   1.108   .     S
C1960  H1984   1.108   .     S
C1960  O2034   1.421   .     S
C1960  C1962   1.520   .     S
C1960  H1301   1.111   1_565 S
C1961  O2051   1.306   .     A
C1961  O2048   1.295   .     A
C1962  H1988   1.106   .     S
C1962  H1986   1.110   .     S
C1962  H1987   1.110   .     S
C1963  C1964   1.520   .     S
C1963  H1989   1.112   .     S
C1963  O2035   1.415   .     S
C1963  H1990   1.110   .     S
C1964  H1993   1.110   .     S
C1964  H1992   1.107   .     S
C1964  H1991   1.111   .     S
C1965  H1995   1.095   .     S
C1965  O2036   1.411   .     S
C1965  H1996   1.111   .     S
C1965  C1966   1.527   .     S
C1966  H1998   1.111   .     S
C1966  H1997   1.111   .     S
C1966  H1999   1.105   .     S
C1967  H2001   1.111   .     S
C1967  H2000   1.115   .     S
C1967  H2002   1.109   .     S
C1967  O2037   1.413   .     S
C1968  O2038   1.411   .     S
C1968  H2004   1.109   .     S
C1968  H2003   1.109   .     S
C1968  H2006   1.114   .     S
C1969  O2039   1.412   .     S
C1969  H2008   1.110   .     S
C1969  H2009   1.109   .     S
C1969  H2007   1.115   .     S
C1970  H2010   1.109   .     S
C1970  H2011   1.109   .     S
C1970  H986    1.116   1_556 S
C1970  O1014   1.413   1_556 S
C1971  H2013   1.115   .     S
C1971  H2014   1.106   .     S
C1971  O2041   1.417   .     S
C1971  H2015   1.106   .     S
C1972  O2050   1.307   .     A
C1972  O2049   1.298   .     A
C1973  H2019   1.116   .     S
C1973  H2018   1.107   .     S
C1973  O2042   1.414   .     S
C1973  H2017   1.108   .     S
C1974  H2021   1.109   .     S
C1974  H2020   1.113   .     S
C1974  O2043   1.412   .     S
C1974  H2022   1.109   .     S
C1975  H2023   1.108   .     S
C1975  O2045   1.406   .     S
C1975  H2024   1.113   .     S
C1975  H2025   1.107   .     S
C1976  O2052   1.380   .     S
C1976  N2032   1.380   .     A
C1977  N2031   1.377   .     A
C1977  O2034   1.385   .     S
C1977  C1294   1.440   1_565 S
C1978  O2035   1.385   .     S
C1978  N2032   1.368   .     A
C1979  N2031   1.374   .     A
C1979  O2036   1.390   .     S
C1979  C1292   1.432   1_565 S
C1980  O2041   1.374   .     S
Cu1981 Cu1982  2.707   .     S
Cu1981 O2033   1.974   .     S
Cu1981 O2048   1.939   .     S
Cu1981 O2050   1.955   .     S
Cu1981 N2031   2.035   .     S
Cu1981 O2046   1.977   .     S
Cu1982 O2047   1.977   .     S
Cu1982 O2051   1.955   .     S
Cu1982 O2044   1.974   .     S
Cu1982 N2032   2.035   .     S
Cu1982 O2049   1.939   .     S
