data_str_m2_o1_o18_pcu_sym.110
_audit_creation_date              2020-01-03
_audit_creation_method            'Materials Studio'
_symmetry_space_group_name_H-M    'P1'
_symmetry_Int_Tables_number       1
_symmetry_cell_setting            triclinic
loop_
_symmetry_equiv_pos_as_xyz
  x,y,z
_cell_length_a                    28.5893
_cell_length_b                    32.4060
_cell_length_c                    30.9935
_cell_angle_alpha                 89.9738
_cell_angle_beta                  74.4865
_cell_angle_gamma                 90.0452
loop_
_atom_site_label
_atom_site_type_symbol
_atom_site_fract_x
_atom_site_fract_y
_atom_site_fract_z
_atom_site_U_iso_or_equiv
_atom_site_adp_type
_atom_site_occupancy
C1     C     0.33329   0.08754   0.25003   0.00000  Uiso   1.00
C2     C     0.00003   0.24578   0.25001   0.00000  Uiso   1.00
C3     C     0.19509   0.17444   0.04722   0.00000  Uiso   1.00
C4     C     0.14125   0.14230   0.45532   0.00000  Uiso   1.00
C5     C     0.24364   0.17921   0.02462   0.00000  Uiso   1.00
C6     C     0.09280   0.13701   0.47803   0.00000  Uiso   1.00
C7     C     0.31941   0.02153   0.21584   0.00000  Uiso   1.00
C8     C     0.01376   0.31177   0.28432   0.00000  Uiso   1.00
C9     C     0.31960   0.31175   0.21575   0.00000  Uiso   1.00
C10    C     0.01365   0.02156   0.28437   0.00000  Uiso   1.00
C11    C     0.00006   0.29045   0.25001   0.00000  Uiso   1.00
C12    C     0.33322   0.04287   0.25008   0.00000  Uiso   1.00
C13    C     0.18262   0.14350   0.28025   0.00000  Uiso   1.00
C14    C     0.15071   0.18983   0.21975   0.00000  Uiso   1.00
C15    C     0.13304   0.14355   0.28027   0.00000  Uiso   1.00
C16    C     0.20029   0.18978   0.21973   0.00000  Uiso   1.00
C17    C     0.30611   0.16676   0.33606   0.00000  Uiso   1.00
C18    C     0.02723   0.16629   0.16396   0.00000  Uiso   1.00
C19    C     0.29116   0.16762   0.38516   0.00000  Uiso   1.00
C20    C     0.04236   0.16252   0.11506   0.00000  Uiso   1.00
C21    C     0.30824   0.18051   0.45616   0.00000  Uiso   1.00
C22    C     0.02720   0.14048   0.04563   0.00000  Uiso   1.00
C23    C     0.32428   0.17681   0.40982   0.00000  Uiso   1.00
C24    C     0.01021   0.14868   0.09122   0.00000  Uiso   1.00
C25    C     0.24234   0.16075   0.40734   0.00000  Uiso   1.00
C26    C     0.09109   0.16942   0.09272   0.00000  Uiso   1.00
C27    C     0.22533   0.16330   0.45420   0.00000  Uiso   1.00
C28    C     0.10960   0.16005   0.04705   0.00000  Uiso   1.00
C29    C     0.25913   0.17423   0.47845   0.00000  Uiso   1.00
C30    C     0.07647   0.14597   0.02343   0.00000  Uiso   1.00
C31    C     0.17561   0.15665   0.47739   0.00000  Uiso   1.00
C32    C     0.15988   0.16408   0.02437   0.00000  Uiso   1.00
Cu33   Cu    0.04689   0.16667   0.25000   0.00000  Uiso   1.00
Cu34   Cu    0.28645   0.16666   0.25000   0.00000  Uiso   1.00
H35    H     0.26920   0.18739   0.04350   0.00000  Uiso   1.00
H36    H     0.06785   0.12576   0.45979   0.00000  Uiso   1.00
H37    H     0.11374   0.18214   0.11205   0.00000  Uiso   1.00
H38    H     0.21805   0.15467   0.38696   0.00000  Uiso   1.00
H39    H     0.30568   0.14313   0.10797   0.00000  Uiso   1.00
H40    H     0.02888   0.18232   0.39325   0.00000  Uiso   1.00
H41    H     0.00081   0.18898   0.47454   0.00000  Uiso   1.00
H42    H     0.00197   0.12903   0.02786   0.00000  Uiso   1.00
H43    H     0.18677   0.17834   0.08294   0.00000  Uiso   1.00
H44    H     0.15060   0.13370   0.42053   0.00000  Uiso   1.00
H45    H     0.19419   0.12483   0.30445   0.00000  Uiso   1.00
H46    H     0.13915   0.20849   0.19555   0.00000  Uiso   1.00
H47    H     0.10732   0.12500   0.30450   0.00000  Uiso   1.00
H48    H     0.22601   0.20833   0.19550   0.00000  Uiso   1.00
N49    N     0.11736   0.16668   0.24999   0.00000  Uiso   1.00
N50    N     0.21597   0.16666   0.25001   0.00000  Uiso   1.00
O51    O     0.03958   0.10655   0.25000   0.00000  Uiso   1.00
O52    O     0.29375   0.22678   0.25000   0.00000  Uiso   1.00
O53    O     0.29372   0.10654   0.25001   0.00000  Uiso   1.00
O54    O     0.03961   0.22679   0.25000   0.00000  Uiso   1.00
O55    O     0.01852   0.16668   0.31492   0.00000  Uiso   1.00
O56    O     0.31481   0.16666   0.18509   0.00000  Uiso   1.00
O57    O     0.27267   0.16667   0.31492   0.00000  Uiso   1.00
O58    O     0.06067   0.16667   0.18508   0.00000  Uiso   1.00
C59    C     0.30642   0.04386   0.18006   0.00000  Uiso   1.00
N60    N     0.29604   0.06160   0.15156   0.00000  Uiso   1.00
C61    C     0.02641   0.28938   0.32025   0.00000  Uiso   1.00
N62    N     0.03646   0.27153   0.34885   0.00000  Uiso   1.00
C63    C     0.30731   0.28938   0.17964   0.00000  Uiso   1.00
N64    N     0.29759   0.27154   0.15086   0.00000  Uiso   1.00
C65    C     0.02593   0.04394   0.32048   0.00000  Uiso   1.00
N66    N     0.03563   0.06177   0.34926   0.00000  Uiso   1.00
C67    C     0.66662   0.08754   0.25003   0.00000  Uiso   1.00
C68    C     0.33336   0.24578   0.25001   0.00000  Uiso   1.00
C69    C     0.52842   0.17444   0.04722   0.00000  Uiso   1.00
C70    C     0.47458   0.14230   0.45532   0.00000  Uiso   1.00
C71    C     0.57697   0.17921   0.02462   0.00000  Uiso   1.00
C72    C     0.42613   0.13701   0.47803   0.00000  Uiso   1.00
C73    C     0.65274   0.02153   0.21584   0.00000  Uiso   1.00
C74    C     0.34710   0.31177   0.28432   0.00000  Uiso   1.00
C75    C     0.65294   0.31175   0.21575   0.00000  Uiso   1.00
C76    C     0.34699   0.02156   0.28437   0.00000  Uiso   1.00
C77    C     0.33340   0.29045   0.25001   0.00000  Uiso   1.00
C78    C     0.66655   0.04287   0.25008   0.00000  Uiso   1.00
C79    C     0.51596   0.14350   0.28025   0.00000  Uiso   1.00
C80    C     0.48404   0.18983   0.21975   0.00000  Uiso   1.00
C81    C     0.46638   0.14355   0.28027   0.00000  Uiso   1.00
C82    C     0.53362   0.18978   0.21973   0.00000  Uiso   1.00
C83    C     0.63944   0.16676   0.33606   0.00000  Uiso   1.00
C84    C     0.36056   0.16629   0.16396   0.00000  Uiso   1.00
C85    C     0.62450   0.16762   0.38516   0.00000  Uiso   1.00
C86    C     0.37569   0.16252   0.11506   0.00000  Uiso   1.00
C87    C     0.64157   0.18051   0.45616   0.00000  Uiso   1.00
C88    C     0.36054   0.14048   0.04563   0.00000  Uiso   1.00
C89    C     0.65761   0.17681   0.40982   0.00000  Uiso   1.00
C90    C     0.34354   0.14868   0.09122   0.00000  Uiso   1.00
C91    C     0.57567   0.16075   0.40734   0.00000  Uiso   1.00
C92    C     0.42442   0.16942   0.09272   0.00000  Uiso   1.00
C93    C     0.55866   0.16330   0.45420   0.00000  Uiso   1.00
C94    C     0.44294   0.16005   0.04705   0.00000  Uiso   1.00
C95    C     0.59246   0.17423   0.47845   0.00000  Uiso   1.00
C96    C     0.40981   0.14597   0.02343   0.00000  Uiso   1.00
C97    C     0.50894   0.15665   0.47739   0.00000  Uiso   1.00
C98    C     0.49321   0.16408   0.02437   0.00000  Uiso   1.00
Cu99   Cu    0.38022   0.16667   0.25000   0.00000  Uiso   1.00
Cu100  Cu    0.61978   0.16666   0.25000   0.00000  Uiso   1.00
H101   H     0.60253   0.18739   0.04350   0.00000  Uiso   1.00
H102   H     0.40119   0.12576   0.45979   0.00000  Uiso   1.00
H103   H     0.44707   0.18214   0.11205   0.00000  Uiso   1.00
H104   H     0.55138   0.15467   0.38696   0.00000  Uiso   1.00
H105   H     0.63901   0.14313   0.10797   0.00000  Uiso   1.00
H106   H     0.36221   0.18232   0.39325   0.00000  Uiso   1.00
H107   H     0.33414   0.18898   0.47454   0.00000  Uiso   1.00
H108   H     0.33530   0.12903   0.02786   0.00000  Uiso   1.00
H109   H     0.52011   0.17834   0.08294   0.00000  Uiso   1.00
H110   H     0.48394   0.13370   0.42053   0.00000  Uiso   1.00
H111   H     0.52752   0.12483   0.30445   0.00000  Uiso   1.00
H112   H     0.47248   0.20849   0.19555   0.00000  Uiso   1.00
H113   H     0.44066   0.12500   0.30450   0.00000  Uiso   1.00
H114   H     0.55934   0.20833   0.19550   0.00000  Uiso   1.00
N115   N     0.45069   0.16668   0.24999   0.00000  Uiso   1.00
N116   N     0.54931   0.16666   0.25001   0.00000  Uiso   1.00
O117   O     0.37291   0.10655   0.25000   0.00000  Uiso   1.00
O118   O     0.62709   0.22678   0.25000   0.00000  Uiso   1.00
O119   O     0.62706   0.10654   0.25001   0.00000  Uiso   1.00
O120   O     0.37294   0.22679   0.25000   0.00000  Uiso   1.00
O121   O     0.35186   0.16668   0.31492   0.00000  Uiso   1.00
O122   O     0.64814   0.16666   0.18509   0.00000  Uiso   1.00
O123   O     0.60600   0.16667   0.31492   0.00000  Uiso   1.00
O124   O     0.39400   0.16667   0.18508   0.00000  Uiso   1.00
C125   C     0.63975   0.04386   0.18006   0.00000  Uiso   1.00
N126   N     0.62937   0.06160   0.15156   0.00000  Uiso   1.00
C127   C     0.35974   0.28938   0.32025   0.00000  Uiso   1.00
N128   N     0.36979   0.27153   0.34885   0.00000  Uiso   1.00
C129   C     0.64064   0.28938   0.17964   0.00000  Uiso   1.00
N130   N     0.63093   0.27154   0.15086   0.00000  Uiso   1.00
C131   C     0.35926   0.04394   0.32048   0.00000  Uiso   1.00
N132   N     0.36897   0.06177   0.34926   0.00000  Uiso   1.00
C133   C     0.99996   0.08754   0.25003   0.00000  Uiso   1.00
C134   C     0.66670   0.24578   0.25001   0.00000  Uiso   1.00
C135   C     0.86175   0.17444   0.04722   0.00000  Uiso   1.00
C136   C     0.80791   0.14230   0.45532   0.00000  Uiso   1.00
C137   C     0.91030   0.17921   0.02462   0.00000  Uiso   1.00
C138   C     0.75946   0.13701   0.47803   0.00000  Uiso   1.00
C139   C     0.98608   0.02153   0.21584   0.00000  Uiso   1.00
C140   C     0.68043   0.31177   0.28432   0.00000  Uiso   1.00
C141   C     0.98627   0.31175   0.21575   0.00000  Uiso   1.00
C142   C     0.68032   0.02156   0.28437   0.00000  Uiso   1.00
C143   C     0.66673   0.29045   0.25001   0.00000  Uiso   1.00
C144   C     0.99989   0.04287   0.25008   0.00000  Uiso   1.00
C145   C     0.84929   0.14350   0.28025   0.00000  Uiso   1.00
C146   C     0.81738   0.18983   0.21975   0.00000  Uiso   1.00
C147   C     0.79971   0.14355   0.28027   0.00000  Uiso   1.00
C148   C     0.86696   0.18978   0.21973   0.00000  Uiso   1.00
C149   C     0.97277   0.16676   0.33606   0.00000  Uiso   1.00
C150   C     0.69390   0.16629   0.16396   0.00000  Uiso   1.00
C151   C     0.95783   0.16762   0.38516   0.00000  Uiso   1.00
C152   C     0.70903   0.16252   0.11506   0.00000  Uiso   1.00
C153   C     0.97491   0.18051   0.45616   0.00000  Uiso   1.00
C154   C     0.69387   0.14048   0.04563   0.00000  Uiso   1.00
C155   C     0.99095   0.17681   0.40982   0.00000  Uiso   1.00
C156   C     0.67688   0.14868   0.09122   0.00000  Uiso   1.00
C157   C     0.90900   0.16075   0.40734   0.00000  Uiso   1.00
C158   C     0.75775   0.16942   0.09272   0.00000  Uiso   1.00
C159   C     0.89200   0.16330   0.45420   0.00000  Uiso   1.00
C160   C     0.77627   0.16005   0.04705   0.00000  Uiso   1.00
C161   C     0.92580   0.17423   0.47845   0.00000  Uiso   1.00
C162   C     0.74314   0.14597   0.02343   0.00000  Uiso   1.00
C163   C     0.84228   0.15665   0.47739   0.00000  Uiso   1.00
C164   C     0.82655   0.16408   0.02437   0.00000  Uiso   1.00
Cu165  Cu    0.71355   0.16667   0.25000   0.00000  Uiso   1.00
Cu166  Cu    0.95311   0.16666   0.25000   0.00000  Uiso   1.00
H167   H     0.93586   0.18739   0.04350   0.00000  Uiso   1.00
H168   H     0.73452   0.12576   0.45979   0.00000  Uiso   1.00
H169   H     0.78041   0.18214   0.11205   0.00000  Uiso   1.00
H170   H     0.88472   0.15467   0.38696   0.00000  Uiso   1.00
H171   H     0.97234   0.14313   0.10797   0.00000  Uiso   1.00
H172   H     0.69554   0.18232   0.39325   0.00000  Uiso   1.00
H173   H     0.66747   0.18898   0.47454   0.00000  Uiso   1.00
H174   H     0.66864   0.12903   0.02786   0.00000  Uiso   1.00
H175   H     0.85344   0.17834   0.08294   0.00000  Uiso   1.00
H176   H     0.81727   0.13370   0.42053   0.00000  Uiso   1.00
H177   H     0.86085   0.12483   0.30445   0.00000  Uiso   1.00
H178   H     0.80582   0.20849   0.19555   0.00000  Uiso   1.00
H179   H     0.77399   0.12500   0.30450   0.00000  Uiso   1.00
H180   H     0.89267   0.20833   0.19550   0.00000  Uiso   1.00
N181   N     0.78403   0.16668   0.24999   0.00000  Uiso   1.00
N182   N     0.88264   0.16666   0.25001   0.00000  Uiso   1.00
O183   O     0.70625   0.10655   0.25000   0.00000  Uiso   1.00
O184   O     0.96042   0.22678   0.25000   0.00000  Uiso   1.00
O185   O     0.96039   0.10654   0.25001   0.00000  Uiso   1.00
O186   O     0.70628   0.22679   0.25000   0.00000  Uiso   1.00
O187   O     0.68519   0.16668   0.31492   0.00000  Uiso   1.00
O188   O     0.98148   0.16666   0.18509   0.00000  Uiso   1.00
O189   O     0.93933   0.16667   0.31492   0.00000  Uiso   1.00
O190   O     0.72733   0.16667   0.18508   0.00000  Uiso   1.00
C191   C     0.97309   0.04386   0.18006   0.00000  Uiso   1.00
N192   N     0.96271   0.06160   0.15156   0.00000  Uiso   1.00
C193   C     0.69307   0.28938   0.32025   0.00000  Uiso   1.00
N194   N     0.70312   0.27153   0.34885   0.00000  Uiso   1.00
C195   C     0.97398   0.28938   0.17964   0.00000  Uiso   1.00
N196   N     0.96426   0.27154   0.15086   0.00000  Uiso   1.00
C197   C     0.69260   0.04394   0.32048   0.00000  Uiso   1.00
N198   N     0.70230   0.06177   0.34926   0.00000  Uiso   1.00
C199   C     0.33329   0.42088   0.25003   0.00000  Uiso   1.00
C200   C     0.00003   0.57912   0.25001   0.00000  Uiso   1.00
C201   C     0.19509   0.50777   0.04722   0.00000  Uiso   1.00
C202   C     0.14125   0.47564   0.45532   0.00000  Uiso   1.00
C203   C     0.24364   0.51254   0.02462   0.00000  Uiso   1.00
C204   C     0.09280   0.47034   0.47803   0.00000  Uiso   1.00
C205   C     0.31941   0.35487   0.21584   0.00000  Uiso   1.00
C206   C     0.01376   0.64510   0.28432   0.00000  Uiso   1.00
C207   C     0.31960   0.64509   0.21575   0.00000  Uiso   1.00
C208   C     0.01365   0.35489   0.28437   0.00000  Uiso   1.00
C209   C     0.00006   0.62378   0.25001   0.00000  Uiso   1.00
C210   C     0.33322   0.37620   0.25008   0.00000  Uiso   1.00
C211   C     0.18262   0.47683   0.28025   0.00000  Uiso   1.00
C212   C     0.15071   0.52316   0.21975   0.00000  Uiso   1.00
C213   C     0.13304   0.47688   0.28027   0.00000  Uiso   1.00
C214   C     0.20029   0.52312   0.21973   0.00000  Uiso   1.00
C215   C     0.30611   0.50009   0.33606   0.00000  Uiso   1.00
C216   C     0.02723   0.49963   0.16396   0.00000  Uiso   1.00
C217   C     0.29116   0.50096   0.38516   0.00000  Uiso   1.00
C218   C     0.04236   0.49585   0.11506   0.00000  Uiso   1.00
C219   C     0.30824   0.51384   0.45616   0.00000  Uiso   1.00
C220   C     0.02720   0.47382   0.04563   0.00000  Uiso   1.00
C221   C     0.32428   0.51014   0.40982   0.00000  Uiso   1.00
C222   C     0.01021   0.48201   0.09122   0.00000  Uiso   1.00
C223   C     0.24234   0.49409   0.40734   0.00000  Uiso   1.00
C224   C     0.09109   0.50275   0.09272   0.00000  Uiso   1.00
C225   C     0.22533   0.49664   0.45420   0.00000  Uiso   1.00
C226   C     0.10960   0.49339   0.04705   0.00000  Uiso   1.00
C227   C     0.25913   0.50756   0.47845   0.00000  Uiso   1.00
C228   C     0.07647   0.47930   0.02343   0.00000  Uiso   1.00
C229   C     0.17561   0.48998   0.47739   0.00000  Uiso   1.00
C230   C     0.15988   0.49741   0.02437   0.00000  Uiso   1.00
Cu231  Cu    0.04689   0.50001   0.25000   0.00000  Uiso   1.00
Cu232  Cu    0.28645   0.49999   0.25000   0.00000  Uiso   1.00
H233   H     0.26920   0.52072   0.04350   0.00000  Uiso   1.00
H234   H     0.06785   0.45910   0.45979   0.00000  Uiso   1.00
H235   H     0.11374   0.51547   0.11205   0.00000  Uiso   1.00
H236   H     0.21805   0.48800   0.38696   0.00000  Uiso   1.00
H237   H     0.30568   0.47646   0.10797   0.00000  Uiso   1.00
H238   H     0.02888   0.51566   0.39325   0.00000  Uiso   1.00
H239   H     0.00081   0.52231   0.47454   0.00000  Uiso   1.00
H240   H     0.00197   0.46236   0.02786   0.00000  Uiso   1.00
H241   H     0.18677   0.51168   0.08294   0.00000  Uiso   1.00
H242   H     0.15060   0.46703   0.42053   0.00000  Uiso   1.00
H243   H     0.19419   0.45816   0.30445   0.00000  Uiso   1.00
H244   H     0.13915   0.54183   0.19555   0.00000  Uiso   1.00
H245   H     0.10732   0.45833   0.30450   0.00000  Uiso   1.00
H246   H     0.22601   0.54166   0.19550   0.00000  Uiso   1.00
N247   N     0.11736   0.50001   0.24999   0.00000  Uiso   1.00
N248   N     0.21597   0.49999   0.25001   0.00000  Uiso   1.00
O249   O     0.03958   0.43989   0.25000   0.00000  Uiso   1.00
O250   O     0.29375   0.56011   0.25000   0.00000  Uiso   1.00
O251   O     0.29372   0.43988   0.25001   0.00000  Uiso   1.00
O252   O     0.03961   0.56012   0.25000   0.00000  Uiso   1.00
O253   O     0.01852   0.50001   0.31492   0.00000  Uiso   1.00
O254   O     0.31481   0.49999   0.18509   0.00000  Uiso   1.00
O255   O     0.27267   0.50000   0.31492   0.00000  Uiso   1.00
O256   O     0.06067   0.50000   0.18508   0.00000  Uiso   1.00
C257   C     0.30642   0.37719   0.18006   0.00000  Uiso   1.00
N258   N     0.29604   0.39494   0.15156   0.00000  Uiso   1.00
C259   C     0.02641   0.62271   0.32025   0.00000  Uiso   1.00
N260   N     0.03646   0.60486   0.34885   0.00000  Uiso   1.00
C261   C     0.30731   0.62271   0.17964   0.00000  Uiso   1.00
N262   N     0.29759   0.60488   0.15086   0.00000  Uiso   1.00
C263   C     0.02593   0.37727   0.32048   0.00000  Uiso   1.00
N264   N     0.03563   0.39511   0.34926   0.00000  Uiso   1.00
C265   C     0.66662   0.42088   0.25003   0.00000  Uiso   1.00
C266   C     0.33336   0.57912   0.25001   0.00000  Uiso   1.00
C267   C     0.52842   0.50777   0.04722   0.00000  Uiso   1.00
C268   C     0.47458   0.47564   0.45532   0.00000  Uiso   1.00
C269   C     0.57697   0.51254   0.02462   0.00000  Uiso   1.00
C270   C     0.42613   0.47034   0.47803   0.00000  Uiso   1.00
C271   C     0.65274   0.35487   0.21584   0.00000  Uiso   1.00
C272   C     0.34710   0.64510   0.28432   0.00000  Uiso   1.00
C273   C     0.65294   0.64509   0.21575   0.00000  Uiso   1.00
C274   C     0.34699   0.35489   0.28437   0.00000  Uiso   1.00
C275   C     0.33340   0.62378   0.25001   0.00000  Uiso   1.00
C276   C     0.66655   0.37620   0.25008   0.00000  Uiso   1.00
C277   C     0.51596   0.47683   0.28025   0.00000  Uiso   1.00
C278   C     0.48404   0.52316   0.21975   0.00000  Uiso   1.00
C279   C     0.46638   0.47688   0.28027   0.00000  Uiso   1.00
C280   C     0.53362   0.52312   0.21973   0.00000  Uiso   1.00
C281   C     0.63944   0.50009   0.33606   0.00000  Uiso   1.00
C282   C     0.36056   0.49963   0.16396   0.00000  Uiso   1.00
C283   C     0.62450   0.50096   0.38516   0.00000  Uiso   1.00
C284   C     0.37569   0.49585   0.11506   0.00000  Uiso   1.00
C285   C     0.64157   0.51384   0.45616   0.00000  Uiso   1.00
C286   C     0.36054   0.47382   0.04563   0.00000  Uiso   1.00
C287   C     0.65761   0.51014   0.40982   0.00000  Uiso   1.00
C288   C     0.34354   0.48201   0.09122   0.00000  Uiso   1.00
C289   C     0.57567   0.49409   0.40734   0.00000  Uiso   1.00
C290   C     0.42442   0.50275   0.09272   0.00000  Uiso   1.00
C291   C     0.55866   0.49664   0.45420   0.00000  Uiso   1.00
C292   C     0.44294   0.49339   0.04705   0.00000  Uiso   1.00
C293   C     0.59246   0.50756   0.47845   0.00000  Uiso   1.00
C294   C     0.40981   0.47930   0.02343   0.00000  Uiso   1.00
C295   C     0.50894   0.48998   0.47739   0.00000  Uiso   1.00
C296   C     0.49321   0.49741   0.02437   0.00000  Uiso   1.00
Cu297  Cu    0.38022   0.50001   0.25000   0.00000  Uiso   1.00
Cu298  Cu    0.61978   0.49999   0.25000   0.00000  Uiso   1.00
H299   H     0.60253   0.52072   0.04350   0.00000  Uiso   1.00
H300   H     0.40119   0.45910   0.45979   0.00000  Uiso   1.00
H301   H     0.44707   0.51547   0.11205   0.00000  Uiso   1.00
H302   H     0.55138   0.48800   0.38696   0.00000  Uiso   1.00
H303   H     0.63901   0.47646   0.10797   0.00000  Uiso   1.00
H304   H     0.36221   0.51566   0.39325   0.00000  Uiso   1.00
H305   H     0.33414   0.52231   0.47454   0.00000  Uiso   1.00
H306   H     0.33530   0.46236   0.02786   0.00000  Uiso   1.00
H307   H     0.52011   0.51168   0.08294   0.00000  Uiso   1.00
H308   H     0.48394   0.46703   0.42053   0.00000  Uiso   1.00
H309   H     0.52752   0.45816   0.30445   0.00000  Uiso   1.00
H310   H     0.47248   0.54183   0.19555   0.00000  Uiso   1.00
H311   H     0.44066   0.45833   0.30450   0.00000  Uiso   1.00
H312   H     0.55934   0.54166   0.19550   0.00000  Uiso   1.00
N313   N     0.45069   0.50001   0.24999   0.00000  Uiso   1.00
N314   N     0.54931   0.49999   0.25001   0.00000  Uiso   1.00
O315   O     0.37291   0.43989   0.25000   0.00000  Uiso   1.00
O316   O     0.62709   0.56011   0.25000   0.00000  Uiso   1.00
O317   O     0.62706   0.43988   0.25001   0.00000  Uiso   1.00
O318   O     0.37294   0.56012   0.25000   0.00000  Uiso   1.00
O319   O     0.35186   0.50001   0.31492   0.00000  Uiso   1.00
O320   O     0.64814   0.49999   0.18509   0.00000  Uiso   1.00
O321   O     0.60600   0.50000   0.31492   0.00000  Uiso   1.00
O322   O     0.39400   0.50000   0.18508   0.00000  Uiso   1.00
C323   C     0.63975   0.37719   0.18006   0.00000  Uiso   1.00
N324   N     0.62937   0.39494   0.15156   0.00000  Uiso   1.00
C325   C     0.35974   0.62271   0.32025   0.00000  Uiso   1.00
N326   N     0.36979   0.60486   0.34885   0.00000  Uiso   1.00
C327   C     0.64064   0.62271   0.17964   0.00000  Uiso   1.00
N328   N     0.63093   0.60488   0.15086   0.00000  Uiso   1.00
C329   C     0.35926   0.37727   0.32048   0.00000  Uiso   1.00
N330   N     0.36897   0.39511   0.34926   0.00000  Uiso   1.00
C331   C     0.99996   0.42088   0.25003   0.00000  Uiso   1.00
C332   C     0.66670   0.57912   0.25001   0.00000  Uiso   1.00
C333   C     0.86175   0.50777   0.04722   0.00000  Uiso   1.00
C334   C     0.80791   0.47564   0.45532   0.00000  Uiso   1.00
C335   C     0.91030   0.51254   0.02462   0.00000  Uiso   1.00
C336   C     0.75946   0.47034   0.47803   0.00000  Uiso   1.00
C337   C     0.98608   0.35487   0.21584   0.00000  Uiso   1.00
C338   C     0.68043   0.64510   0.28432   0.00000  Uiso   1.00
C339   C     0.98627   0.64509   0.21575   0.00000  Uiso   1.00
C340   C     0.68032   0.35489   0.28437   0.00000  Uiso   1.00
C341   C     0.66673   0.62378   0.25001   0.00000  Uiso   1.00
C342   C     0.99989   0.37620   0.25008   0.00000  Uiso   1.00
C343   C     0.84929   0.47683   0.28025   0.00000  Uiso   1.00
C344   C     0.81738   0.52316   0.21975   0.00000  Uiso   1.00
C345   C     0.79971   0.47688   0.28027   0.00000  Uiso   1.00
C346   C     0.86696   0.52312   0.21973   0.00000  Uiso   1.00
C347   C     0.97277   0.50009   0.33606   0.00000  Uiso   1.00
C348   C     0.69390   0.49963   0.16396   0.00000  Uiso   1.00
C349   C     0.95783   0.50096   0.38516   0.00000  Uiso   1.00
C350   C     0.70903   0.49585   0.11506   0.00000  Uiso   1.00
C351   C     0.97491   0.51384   0.45616   0.00000  Uiso   1.00
C352   C     0.69387   0.47382   0.04563   0.00000  Uiso   1.00
C353   C     0.99095   0.51014   0.40982   0.00000  Uiso   1.00
C354   C     0.67688   0.48201   0.09122   0.00000  Uiso   1.00
C355   C     0.90900   0.49409   0.40734   0.00000  Uiso   1.00
C356   C     0.75775   0.50275   0.09272   0.00000  Uiso   1.00
C357   C     0.89200   0.49664   0.45420   0.00000  Uiso   1.00
C358   C     0.77627   0.49339   0.04705   0.00000  Uiso   1.00
C359   C     0.92580   0.50756   0.47845   0.00000  Uiso   1.00
C360   C     0.74314   0.47930   0.02343   0.00000  Uiso   1.00
C361   C     0.84228   0.48998   0.47739   0.00000  Uiso   1.00
C362   C     0.82655   0.49741   0.02437   0.00000  Uiso   1.00
Cu363  Cu    0.71355   0.50001   0.25000   0.00000  Uiso   1.00
Cu364  Cu    0.95311   0.49999   0.25000   0.00000  Uiso   1.00
H365   H     0.93586   0.52072   0.04350   0.00000  Uiso   1.00
H366   H     0.73452   0.45910   0.45979   0.00000  Uiso   1.00
H367   H     0.78041   0.51547   0.11205   0.00000  Uiso   1.00
H368   H     0.88472   0.48800   0.38696   0.00000  Uiso   1.00
H369   H     0.97234   0.47646   0.10797   0.00000  Uiso   1.00
H370   H     0.69554   0.51566   0.39325   0.00000  Uiso   1.00
H371   H     0.66747   0.52231   0.47454   0.00000  Uiso   1.00
H372   H     0.66864   0.46236   0.02786   0.00000  Uiso   1.00
H373   H     0.85344   0.51168   0.08294   0.00000  Uiso   1.00
H374   H     0.81727   0.46703   0.42053   0.00000  Uiso   1.00
H375   H     0.86085   0.45816   0.30445   0.00000  Uiso   1.00
H376   H     0.80582   0.54183   0.19555   0.00000  Uiso   1.00
H377   H     0.77399   0.45833   0.30450   0.00000  Uiso   1.00
H378   H     0.89267   0.54166   0.19550   0.00000  Uiso   1.00
N379   N     0.78403   0.50001   0.24999   0.00000  Uiso   1.00
N380   N     0.88264   0.49999   0.25001   0.00000  Uiso   1.00
O381   O     0.70625   0.43989   0.25000   0.00000  Uiso   1.00
O382   O     0.96042   0.56011   0.25000   0.00000  Uiso   1.00
O383   O     0.96039   0.43988   0.25001   0.00000  Uiso   1.00
O384   O     0.70628   0.56012   0.25000   0.00000  Uiso   1.00
O385   O     0.68519   0.50001   0.31492   0.00000  Uiso   1.00
O386   O     0.98148   0.49999   0.18509   0.00000  Uiso   1.00
O387   O     0.93933   0.50000   0.31492   0.00000  Uiso   1.00
O388   O     0.72733   0.50000   0.18508   0.00000  Uiso   1.00
C389   C     0.97309   0.37719   0.18006   0.00000  Uiso   1.00
N390   N     0.96271   0.39494   0.15156   0.00000  Uiso   1.00
C391   C     0.69307   0.62271   0.32025   0.00000  Uiso   1.00
N392   N     0.70312   0.60486   0.34885   0.00000  Uiso   1.00
C393   C     0.97398   0.62271   0.17964   0.00000  Uiso   1.00
N394   N     0.96426   0.60488   0.15086   0.00000  Uiso   1.00
C395   C     0.69260   0.37727   0.32048   0.00000  Uiso   1.00
N396   N     0.70230   0.39511   0.34926   0.00000  Uiso   1.00
C397   C     0.33329   0.75421   0.25003   0.00000  Uiso   1.00
C398   C     0.00003   0.91245   0.25001   0.00000  Uiso   1.00
C399   C     0.19509   0.84110   0.04722   0.00000  Uiso   1.00
C400   C     0.14125   0.80897   0.45532   0.00000  Uiso   1.00
C401   C     0.24364   0.84587   0.02462   0.00000  Uiso   1.00
C402   C     0.09280   0.80367   0.47803   0.00000  Uiso   1.00
C403   C     0.31941   0.68820   0.21584   0.00000  Uiso   1.00
C404   C     0.01376   0.97843   0.28432   0.00000  Uiso   1.00
C405   C     0.31960   0.97842   0.21575   0.00000  Uiso   1.00
C406   C     0.01365   0.68822   0.28437   0.00000  Uiso   1.00
C407   C     0.00006   0.95711   0.25001   0.00000  Uiso   1.00
C408   C     0.33322   0.70954   0.25008   0.00000  Uiso   1.00
C409   C     0.18262   0.81016   0.28025   0.00000  Uiso   1.00
C410   C     0.15071   0.85650   0.21975   0.00000  Uiso   1.00
C411   C     0.13304   0.81021   0.28027   0.00000  Uiso   1.00
C412   C     0.20029   0.85645   0.21973   0.00000  Uiso   1.00
C413   C     0.30611   0.83342   0.33606   0.00000  Uiso   1.00
C414   C     0.02723   0.83296   0.16396   0.00000  Uiso   1.00
C415   C     0.29116   0.83429   0.38516   0.00000  Uiso   1.00
C416   C     0.04236   0.82918   0.11506   0.00000  Uiso   1.00
C417   C     0.30824   0.84717   0.45616   0.00000  Uiso   1.00
C418   C     0.02720   0.80715   0.04563   0.00000  Uiso   1.00
C419   C     0.32428   0.84348   0.40982   0.00000  Uiso   1.00
C420   C     0.01021   0.81535   0.09122   0.00000  Uiso   1.00
C421   C     0.24234   0.82742   0.40734   0.00000  Uiso   1.00
C422   C     0.09109   0.83609   0.09272   0.00000  Uiso   1.00
C423   C     0.22533   0.82997   0.45420   0.00000  Uiso   1.00
C424   C     0.10960   0.82672   0.04705   0.00000  Uiso   1.00
C425   C     0.25913   0.84089   0.47845   0.00000  Uiso   1.00
C426   C     0.07647   0.81263   0.02343   0.00000  Uiso   1.00
C427   C     0.17561   0.82331   0.47739   0.00000  Uiso   1.00
C428   C     0.15988   0.83075   0.02437   0.00000  Uiso   1.00
Cu429  Cu    0.04689   0.83334   0.25000   0.00000  Uiso   1.00
Cu430  Cu    0.28645   0.83333   0.25000   0.00000  Uiso   1.00
H431   H     0.26920   0.85405   0.04350   0.00000  Uiso   1.00
H432   H     0.06785   0.79243   0.45979   0.00000  Uiso   1.00
H433   H     0.11374   0.84880   0.11205   0.00000  Uiso   1.00
H434   H     0.21805   0.82133   0.38696   0.00000  Uiso   1.00
H435   H     0.30568   0.80979   0.10797   0.00000  Uiso   1.00
H436   H     0.02888   0.84899   0.39325   0.00000  Uiso   1.00
H437   H     0.00081   0.85564   0.47454   0.00000  Uiso   1.00
H438   H     0.00197   0.79569   0.02786   0.00000  Uiso   1.00
H439   H     0.18677   0.84501   0.08294   0.00000  Uiso   1.00
H440   H     0.15060   0.80037   0.42053   0.00000  Uiso   1.00
H441   H     0.19419   0.79149   0.30445   0.00000  Uiso   1.00
H442   H     0.13915   0.87516   0.19555   0.00000  Uiso   1.00
H443   H     0.10732   0.79166   0.30450   0.00000  Uiso   1.00
H444   H     0.22601   0.87500   0.19550   0.00000  Uiso   1.00
N445   N     0.11736   0.83334   0.24999   0.00000  Uiso   1.00
N446   N     0.21597   0.83332   0.25001   0.00000  Uiso   1.00
O447   O     0.03958   0.77322   0.25000   0.00000  Uiso   1.00
O448   O     0.29375   0.89345   0.25000   0.00000  Uiso   1.00
O449   O     0.29372   0.77321   0.25001   0.00000  Uiso   1.00
O450   O     0.03961   0.89346   0.25000   0.00000  Uiso   1.00
O451   O     0.01852   0.83334   0.31492   0.00000  Uiso   1.00
O452   O     0.31481   0.83332   0.18509   0.00000  Uiso   1.00
O453   O     0.27267   0.83333   0.31492   0.00000  Uiso   1.00
O454   O     0.06067   0.83333   0.18508   0.00000  Uiso   1.00
C455   C     0.30642   0.71052   0.18006   0.00000  Uiso   1.00
N456   N     0.29604   0.72827   0.15156   0.00000  Uiso   1.00
C457   C     0.02641   0.95605   0.32025   0.00000  Uiso   1.00
N458   N     0.03646   0.93819   0.34885   0.00000  Uiso   1.00
C459   C     0.30731   0.95604   0.17964   0.00000  Uiso   1.00
N460   N     0.29759   0.93821   0.15086   0.00000  Uiso   1.00
C461   C     0.02593   0.71060   0.32048   0.00000  Uiso   1.00
N462   N     0.03563   0.72844   0.34926   0.00000  Uiso   1.00
C463   C     0.66662   0.75421   0.25003   0.00000  Uiso   1.00
C464   C     0.33336   0.91245   0.25001   0.00000  Uiso   1.00
C465   C     0.52842   0.84110   0.04722   0.00000  Uiso   1.00
C466   C     0.47458   0.80897   0.45532   0.00000  Uiso   1.00
C467   C     0.57697   0.84587   0.02462   0.00000  Uiso   1.00
C468   C     0.42613   0.80367   0.47803   0.00000  Uiso   1.00
C469   C     0.65274   0.68820   0.21584   0.00000  Uiso   1.00
C470   C     0.34710   0.97843   0.28432   0.00000  Uiso   1.00
C471   C     0.65294   0.97842   0.21575   0.00000  Uiso   1.00
C472   C     0.34699   0.68822   0.28437   0.00000  Uiso   1.00
C473   C     0.33340   0.95711   0.25001   0.00000  Uiso   1.00
C474   C     0.66655   0.70954   0.25008   0.00000  Uiso   1.00
C475   C     0.51596   0.81016   0.28025   0.00000  Uiso   1.00
C476   C     0.48404   0.85650   0.21975   0.00000  Uiso   1.00
C477   C     0.46638   0.81021   0.28027   0.00000  Uiso   1.00
C478   C     0.53362   0.85645   0.21973   0.00000  Uiso   1.00
C479   C     0.63944   0.83342   0.33606   0.00000  Uiso   1.00
C480   C     0.36056   0.83296   0.16396   0.00000  Uiso   1.00
C481   C     0.62450   0.83429   0.38516   0.00000  Uiso   1.00
C482   C     0.37569   0.82918   0.11506   0.00000  Uiso   1.00
C483   C     0.64157   0.84717   0.45616   0.00000  Uiso   1.00
C484   C     0.36054   0.80715   0.04563   0.00000  Uiso   1.00
C485   C     0.65761   0.84348   0.40982   0.00000  Uiso   1.00
C486   C     0.34354   0.81535   0.09122   0.00000  Uiso   1.00
C487   C     0.57567   0.82742   0.40734   0.00000  Uiso   1.00
C488   C     0.42442   0.83609   0.09272   0.00000  Uiso   1.00
C489   C     0.55866   0.82997   0.45420   0.00000  Uiso   1.00
C490   C     0.44294   0.82672   0.04705   0.00000  Uiso   1.00
C491   C     0.59246   0.84089   0.47845   0.00000  Uiso   1.00
C492   C     0.40981   0.81263   0.02343   0.00000  Uiso   1.00
C493   C     0.50894   0.82331   0.47739   0.00000  Uiso   1.00
C494   C     0.49321   0.83075   0.02437   0.00000  Uiso   1.00
Cu495  Cu    0.38022   0.83334   0.25000   0.00000  Uiso   1.00
Cu496  Cu    0.61978   0.83333   0.25000   0.00000  Uiso   1.00
H497   H     0.60253   0.85405   0.04350   0.00000  Uiso   1.00
H498   H     0.40119   0.79243   0.45979   0.00000  Uiso   1.00
H499   H     0.44707   0.84880   0.11205   0.00000  Uiso   1.00
H500   H     0.55138   0.82133   0.38696   0.00000  Uiso   1.00
H501   H     0.63901   0.80979   0.10797   0.00000  Uiso   1.00
H502   H     0.36221   0.84899   0.39325   0.00000  Uiso   1.00
H503   H     0.33414   0.85564   0.47454   0.00000  Uiso   1.00
H504   H     0.33530   0.79569   0.02786   0.00000  Uiso   1.00
H505   H     0.52011   0.84501   0.08294   0.00000  Uiso   1.00
H506   H     0.48394   0.80037   0.42053   0.00000  Uiso   1.00
H507   H     0.52752   0.79149   0.30445   0.00000  Uiso   1.00
H508   H     0.47248   0.87516   0.19555   0.00000  Uiso   1.00
H509   H     0.44066   0.79166   0.30450   0.00000  Uiso   1.00
H510   H     0.55934   0.87500   0.19550   0.00000  Uiso   1.00
N511   N     0.45069   0.83334   0.24999   0.00000  Uiso   1.00
N512   N     0.54931   0.83332   0.25001   0.00000  Uiso   1.00
O513   O     0.37291   0.77322   0.25000   0.00000  Uiso   1.00
O514   O     0.62709   0.89345   0.25000   0.00000  Uiso   1.00
O515   O     0.62706   0.77321   0.25001   0.00000  Uiso   1.00
O516   O     0.37294   0.89346   0.25000   0.00000  Uiso   1.00
O517   O     0.35186   0.83334   0.31492   0.00000  Uiso   1.00
O518   O     0.64814   0.83332   0.18509   0.00000  Uiso   1.00
O519   O     0.60600   0.83333   0.31492   0.00000  Uiso   1.00
O520   O     0.39400   0.83333   0.18508   0.00000  Uiso   1.00
C521   C     0.63975   0.71052   0.18006   0.00000  Uiso   1.00
N522   N     0.62937   0.72827   0.15156   0.00000  Uiso   1.00
C523   C     0.35974   0.95605   0.32025   0.00000  Uiso   1.00
N524   N     0.36979   0.93819   0.34885   0.00000  Uiso   1.00
C525   C     0.64064   0.95604   0.17964   0.00000  Uiso   1.00
N526   N     0.63093   0.93821   0.15086   0.00000  Uiso   1.00
C527   C     0.35926   0.71060   0.32048   0.00000  Uiso   1.00
N528   N     0.36897   0.72844   0.34926   0.00000  Uiso   1.00
C529   C     0.99996   0.75421   0.25003   0.00000  Uiso   1.00
C530   C     0.66670   0.91245   0.25001   0.00000  Uiso   1.00
C531   C     0.86175   0.84110   0.04722   0.00000  Uiso   1.00
C532   C     0.80791   0.80897   0.45532   0.00000  Uiso   1.00
C533   C     0.91030   0.84587   0.02462   0.00000  Uiso   1.00
C534   C     0.75946   0.80367   0.47803   0.00000  Uiso   1.00
C535   C     0.98608   0.68820   0.21584   0.00000  Uiso   1.00
C536   C     0.68043   0.97843   0.28432   0.00000  Uiso   1.00
C537   C     0.98627   0.97842   0.21575   0.00000  Uiso   1.00
C538   C     0.68032   0.68822   0.28437   0.00000  Uiso   1.00
C539   C     0.66673   0.95711   0.25001   0.00000  Uiso   1.00
C540   C     0.99989   0.70954   0.25008   0.00000  Uiso   1.00
C541   C     0.84929   0.81016   0.28025   0.00000  Uiso   1.00
C542   C     0.81738   0.85650   0.21975   0.00000  Uiso   1.00
C543   C     0.79971   0.81021   0.28027   0.00000  Uiso   1.00
C544   C     0.86696   0.85645   0.21973   0.00000  Uiso   1.00
C545   C     0.97277   0.83342   0.33606   0.00000  Uiso   1.00
C546   C     0.69390   0.83296   0.16396   0.00000  Uiso   1.00
C547   C     0.95783   0.83429   0.38516   0.00000  Uiso   1.00
C548   C     0.70903   0.82918   0.11506   0.00000  Uiso   1.00
C549   C     0.97491   0.84717   0.45616   0.00000  Uiso   1.00
C550   C     0.69387   0.80715   0.04563   0.00000  Uiso   1.00
C551   C     0.99095   0.84348   0.40982   0.00000  Uiso   1.00
C552   C     0.67688   0.81535   0.09122   0.00000  Uiso   1.00
C553   C     0.90900   0.82742   0.40734   0.00000  Uiso   1.00
C554   C     0.75775   0.83609   0.09272   0.00000  Uiso   1.00
C555   C     0.89200   0.82997   0.45420   0.00000  Uiso   1.00
C556   C     0.77627   0.82672   0.04705   0.00000  Uiso   1.00
C557   C     0.92580   0.84089   0.47845   0.00000  Uiso   1.00
C558   C     0.74314   0.81263   0.02343   0.00000  Uiso   1.00
C559   C     0.84228   0.82331   0.47739   0.00000  Uiso   1.00
C560   C     0.82655   0.83075   0.02437   0.00000  Uiso   1.00
Cu561  Cu    0.71355   0.83334   0.25000   0.00000  Uiso   1.00
Cu562  Cu    0.95311   0.83333   0.25000   0.00000  Uiso   1.00
H563   H     0.93586   0.85405   0.04350   0.00000  Uiso   1.00
H564   H     0.73452   0.79243   0.45979   0.00000  Uiso   1.00
H565   H     0.78041   0.84880   0.11205   0.00000  Uiso   1.00
H566   H     0.88472   0.82133   0.38696   0.00000  Uiso   1.00
H567   H     0.97234   0.80979   0.10797   0.00000  Uiso   1.00
H568   H     0.69554   0.84899   0.39325   0.00000  Uiso   1.00
H569   H     0.66747   0.85564   0.47454   0.00000  Uiso   1.00
H570   H     0.66864   0.79569   0.02786   0.00000  Uiso   1.00
H571   H     0.85344   0.84501   0.08294   0.00000  Uiso   1.00
H572   H     0.81727   0.80037   0.42053   0.00000  Uiso   1.00
H573   H     0.86085   0.79149   0.30445   0.00000  Uiso   1.00
H574   H     0.80582   0.87516   0.19555   0.00000  Uiso   1.00
H575   H     0.77399   0.79166   0.30450   0.00000  Uiso   1.00
H576   H     0.89267   0.87500   0.19550   0.00000  Uiso   1.00
N577   N     0.78403   0.83334   0.24999   0.00000  Uiso   1.00
N578   N     0.88264   0.83332   0.25001   0.00000  Uiso   1.00
O579   O     0.70625   0.77322   0.25000   0.00000  Uiso   1.00
O580   O     0.96042   0.89345   0.25000   0.00000  Uiso   1.00
O581   O     0.96039   0.77321   0.25001   0.00000  Uiso   1.00
O582   O     0.70628   0.89346   0.25000   0.00000  Uiso   1.00
O583   O     0.68519   0.83334   0.31492   0.00000  Uiso   1.00
O584   O     0.98148   0.83332   0.18509   0.00000  Uiso   1.00
O585   O     0.93933   0.83333   0.31492   0.00000  Uiso   1.00
O586   O     0.72733   0.83333   0.18508   0.00000  Uiso   1.00
C587   C     0.97309   0.71052   0.18006   0.00000  Uiso   1.00
N588   N     0.96271   0.72827   0.15156   0.00000  Uiso   1.00
C589   C     0.69307   0.95605   0.32025   0.00000  Uiso   1.00
N590   N     0.70312   0.93819   0.34885   0.00000  Uiso   1.00
C591   C     0.97398   0.95604   0.17964   0.00000  Uiso   1.00
N592   N     0.96426   0.93821   0.15086   0.00000  Uiso   1.00
C593   C     0.69260   0.71060   0.32048   0.00000  Uiso   1.00
N594   N     0.70230   0.72844   0.34926   0.00000  Uiso   1.00
C595   C     0.33329   0.08754   0.75003   0.00000  Uiso   1.00
C596   C     0.00003   0.24578   0.75001   0.00000  Uiso   1.00
C597   C     0.19509   0.17444   0.54722   0.00000  Uiso   1.00
C598   C     0.14125   0.14230   0.95532   0.00000  Uiso   1.00
C599   C     0.24364   0.17921   0.52462   0.00000  Uiso   1.00
C600   C     0.09280   0.13701   0.97803   0.00000  Uiso   1.00
C601   C     0.31941   0.02153   0.71584   0.00000  Uiso   1.00
C602   C     0.01376   0.31177   0.78432   0.00000  Uiso   1.00
C603   C     0.31960   0.31175   0.71575   0.00000  Uiso   1.00
C604   C     0.01365   0.02156   0.78437   0.00000  Uiso   1.00
C605   C     0.00006   0.29045   0.75001   0.00000  Uiso   1.00
C606   C     0.33322   0.04287   0.75008   0.00000  Uiso   1.00
C607   C     0.18262   0.14350   0.78025   0.00000  Uiso   1.00
C608   C     0.15071   0.18983   0.71975   0.00000  Uiso   1.00
C609   C     0.13304   0.14355   0.78027   0.00000  Uiso   1.00
C610   C     0.20029   0.18978   0.71973   0.00000  Uiso   1.00
C611   C     0.30611   0.16676   0.83606   0.00000  Uiso   1.00
C612   C     0.02723   0.16629   0.66396   0.00000  Uiso   1.00
C613   C     0.29116   0.16762   0.88516   0.00000  Uiso   1.00
C614   C     0.04236   0.16252   0.61506   0.00000  Uiso   1.00
C615   C     0.30824   0.18051   0.95616   0.00000  Uiso   1.00
C616   C     0.02720   0.14048   0.54563   0.00000  Uiso   1.00
C617   C     0.32428   0.17681   0.90982   0.00000  Uiso   1.00
C618   C     0.01021   0.14868   0.59122   0.00000  Uiso   1.00
C619   C     0.24234   0.16075   0.90734   0.00000  Uiso   1.00
C620   C     0.09109   0.16942   0.59272   0.00000  Uiso   1.00
C621   C     0.22533   0.16330   0.95420   0.00000  Uiso   1.00
C622   C     0.10960   0.16005   0.54705   0.00000  Uiso   1.00
C623   C     0.25913   0.17423   0.97845   0.00000  Uiso   1.00
C624   C     0.07647   0.14597   0.52343   0.00000  Uiso   1.00
C625   C     0.17561   0.15665   0.97739   0.00000  Uiso   1.00
C626   C     0.15988   0.16408   0.52437   0.00000  Uiso   1.00
Cu627  Cu    0.04689   0.16667   0.75000   0.00000  Uiso   1.00
Cu628  Cu    0.28645   0.16666   0.75000   0.00000  Uiso   1.00
H629   H     0.26920   0.18739   0.54350   0.00000  Uiso   1.00
H630   H     0.06785   0.12576   0.95979   0.00000  Uiso   1.00
H631   H     0.11374   0.18214   0.61205   0.00000  Uiso   1.00
H632   H     0.21805   0.15467   0.88696   0.00000  Uiso   1.00
H633   H     0.30568   0.14313   0.60797   0.00000  Uiso   1.00
H634   H     0.02888   0.18232   0.89325   0.00000  Uiso   1.00
H635   H     0.00081   0.18898   0.97454   0.00000  Uiso   1.00
H636   H     0.00197   0.12903   0.52786   0.00000  Uiso   1.00
H637   H     0.18677   0.17834   0.58294   0.00000  Uiso   1.00
H638   H     0.15060   0.13370   0.92053   0.00000  Uiso   1.00
H639   H     0.19419   0.12483   0.80445   0.00000  Uiso   1.00
H640   H     0.13915   0.20849   0.69555   0.00000  Uiso   1.00
H641   H     0.10732   0.12500   0.80450   0.00000  Uiso   1.00
H642   H     0.22601   0.20833   0.69550   0.00000  Uiso   1.00
N643   N     0.11736   0.16668   0.74999   0.00000  Uiso   1.00
N644   N     0.21597   0.16666   0.75001   0.00000  Uiso   1.00
O645   O     0.03958   0.10655   0.75000   0.00000  Uiso   1.00
O646   O     0.29375   0.22678   0.75000   0.00000  Uiso   1.00
O647   O     0.29372   0.10654   0.75001   0.00000  Uiso   1.00
O648   O     0.03961   0.22679   0.75000   0.00000  Uiso   1.00
O649   O     0.01852   0.16668   0.81492   0.00000  Uiso   1.00
O650   O     0.31481   0.16666   0.68509   0.00000  Uiso   1.00
O651   O     0.27267   0.16667   0.81492   0.00000  Uiso   1.00
O652   O     0.06067   0.16667   0.68508   0.00000  Uiso   1.00
C653   C     0.30642   0.04386   0.68006   0.00000  Uiso   1.00
N654   N     0.29604   0.06160   0.65156   0.00000  Uiso   1.00
C655   C     0.02641   0.28938   0.82025   0.00000  Uiso   1.00
N656   N     0.03646   0.27153   0.84885   0.00000  Uiso   1.00
C657   C     0.30731   0.28938   0.67964   0.00000  Uiso   1.00
N658   N     0.29759   0.27154   0.65086   0.00000  Uiso   1.00
C659   C     0.02593   0.04394   0.82048   0.00000  Uiso   1.00
N660   N     0.03563   0.06177   0.84926   0.00000  Uiso   1.00
C661   C     0.66662   0.08754   0.75003   0.00000  Uiso   1.00
C662   C     0.33336   0.24578   0.75001   0.00000  Uiso   1.00
C663   C     0.52842   0.17444   0.54722   0.00000  Uiso   1.00
C664   C     0.47458   0.14230   0.95532   0.00000  Uiso   1.00
C665   C     0.57697   0.17921   0.52462   0.00000  Uiso   1.00
C666   C     0.42613   0.13701   0.97803   0.00000  Uiso   1.00
C667   C     0.65274   0.02153   0.71584   0.00000  Uiso   1.00
C668   C     0.34710   0.31177   0.78432   0.00000  Uiso   1.00
C669   C     0.65294   0.31175   0.71575   0.00000  Uiso   1.00
C670   C     0.34699   0.02156   0.78437   0.00000  Uiso   1.00
C671   C     0.33340   0.29045   0.75001   0.00000  Uiso   1.00
C672   C     0.66655   0.04287   0.75008   0.00000  Uiso   1.00
C673   C     0.51596   0.14350   0.78025   0.00000  Uiso   1.00
C674   C     0.48404   0.18983   0.71975   0.00000  Uiso   1.00
C675   C     0.46638   0.14355   0.78027   0.00000  Uiso   1.00
C676   C     0.53362   0.18978   0.71973   0.00000  Uiso   1.00
C677   C     0.63944   0.16676   0.83606   0.00000  Uiso   1.00
C678   C     0.36056   0.16629   0.66396   0.00000  Uiso   1.00
C679   C     0.62450   0.16762   0.88516   0.00000  Uiso   1.00
C680   C     0.37569   0.16252   0.61506   0.00000  Uiso   1.00
C681   C     0.64157   0.18051   0.95616   0.00000  Uiso   1.00
C682   C     0.36054   0.14048   0.54563   0.00000  Uiso   1.00
C683   C     0.65761   0.17681   0.90982   0.00000  Uiso   1.00
C684   C     0.34354   0.14868   0.59122   0.00000  Uiso   1.00
C685   C     0.57567   0.16075   0.90734   0.00000  Uiso   1.00
C686   C     0.42442   0.16942   0.59272   0.00000  Uiso   1.00
C687   C     0.55866   0.16330   0.95420   0.00000  Uiso   1.00
C688   C     0.44294   0.16005   0.54705   0.00000  Uiso   1.00
C689   C     0.59246   0.17423   0.97845   0.00000  Uiso   1.00
C690   C     0.40981   0.14597   0.52343   0.00000  Uiso   1.00
C691   C     0.50894   0.15665   0.97739   0.00000  Uiso   1.00
C692   C     0.49321   0.16408   0.52437   0.00000  Uiso   1.00
Cu693  Cu    0.38022   0.16667   0.75000   0.00000  Uiso   1.00
Cu694  Cu    0.61978   0.16666   0.75000   0.00000  Uiso   1.00
H695   H     0.60253   0.18739   0.54350   0.00000  Uiso   1.00
H696   H     0.40119   0.12576   0.95979   0.00000  Uiso   1.00
H697   H     0.44707   0.18214   0.61205   0.00000  Uiso   1.00
H698   H     0.55138   0.15467   0.88696   0.00000  Uiso   1.00
H699   H     0.63901   0.14313   0.60797   0.00000  Uiso   1.00
H700   H     0.36221   0.18232   0.89325   0.00000  Uiso   1.00
H701   H     0.33414   0.18898   0.97454   0.00000  Uiso   1.00
H702   H     0.33530   0.12903   0.52786   0.00000  Uiso   1.00
H703   H     0.52011   0.17834   0.58294   0.00000  Uiso   1.00
H704   H     0.48394   0.13370   0.92053   0.00000  Uiso   1.00
H705   H     0.52752   0.12483   0.80445   0.00000  Uiso   1.00
H706   H     0.47248   0.20849   0.69555   0.00000  Uiso   1.00
H707   H     0.44066   0.12500   0.80450   0.00000  Uiso   1.00
H708   H     0.55934   0.20833   0.69550   0.00000  Uiso   1.00
N709   N     0.45069   0.16668   0.74999   0.00000  Uiso   1.00
N710   N     0.54931   0.16666   0.75001   0.00000  Uiso   1.00
O711   O     0.37291   0.10655   0.75000   0.00000  Uiso   1.00
O712   O     0.62709   0.22678   0.75000   0.00000  Uiso   1.00
O713   O     0.62706   0.10654   0.75001   0.00000  Uiso   1.00
O714   O     0.37294   0.22679   0.75000   0.00000  Uiso   1.00
O715   O     0.35186   0.16668   0.81492   0.00000  Uiso   1.00
O716   O     0.64814   0.16666   0.68509   0.00000  Uiso   1.00
O717   O     0.60600   0.16667   0.81492   0.00000  Uiso   1.00
O718   O     0.39400   0.16667   0.68508   0.00000  Uiso   1.00
C719   C     0.63975   0.04386   0.68006   0.00000  Uiso   1.00
N720   N     0.62937   0.06160   0.65156   0.00000  Uiso   1.00
C721   C     0.35974   0.28938   0.82025   0.00000  Uiso   1.00
N722   N     0.36979   0.27153   0.84885   0.00000  Uiso   1.00
C723   C     0.64064   0.28938   0.67964   0.00000  Uiso   1.00
N724   N     0.63093   0.27154   0.65086   0.00000  Uiso   1.00
C725   C     0.35926   0.04394   0.82048   0.00000  Uiso   1.00
N726   N     0.36897   0.06177   0.84926   0.00000  Uiso   1.00
C727   C     0.99996   0.08754   0.75003   0.00000  Uiso   1.00
C728   C     0.66670   0.24578   0.75001   0.00000  Uiso   1.00
C729   C     0.86175   0.17444   0.54722   0.00000  Uiso   1.00
C730   C     0.80791   0.14230   0.95532   0.00000  Uiso   1.00
C731   C     0.91030   0.17921   0.52462   0.00000  Uiso   1.00
C732   C     0.75946   0.13701   0.97803   0.00000  Uiso   1.00
C733   C     0.98608   0.02153   0.71584   0.00000  Uiso   1.00
C734   C     0.68043   0.31177   0.78432   0.00000  Uiso   1.00
C735   C     0.98627   0.31175   0.71575   0.00000  Uiso   1.00
C736   C     0.68032   0.02156   0.78437   0.00000  Uiso   1.00
C737   C     0.66673   0.29045   0.75001   0.00000  Uiso   1.00
C738   C     0.99989   0.04287   0.75008   0.00000  Uiso   1.00
C739   C     0.84929   0.14350   0.78025   0.00000  Uiso   1.00
C740   C     0.81738   0.18983   0.71975   0.00000  Uiso   1.00
C741   C     0.79971   0.14355   0.78027   0.00000  Uiso   1.00
C742   C     0.86696   0.18978   0.71973   0.00000  Uiso   1.00
C743   C     0.97277   0.16676   0.83606   0.00000  Uiso   1.00
C744   C     0.69390   0.16629   0.66396   0.00000  Uiso   1.00
C745   C     0.95783   0.16762   0.88516   0.00000  Uiso   1.00
C746   C     0.70903   0.16252   0.61506   0.00000  Uiso   1.00
C747   C     0.97491   0.18051   0.95616   0.00000  Uiso   1.00
C748   C     0.69387   0.14048   0.54563   0.00000  Uiso   1.00
C749   C     0.99095   0.17681   0.90982   0.00000  Uiso   1.00
C750   C     0.67688   0.14868   0.59122   0.00000  Uiso   1.00
C751   C     0.90900   0.16075   0.90734   0.00000  Uiso   1.00
C752   C     0.75775   0.16942   0.59272   0.00000  Uiso   1.00
C753   C     0.89200   0.16330   0.95420   0.00000  Uiso   1.00
C754   C     0.77627   0.16005   0.54705   0.00000  Uiso   1.00
C755   C     0.92580   0.17423   0.97845   0.00000  Uiso   1.00
C756   C     0.74314   0.14597   0.52343   0.00000  Uiso   1.00
C757   C     0.84228   0.15665   0.97739   0.00000  Uiso   1.00
C758   C     0.82655   0.16408   0.52437   0.00000  Uiso   1.00
Cu759  Cu    0.71355   0.16667   0.75000   0.00000  Uiso   1.00
Cu760  Cu    0.95311   0.16666   0.75000   0.00000  Uiso   1.00
H761   H     0.93586   0.18739   0.54350   0.00000  Uiso   1.00
H762   H     0.73452   0.12576   0.95979   0.00000  Uiso   1.00
H763   H     0.78041   0.18214   0.61205   0.00000  Uiso   1.00
H764   H     0.88472   0.15467   0.88696   0.00000  Uiso   1.00
H765   H     0.97234   0.14313   0.60797   0.00000  Uiso   1.00
H766   H     0.69554   0.18232   0.89325   0.00000  Uiso   1.00
H767   H     0.66747   0.18898   0.97454   0.00000  Uiso   1.00
H768   H     0.66864   0.12903   0.52786   0.00000  Uiso   1.00
H769   H     0.85344   0.17834   0.58294   0.00000  Uiso   1.00
H770   H     0.81727   0.13370   0.92053   0.00000  Uiso   1.00
H771   H     0.86085   0.12483   0.80445   0.00000  Uiso   1.00
H772   H     0.80582   0.20849   0.69555   0.00000  Uiso   1.00
H773   H     0.77399   0.12500   0.80450   0.00000  Uiso   1.00
H774   H     0.89267   0.20833   0.69550   0.00000  Uiso   1.00
N775   N     0.78403   0.16668   0.74999   0.00000  Uiso   1.00
N776   N     0.88264   0.16666   0.75001   0.00000  Uiso   1.00
O777   O     0.70625   0.10655   0.75000   0.00000  Uiso   1.00
O778   O     0.96042   0.22678   0.75000   0.00000  Uiso   1.00
O779   O     0.96039   0.10654   0.75001   0.00000  Uiso   1.00
O780   O     0.70628   0.22679   0.75000   0.00000  Uiso   1.00
O781   O     0.68519   0.16668   0.81492   0.00000  Uiso   1.00
O782   O     0.98148   0.16666   0.68509   0.00000  Uiso   1.00
O783   O     0.93933   0.16667   0.81492   0.00000  Uiso   1.00
O784   O     0.72733   0.16667   0.68508   0.00000  Uiso   1.00
C785   C     0.97309   0.04386   0.68006   0.00000  Uiso   1.00
N786   N     0.96271   0.06160   0.65156   0.00000  Uiso   1.00
C787   C     0.69307   0.28938   0.82025   0.00000  Uiso   1.00
N788   N     0.70312   0.27153   0.84885   0.00000  Uiso   1.00
C789   C     0.97398   0.28938   0.67964   0.00000  Uiso   1.00
N790   N     0.96426   0.27154   0.65086   0.00000  Uiso   1.00
C791   C     0.69260   0.04394   0.82048   0.00000  Uiso   1.00
N792   N     0.70230   0.06177   0.84926   0.00000  Uiso   1.00
C793   C     0.33329   0.42088   0.75003   0.00000  Uiso   1.00
C794   C     0.00003   0.57912   0.75001   0.00000  Uiso   1.00
C795   C     0.19509   0.50777   0.54722   0.00000  Uiso   1.00
C796   C     0.14125   0.47564   0.95532   0.00000  Uiso   1.00
C797   C     0.24364   0.51254   0.52462   0.00000  Uiso   1.00
C798   C     0.09280   0.47034   0.97803   0.00000  Uiso   1.00
C799   C     0.31941   0.35487   0.71584   0.00000  Uiso   1.00
C800   C     0.01376   0.64510   0.78432   0.00000  Uiso   1.00
C801   C     0.31960   0.64509   0.71575   0.00000  Uiso   1.00
C802   C     0.01365   0.35489   0.78437   0.00000  Uiso   1.00
C803   C     0.00006   0.62378   0.75001   0.00000  Uiso   1.00
C804   C     0.33322   0.37620   0.75008   0.00000  Uiso   1.00
C805   C     0.18262   0.47683   0.78025   0.00000  Uiso   1.00
C806   C     0.15071   0.52316   0.71975   0.00000  Uiso   1.00
C807   C     0.13304   0.47688   0.78027   0.00000  Uiso   1.00
C808   C     0.20029   0.52312   0.71973   0.00000  Uiso   1.00
C809   C     0.30611   0.50009   0.83606   0.00000  Uiso   1.00
C810   C     0.02723   0.49963   0.66396   0.00000  Uiso   1.00
C811   C     0.29116   0.50096   0.88516   0.00000  Uiso   1.00
C812   C     0.04236   0.49585   0.61506   0.00000  Uiso   1.00
C813   C     0.30824   0.51384   0.95616   0.00000  Uiso   1.00
C814   C     0.02720   0.47382   0.54563   0.00000  Uiso   1.00
C815   C     0.32428   0.51014   0.90982   0.00000  Uiso   1.00
C816   C     0.01021   0.48201   0.59122   0.00000  Uiso   1.00
C817   C     0.24234   0.49409   0.90734   0.00000  Uiso   1.00
C818   C     0.09109   0.50275   0.59272   0.00000  Uiso   1.00
C819   C     0.22533   0.49664   0.95420   0.00000  Uiso   1.00
C820   C     0.10960   0.49339   0.54705   0.00000  Uiso   1.00
C821   C     0.25913   0.50756   0.97845   0.00000  Uiso   1.00
C822   C     0.07647   0.47930   0.52343   0.00000  Uiso   1.00
C823   C     0.17561   0.48998   0.97739   0.00000  Uiso   1.00
C824   C     0.15988   0.49741   0.52437   0.00000  Uiso   1.00
Cu825  Cu    0.04689   0.50001   0.75000   0.00000  Uiso   1.00
Cu826  Cu    0.28645   0.49999   0.75000   0.00000  Uiso   1.00
H827   H     0.26920   0.52072   0.54350   0.00000  Uiso   1.00
H828   H     0.06785   0.45910   0.95979   0.00000  Uiso   1.00
H829   H     0.11374   0.51547   0.61205   0.00000  Uiso   1.00
H830   H     0.21805   0.48800   0.88696   0.00000  Uiso   1.00
H831   H     0.30568   0.47646   0.60797   0.00000  Uiso   1.00
H832   H     0.02888   0.51566   0.89325   0.00000  Uiso   1.00
H833   H     0.00081   0.52231   0.97454   0.00000  Uiso   1.00
H834   H     0.00197   0.46236   0.52786   0.00000  Uiso   1.00
H835   H     0.18677   0.51168   0.58294   0.00000  Uiso   1.00
H836   H     0.15060   0.46703   0.92053   0.00000  Uiso   1.00
H837   H     0.19419   0.45816   0.80445   0.00000  Uiso   1.00
H838   H     0.13915   0.54183   0.69555   0.00000  Uiso   1.00
H839   H     0.10732   0.45833   0.80450   0.00000  Uiso   1.00
H840   H     0.22601   0.54166   0.69550   0.00000  Uiso   1.00
N841   N     0.11736   0.50001   0.74999   0.00000  Uiso   1.00
N842   N     0.21597   0.49999   0.75001   0.00000  Uiso   1.00
O843   O     0.03958   0.43989   0.75000   0.00000  Uiso   1.00
O844   O     0.29375   0.56011   0.75000   0.00000  Uiso   1.00
O845   O     0.29372   0.43988   0.75001   0.00000  Uiso   1.00
O846   O     0.03961   0.56012   0.75000   0.00000  Uiso   1.00
O847   O     0.01852   0.50001   0.81492   0.00000  Uiso   1.00
O848   O     0.31481   0.49999   0.68509   0.00000  Uiso   1.00
O849   O     0.27267   0.50000   0.81492   0.00000  Uiso   1.00
O850   O     0.06067   0.50000   0.68508   0.00000  Uiso   1.00
C851   C     0.30642   0.37719   0.68006   0.00000  Uiso   1.00
N852   N     0.29604   0.39494   0.65156   0.00000  Uiso   1.00
C853   C     0.02641   0.62271   0.82025   0.00000  Uiso   1.00
N854   N     0.03646   0.60486   0.84885   0.00000  Uiso   1.00
C855   C     0.30731   0.62271   0.67964   0.00000  Uiso   1.00
N856   N     0.29759   0.60488   0.65086   0.00000  Uiso   1.00
C857   C     0.02593   0.37727   0.82048   0.00000  Uiso   1.00
N858   N     0.03563   0.39511   0.84926   0.00000  Uiso   1.00
C859   C     0.66662   0.42088   0.75003   0.00000  Uiso   1.00
C860   C     0.33336   0.57912   0.75001   0.00000  Uiso   1.00
C861   C     0.52842   0.50777   0.54722   0.00000  Uiso   1.00
C862   C     0.47458   0.47564   0.95532   0.00000  Uiso   1.00
C863   C     0.57697   0.51254   0.52462   0.00000  Uiso   1.00
C864   C     0.42613   0.47034   0.97803   0.00000  Uiso   1.00
C865   C     0.65274   0.35487   0.71584   0.00000  Uiso   1.00
C866   C     0.34710   0.64510   0.78432   0.00000  Uiso   1.00
C867   C     0.65294   0.64509   0.71575   0.00000  Uiso   1.00
C868   C     0.34699   0.35489   0.78437   0.00000  Uiso   1.00
C869   C     0.33340   0.62378   0.75001   0.00000  Uiso   1.00
C870   C     0.66655   0.37620   0.75008   0.00000  Uiso   1.00
C871   C     0.51596   0.47683   0.78025   0.00000  Uiso   1.00
C872   C     0.48404   0.52316   0.71975   0.00000  Uiso   1.00
C873   C     0.46638   0.47688   0.78027   0.00000  Uiso   1.00
C874   C     0.53362   0.52312   0.71973   0.00000  Uiso   1.00
C875   C     0.63944   0.50009   0.83606   0.00000  Uiso   1.00
C876   C     0.36056   0.49963   0.66396   0.00000  Uiso   1.00
C877   C     0.62450   0.50096   0.88516   0.00000  Uiso   1.00
C878   C     0.37569   0.49585   0.61506   0.00000  Uiso   1.00
C879   C     0.64157   0.51384   0.95616   0.00000  Uiso   1.00
C880   C     0.36054   0.47382   0.54563   0.00000  Uiso   1.00
C881   C     0.65761   0.51014   0.90982   0.00000  Uiso   1.00
C882   C     0.34354   0.48201   0.59122   0.00000  Uiso   1.00
C883   C     0.57567   0.49409   0.90734   0.00000  Uiso   1.00
C884   C     0.42442   0.50275   0.59272   0.00000  Uiso   1.00
C885   C     0.55866   0.49664   0.95420   0.00000  Uiso   1.00
C886   C     0.44294   0.49339   0.54705   0.00000  Uiso   1.00
C887   C     0.59246   0.50756   0.97845   0.00000  Uiso   1.00
C888   C     0.40981   0.47930   0.52343   0.00000  Uiso   1.00
C889   C     0.50894   0.48998   0.97739   0.00000  Uiso   1.00
C890   C     0.49321   0.49741   0.52437   0.00000  Uiso   1.00
Cu891  Cu    0.38022   0.50001   0.75000   0.00000  Uiso   1.00
Cu892  Cu    0.61978   0.49999   0.75000   0.00000  Uiso   1.00
H893   H     0.60253   0.52072   0.54350   0.00000  Uiso   1.00
H894   H     0.40119   0.45910   0.95979   0.00000  Uiso   1.00
H895   H     0.44707   0.51547   0.61205   0.00000  Uiso   1.00
H896   H     0.55138   0.48800   0.88696   0.00000  Uiso   1.00
H897   H     0.63901   0.47646   0.60797   0.00000  Uiso   1.00
H898   H     0.36221   0.51566   0.89325   0.00000  Uiso   1.00
H899   H     0.33414   0.52231   0.97454   0.00000  Uiso   1.00
H900   H     0.33530   0.46236   0.52786   0.00000  Uiso   1.00
H901   H     0.52011   0.51168   0.58294   0.00000  Uiso   1.00
H902   H     0.48394   0.46703   0.92053   0.00000  Uiso   1.00
H903   H     0.52752   0.45816   0.80445   0.00000  Uiso   1.00
H904   H     0.47248   0.54183   0.69555   0.00000  Uiso   1.00
H905   H     0.44066   0.45833   0.80450   0.00000  Uiso   1.00
H906   H     0.55934   0.54166   0.69550   0.00000  Uiso   1.00
N907   N     0.45069   0.50001   0.74999   0.00000  Uiso   1.00
N908   N     0.54931   0.49999   0.75001   0.00000  Uiso   1.00
O909   O     0.37291   0.43989   0.75000   0.00000  Uiso   1.00
O910   O     0.62709   0.56011   0.75000   0.00000  Uiso   1.00
O911   O     0.62706   0.43988   0.75001   0.00000  Uiso   1.00
O912   O     0.37294   0.56012   0.75000   0.00000  Uiso   1.00
O913   O     0.35186   0.50001   0.81492   0.00000  Uiso   1.00
O914   O     0.64814   0.49999   0.68509   0.00000  Uiso   1.00
O915   O     0.60600   0.50000   0.81492   0.00000  Uiso   1.00
O916   O     0.39400   0.50000   0.68508   0.00000  Uiso   1.00
C917   C     0.63975   0.37719   0.68006   0.00000  Uiso   1.00
N918   N     0.62937   0.39494   0.65156   0.00000  Uiso   1.00
C919   C     0.35974   0.62271   0.82025   0.00000  Uiso   1.00
N920   N     0.36979   0.60486   0.84885   0.00000  Uiso   1.00
C921   C     0.64064   0.62271   0.67964   0.00000  Uiso   1.00
N922   N     0.63093   0.60488   0.65086   0.00000  Uiso   1.00
C923   C     0.35926   0.37727   0.82048   0.00000  Uiso   1.00
N924   N     0.36897   0.39511   0.84926   0.00000  Uiso   1.00
C925   C     0.99996   0.42088   0.75003   0.00000  Uiso   1.00
C926   C     0.66670   0.57912   0.75001   0.00000  Uiso   1.00
C927   C     0.86175   0.50777   0.54722   0.00000  Uiso   1.00
C928   C     0.80791   0.47564   0.95532   0.00000  Uiso   1.00
C929   C     0.91030   0.51254   0.52462   0.00000  Uiso   1.00
C930   C     0.75946   0.47034   0.97803   0.00000  Uiso   1.00
C931   C     0.98608   0.35487   0.71584   0.00000  Uiso   1.00
C932   C     0.68043   0.64510   0.78432   0.00000  Uiso   1.00
C933   C     0.98627   0.64509   0.71575   0.00000  Uiso   1.00
C934   C     0.68032   0.35489   0.78437   0.00000  Uiso   1.00
C935   C     0.66673   0.62378   0.75001   0.00000  Uiso   1.00
C936   C     0.99989   0.37620   0.75008   0.00000  Uiso   1.00
C937   C     0.84929   0.47683   0.78025   0.00000  Uiso   1.00
C938   C     0.81738   0.52316   0.71975   0.00000  Uiso   1.00
C939   C     0.79971   0.47688   0.78027   0.00000  Uiso   1.00
C940   C     0.86696   0.52312   0.71973   0.00000  Uiso   1.00
C941   C     0.97277   0.50009   0.83606   0.00000  Uiso   1.00
C942   C     0.69390   0.49963   0.66396   0.00000  Uiso   1.00
C943   C     0.95783   0.50096   0.88516   0.00000  Uiso   1.00
C944   C     0.70903   0.49585   0.61506   0.00000  Uiso   1.00
C945   C     0.97491   0.51384   0.95616   0.00000  Uiso   1.00
C946   C     0.69387   0.47382   0.54563   0.00000  Uiso   1.00
C947   C     0.99095   0.51014   0.90982   0.00000  Uiso   1.00
C948   C     0.67688   0.48201   0.59122   0.00000  Uiso   1.00
C949   C     0.90900   0.49409   0.90734   0.00000  Uiso   1.00
C950   C     0.75775   0.50275   0.59272   0.00000  Uiso   1.00
C951   C     0.89200   0.49664   0.95420   0.00000  Uiso   1.00
C952   C     0.77627   0.49339   0.54705   0.00000  Uiso   1.00
C953   C     0.92580   0.50756   0.97845   0.00000  Uiso   1.00
C954   C     0.74314   0.47930   0.52343   0.00000  Uiso   1.00
C955   C     0.84228   0.48998   0.97739   0.00000  Uiso   1.00
C956   C     0.82655   0.49741   0.52437   0.00000  Uiso   1.00
Cu957  Cu    0.71355   0.50001   0.75000   0.00000  Uiso   1.00
Cu958  Cu    0.95311   0.49999   0.75000   0.00000  Uiso   1.00
H959   H     0.93586   0.52072   0.54350   0.00000  Uiso   1.00
H960   H     0.73452   0.45910   0.95979   0.00000  Uiso   1.00
H961   H     0.78041   0.51547   0.61205   0.00000  Uiso   1.00
H962   H     0.88472   0.48800   0.88696   0.00000  Uiso   1.00
H963   H     0.97234   0.47646   0.60797   0.00000  Uiso   1.00
H964   H     0.69554   0.51566   0.89325   0.00000  Uiso   1.00
H965   H     0.66747   0.52231   0.97454   0.00000  Uiso   1.00
H966   H     0.66864   0.46236   0.52786   0.00000  Uiso   1.00
H967   H     0.85344   0.51168   0.58294   0.00000  Uiso   1.00
H968   H     0.81727   0.46703   0.92053   0.00000  Uiso   1.00
H969   H     0.86085   0.45816   0.80445   0.00000  Uiso   1.00
H970   H     0.80582   0.54183   0.69555   0.00000  Uiso   1.00
H971   H     0.77399   0.45833   0.80450   0.00000  Uiso   1.00
H972   H     0.89267   0.54166   0.69550   0.00000  Uiso   1.00
N973   N     0.78403   0.50001   0.74999   0.00000  Uiso   1.00
N974   N     0.88264   0.49999   0.75001   0.00000  Uiso   1.00
O975   O     0.70625   0.43989   0.75000   0.00000  Uiso   1.00
O976   O     0.96042   0.56011   0.75000   0.00000  Uiso   1.00
O977   O     0.96039   0.43988   0.75001   0.00000  Uiso   1.00
O978   O     0.70628   0.56012   0.75000   0.00000  Uiso   1.00
O979   O     0.68519   0.50001   0.81492   0.00000  Uiso   1.00
O980   O     0.98148   0.49999   0.68509   0.00000  Uiso   1.00
O981   O     0.93933   0.50000   0.81492   0.00000  Uiso   1.00
O982   O     0.72733   0.50000   0.68508   0.00000  Uiso   1.00
C983   C     0.97309   0.37719   0.68006   0.00000  Uiso   1.00
N984   N     0.96271   0.39494   0.65156   0.00000  Uiso   1.00
C985   C     0.69307   0.62271   0.82025   0.00000  Uiso   1.00
N986   N     0.70312   0.60486   0.84885   0.00000  Uiso   1.00
C987   C     0.97398   0.62271   0.67964   0.00000  Uiso   1.00
N988   N     0.96426   0.60488   0.65086   0.00000  Uiso   1.00
C989   C     0.69260   0.37727   0.82048   0.00000  Uiso   1.00
N990   N     0.70230   0.39511   0.84926   0.00000  Uiso   1.00
C991   C     0.33329   0.75421   0.75003   0.00000  Uiso   1.00
C992   C     0.00003   0.91245   0.75001   0.00000  Uiso   1.00
C993   C     0.19509   0.84110   0.54722   0.00000  Uiso   1.00
C994   C     0.14125   0.80897   0.95532   0.00000  Uiso   1.00
C995   C     0.24364   0.84587   0.52462   0.00000  Uiso   1.00
C996   C     0.09280   0.80367   0.97803   0.00000  Uiso   1.00
C997   C     0.31941   0.68820   0.71584   0.00000  Uiso   1.00
C998   C     0.01376   0.97843   0.78432   0.00000  Uiso   1.00
C999   C     0.31960   0.97842   0.71575   0.00000  Uiso   1.00
C1000  C     0.01365   0.68822   0.78437   0.00000  Uiso   1.00
C1001  C     0.00006   0.95711   0.75001   0.00000  Uiso   1.00
C1002  C     0.33322   0.70954   0.75008   0.00000  Uiso   1.00
C1003  C     0.18262   0.81016   0.78025   0.00000  Uiso   1.00
C1004  C     0.15071   0.85650   0.71975   0.00000  Uiso   1.00
C1005  C     0.13304   0.81021   0.78027   0.00000  Uiso   1.00
C1006  C     0.20029   0.85645   0.71973   0.00000  Uiso   1.00
C1007  C     0.30611   0.83342   0.83606   0.00000  Uiso   1.00
C1008  C     0.02723   0.83296   0.66396   0.00000  Uiso   1.00
C1009  C     0.29116   0.83429   0.88516   0.00000  Uiso   1.00
C1010  C     0.04236   0.82918   0.61506   0.00000  Uiso   1.00
C1011  C     0.30824   0.84717   0.95616   0.00000  Uiso   1.00
C1012  C     0.02720   0.80715   0.54563   0.00000  Uiso   1.00
C1013  C     0.32428   0.84348   0.90982   0.00000  Uiso   1.00
C1014  C     0.01021   0.81535   0.59122   0.00000  Uiso   1.00
C1015  C     0.24234   0.82742   0.90734   0.00000  Uiso   1.00
C1016  C     0.09109   0.83609   0.59272   0.00000  Uiso   1.00
C1017  C     0.22533   0.82997   0.95420   0.00000  Uiso   1.00
C1018  C     0.10960   0.82672   0.54705   0.00000  Uiso   1.00
C1019  C     0.25913   0.84089   0.97845   0.00000  Uiso   1.00
C1020  C     0.07647   0.81263   0.52343   0.00000  Uiso   1.00
C1021  C     0.17561   0.82331   0.97739   0.00000  Uiso   1.00
C1022  C     0.15988   0.83075   0.52437   0.00000  Uiso   1.00
Cu1023 Cu    0.04689   0.83334   0.75000   0.00000  Uiso   1.00
Cu1024 Cu    0.28645   0.83333   0.75000   0.00000  Uiso   1.00
H1025  H     0.26920   0.85405   0.54350   0.00000  Uiso   1.00
H1026  H     0.06785   0.79243   0.95979   0.00000  Uiso   1.00
H1027  H     0.11374   0.84880   0.61205   0.00000  Uiso   1.00
H1028  H     0.21805   0.82133   0.88696   0.00000  Uiso   1.00
H1029  H     0.30568   0.80979   0.60797   0.00000  Uiso   1.00
H1030  H     0.02888   0.84899   0.89325   0.00000  Uiso   1.00
H1031  H     0.00081   0.85564   0.97454   0.00000  Uiso   1.00
H1032  H     0.00197   0.79569   0.52786   0.00000  Uiso   1.00
H1033  H     0.18677   0.84501   0.58294   0.00000  Uiso   1.00
H1034  H     0.15060   0.80037   0.92053   0.00000  Uiso   1.00
H1035  H     0.19419   0.79149   0.80445   0.00000  Uiso   1.00
H1036  H     0.13915   0.87516   0.69555   0.00000  Uiso   1.00
H1037  H     0.10732   0.79166   0.80450   0.00000  Uiso   1.00
H1038  H     0.22601   0.87500   0.69550   0.00000  Uiso   1.00
N1039  N     0.11736   0.83334   0.74999   0.00000  Uiso   1.00
N1040  N     0.21597   0.83332   0.75001   0.00000  Uiso   1.00
O1041  O     0.03958   0.77322   0.75000   0.00000  Uiso   1.00
O1042  O     0.29375   0.89345   0.75000   0.00000  Uiso   1.00
O1043  O     0.29372   0.77321   0.75001   0.00000  Uiso   1.00
O1044  O     0.03961   0.89346   0.75000   0.00000  Uiso   1.00
O1045  O     0.01852   0.83334   0.81492   0.00000  Uiso   1.00
O1046  O     0.31481   0.83332   0.68509   0.00000  Uiso   1.00
O1047  O     0.27267   0.83333   0.81492   0.00000  Uiso   1.00
O1048  O     0.06067   0.83333   0.68508   0.00000  Uiso   1.00
C1049  C     0.30642   0.71052   0.68006   0.00000  Uiso   1.00
N1050  N     0.29604   0.72827   0.65156   0.00000  Uiso   1.00
C1051  C     0.02641   0.95605   0.82025   0.00000  Uiso   1.00
N1052  N     0.03646   0.93819   0.84885   0.00000  Uiso   1.00
C1053  C     0.30731   0.95604   0.67964   0.00000  Uiso   1.00
N1054  N     0.29759   0.93821   0.65086   0.00000  Uiso   1.00
C1055  C     0.02593   0.71060   0.82048   0.00000  Uiso   1.00
N1056  N     0.03563   0.72844   0.84926   0.00000  Uiso   1.00
C1057  C     0.66662   0.75421   0.75003   0.00000  Uiso   1.00
C1058  C     0.33336   0.91245   0.75001   0.00000  Uiso   1.00
C1059  C     0.52842   0.84110   0.54722   0.00000  Uiso   1.00
C1060  C     0.47458   0.80897   0.95532   0.00000  Uiso   1.00
C1061  C     0.57697   0.84587   0.52462   0.00000  Uiso   1.00
C1062  C     0.42613   0.80367   0.97803   0.00000  Uiso   1.00
C1063  C     0.65274   0.68820   0.71584   0.00000  Uiso   1.00
C1064  C     0.34710   0.97843   0.78432   0.00000  Uiso   1.00
C1065  C     0.65294   0.97842   0.71575   0.00000  Uiso   1.00
C1066  C     0.34699   0.68822   0.78437   0.00000  Uiso   1.00
C1067  C     0.33340   0.95711   0.75001   0.00000  Uiso   1.00
C1068  C     0.66655   0.70954   0.75008   0.00000  Uiso   1.00
C1069  C     0.51596   0.81016   0.78025   0.00000  Uiso   1.00
C1070  C     0.48404   0.85650   0.71975   0.00000  Uiso   1.00
C1071  C     0.46638   0.81021   0.78027   0.00000  Uiso   1.00
C1072  C     0.53362   0.85645   0.71973   0.00000  Uiso   1.00
C1073  C     0.63944   0.83342   0.83606   0.00000  Uiso   1.00
C1074  C     0.36056   0.83296   0.66396   0.00000  Uiso   1.00
C1075  C     0.62450   0.83429   0.88516   0.00000  Uiso   1.00
C1076  C     0.37569   0.82918   0.61506   0.00000  Uiso   1.00
C1077  C     0.64157   0.84717   0.95616   0.00000  Uiso   1.00
C1078  C     0.36054   0.80715   0.54563   0.00000  Uiso   1.00
C1079  C     0.65761   0.84348   0.90982   0.00000  Uiso   1.00
C1080  C     0.34354   0.81535   0.59122   0.00000  Uiso   1.00
C1081  C     0.57567   0.82742   0.90734   0.00000  Uiso   1.00
C1082  C     0.42442   0.83609   0.59272   0.00000  Uiso   1.00
C1083  C     0.55866   0.82997   0.95420   0.00000  Uiso   1.00
C1084  C     0.44294   0.82672   0.54705   0.00000  Uiso   1.00
C1085  C     0.59246   0.84089   0.97845   0.00000  Uiso   1.00
C1086  C     0.40981   0.81263   0.52343   0.00000  Uiso   1.00
C1087  C     0.50894   0.82331   0.97739   0.00000  Uiso   1.00
C1088  C     0.49321   0.83075   0.52437   0.00000  Uiso   1.00
Cu1089 Cu    0.38022   0.83334   0.75000   0.00000  Uiso   1.00
Cu1090 Cu    0.61978   0.83333   0.75000   0.00000  Uiso   1.00
H1091  H     0.60253   0.85405   0.54350   0.00000  Uiso   1.00
H1092  H     0.40119   0.79243   0.95979   0.00000  Uiso   1.00
H1093  H     0.44707   0.84880   0.61205   0.00000  Uiso   1.00
H1094  H     0.55138   0.82133   0.88696   0.00000  Uiso   1.00
H1095  H     0.63901   0.80979   0.60797   0.00000  Uiso   1.00
H1096  H     0.36221   0.84899   0.89325   0.00000  Uiso   1.00
H1097  H     0.33414   0.85564   0.97454   0.00000  Uiso   1.00
H1098  H     0.33530   0.79569   0.52786   0.00000  Uiso   1.00
H1099  H     0.52011   0.84501   0.58294   0.00000  Uiso   1.00
H1100  H     0.48394   0.80037   0.92053   0.00000  Uiso   1.00
H1101  H     0.52752   0.79149   0.80445   0.00000  Uiso   1.00
H1102  H     0.47248   0.87516   0.69555   0.00000  Uiso   1.00
H1103  H     0.44066   0.79166   0.80450   0.00000  Uiso   1.00
H1104  H     0.55934   0.87500   0.69550   0.00000  Uiso   1.00
N1105  N     0.45069   0.83334   0.74999   0.00000  Uiso   1.00
N1106  N     0.54931   0.83332   0.75001   0.00000  Uiso   1.00
O1107  O     0.37291   0.77322   0.75000   0.00000  Uiso   1.00
O1108  O     0.62709   0.89345   0.75000   0.00000  Uiso   1.00
O1109  O     0.62706   0.77321   0.75001   0.00000  Uiso   1.00
O1110  O     0.37294   0.89346   0.75000   0.00000  Uiso   1.00
O1111  O     0.35186   0.83334   0.81492   0.00000  Uiso   1.00
O1112  O     0.64814   0.83332   0.68509   0.00000  Uiso   1.00
O1113  O     0.60600   0.83333   0.81492   0.00000  Uiso   1.00
O1114  O     0.39400   0.83333   0.68508   0.00000  Uiso   1.00
C1115  C     0.63975   0.71052   0.68006   0.00000  Uiso   1.00
N1116  N     0.62937   0.72827   0.65156   0.00000  Uiso   1.00
C1117  C     0.35974   0.95605   0.82025   0.00000  Uiso   1.00
N1118  N     0.36979   0.93819   0.84885   0.00000  Uiso   1.00
C1119  C     0.64064   0.95604   0.67964   0.00000  Uiso   1.00
N1120  N     0.63093   0.93821   0.65086   0.00000  Uiso   1.00
C1121  C     0.35926   0.71060   0.82048   0.00000  Uiso   1.00
N1122  N     0.36897   0.72844   0.84926   0.00000  Uiso   1.00
C1123  C     0.99996   0.75421   0.75003   0.00000  Uiso   1.00
C1124  C     0.66670   0.91245   0.75001   0.00000  Uiso   1.00
C1125  C     0.86175   0.84110   0.54722   0.00000  Uiso   1.00
C1126  C     0.80791   0.80897   0.95532   0.00000  Uiso   1.00
C1127  C     0.91030   0.84587   0.52462   0.00000  Uiso   1.00
C1128  C     0.75946   0.80367   0.97803   0.00000  Uiso   1.00
C1129  C     0.98608   0.68820   0.71584   0.00000  Uiso   1.00
C1130  C     0.68043   0.97843   0.78432   0.00000  Uiso   1.00
C1131  C     0.98627   0.97842   0.71575   0.00000  Uiso   1.00
C1132  C     0.68032   0.68822   0.78437   0.00000  Uiso   1.00
C1133  C     0.66673   0.95711   0.75001   0.00000  Uiso   1.00
C1134  C     0.99989   0.70954   0.75008   0.00000  Uiso   1.00
C1135  C     0.84929   0.81016   0.78025   0.00000  Uiso   1.00
C1136  C     0.81738   0.85650   0.71975   0.00000  Uiso   1.00
C1137  C     0.79971   0.81021   0.78027   0.00000  Uiso   1.00
C1138  C     0.86696   0.85645   0.71973   0.00000  Uiso   1.00
C1139  C     0.97277   0.83342   0.83606   0.00000  Uiso   1.00
C1140  C     0.69390   0.83296   0.66396   0.00000  Uiso   1.00
C1141  C     0.95783   0.83429   0.88516   0.00000  Uiso   1.00
C1142  C     0.70903   0.82918   0.61506   0.00000  Uiso   1.00
C1143  C     0.97491   0.84717   0.95616   0.00000  Uiso   1.00
C1144  C     0.69387   0.80715   0.54563   0.00000  Uiso   1.00
C1145  C     0.99095   0.84348   0.90982   0.00000  Uiso   1.00
C1146  C     0.67688   0.81535   0.59122   0.00000  Uiso   1.00
C1147  C     0.90900   0.82742   0.90734   0.00000  Uiso   1.00
C1148  C     0.75775   0.83609   0.59272   0.00000  Uiso   1.00
C1149  C     0.89200   0.82997   0.95420   0.00000  Uiso   1.00
C1150  C     0.77627   0.82672   0.54705   0.00000  Uiso   1.00
C1151  C     0.92580   0.84089   0.97845   0.00000  Uiso   1.00
C1152  C     0.74314   0.81263   0.52343   0.00000  Uiso   1.00
C1153  C     0.84228   0.82331   0.97739   0.00000  Uiso   1.00
C1154  C     0.82655   0.83075   0.52437   0.00000  Uiso   1.00
Cu1155 Cu    0.71355   0.83334   0.75000   0.00000  Uiso   1.00
Cu1156 Cu    0.95311   0.83333   0.75000   0.00000  Uiso   1.00
H1157  H     0.93586   0.85405   0.54350   0.00000  Uiso   1.00
H1158  H     0.73452   0.79243   0.95979   0.00000  Uiso   1.00
H1159  H     0.78041   0.84880   0.61205   0.00000  Uiso   1.00
H1160  H     0.88472   0.82133   0.88696   0.00000  Uiso   1.00
H1161  H     0.97234   0.80979   0.60797   0.00000  Uiso   1.00
H1162  H     0.69554   0.84899   0.89325   0.00000  Uiso   1.00
H1163  H     0.66747   0.85564   0.97454   0.00000  Uiso   1.00
H1164  H     0.66864   0.79569   0.52786   0.00000  Uiso   1.00
H1165  H     0.85344   0.84501   0.58294   0.00000  Uiso   1.00
H1166  H     0.81727   0.80037   0.92053   0.00000  Uiso   1.00
H1167  H     0.86085   0.79149   0.80445   0.00000  Uiso   1.00
H1168  H     0.80582   0.87516   0.69555   0.00000  Uiso   1.00
H1169  H     0.77399   0.79166   0.80450   0.00000  Uiso   1.00
H1170  H     0.89267   0.87500   0.69550   0.00000  Uiso   1.00
N1171  N     0.78403   0.83334   0.74999   0.00000  Uiso   1.00
N1172  N     0.88264   0.83332   0.75001   0.00000  Uiso   1.00
O1173  O     0.70625   0.77322   0.75000   0.00000  Uiso   1.00
O1174  O     0.96042   0.89345   0.75000   0.00000  Uiso   1.00
O1175  O     0.96039   0.77321   0.75001   0.00000  Uiso   1.00
O1176  O     0.70628   0.89346   0.75000   0.00000  Uiso   1.00
O1177  O     0.68519   0.83334   0.81492   0.00000  Uiso   1.00
O1178  O     0.98148   0.83332   0.68509   0.00000  Uiso   1.00
O1179  O     0.93933   0.83333   0.81492   0.00000  Uiso   1.00
O1180  O     0.72733   0.83333   0.68508   0.00000  Uiso   1.00
C1181  C     0.97309   0.71052   0.68006   0.00000  Uiso   1.00
N1182  N     0.96271   0.72827   0.65156   0.00000  Uiso   1.00
C1183  C     0.69307   0.95605   0.82025   0.00000  Uiso   1.00
N1184  N     0.70312   0.93819   0.84885   0.00000  Uiso   1.00
C1185  C     0.97398   0.95604   0.67964   0.00000  Uiso   1.00
N1186  N     0.96426   0.93821   0.65086   0.00000  Uiso   1.00
C1187  C     0.69260   0.71060   0.82048   0.00000  Uiso   1.00
N1188  N     0.70230   0.72844   0.84926   0.00000  Uiso   1.00
loop_
_geom_bond_atom_site_label_1
_geom_bond_atom_site_label_2
_geom_bond_distance
_geom_bond_site_symmetry_2
_ccdc_geom_bond_type
C1     C12     1.448   .     S
C1     O53     1.289   .     A
C1     O117    1.289   .     S
C2     C11     1.447   .     S
C2     O54     1.288   .     A
C2     O184    1.289   1_455 S
C3     C5      1.386   .     A
C3     H43     1.076   .     S
C3     C32     1.417   .     A
C4     C31     1.417   .     A
C4     C6      1.386   .     A
C4     H44     1.076   .     S
C5     H35     1.084   .     S
C5     C623    1.390   1_554 S
C6     H36     1.085   .     S
C6     C624    1.390   .     S
C7     C59     1.453   .     S
C7     C12     1.409   .     A
C7     C405    1.397   1_545 S
C8     C61     1.453   .     S
C8     C11     1.409   .     A
C8     C208    1.397   .     S
C9     C63     1.453   .     S
C9     C205    1.397   .     S
C9     C77     1.408   .     S
C10    C65     1.453   .     S
C10    C404    1.397   1_545 S
C10    C144    1.409   1_455 S
C11    C141    1.408   1_455 S
C12    C76     1.409   .     S
C13    H45     1.082   .     S
C13    C15     1.417   .     A
C13    N50     1.368   .     A
C14    H46     1.082   .     S
C14    C16     1.417   .     A
C14    N49     1.368   .     A
C15    H47     1.081   .     S
C15    N49     1.367   .     A
C16    H48     1.081   .     S
C16    N50     1.367   .     A
C17    C19     1.467   .     S
C17    O57     1.295   .     A
C17    O121    1.297   .     S
C18    C20     1.466   .     S
C18    O58     1.295   .     A
C18    O188    1.297   1_455 S
C19    C23     1.399   .     A
C19    C25     1.399   .     A
C20    C24     1.398   .     A
C20    C26     1.398   .     A
C21    C23     1.391   .     A
C21    C29     1.404   .     A
C21    H107    1.083   .     S
C22    H42     1.083   .     S
C22    C24     1.392   .     A
C22    C30     1.404   .     A
C23    H106    1.083   .     S
C24    H171    1.083   1_455 S
C25    H38     1.074   .     S
C25    C27     1.406   .     A
C26    H37     1.075   .     S
C26    C28     1.405   .     A
C27    C29     1.418   .     A
C27    C31     1.427   .     A
C28    C30     1.418   .     A
C28    C32     1.427   .     A
C29    C599    1.390   .     S
C30    C600    1.390   1_554 S
C31    C626    1.425   .     S
C32    C625    1.425   1_554 S
Cu33   O55     1.958   .     S
Cu33   O58     1.944   .     S
Cu33   O51     1.959   .     S
Cu33   N49     2.015   .     S
Cu33   O54     1.959   .     S
Cu33   Cu166   2.681   1_455 S
Cu34   O57     1.944   .     S
Cu34   O56     1.958   .     S
Cu34   N50     2.015   .     S
Cu34   O53     1.959   .     S
Cu34   O52     1.959   .     S
Cu34   Cu99    2.681   .     S
H39    C90     1.083   .     S
H40    C155    1.083   1_455 S
H41    C153    1.083   1_455 S
O51    C133    1.289   1_455 S
O52    C68     1.289   .     S
O55    C149    1.297   1_455 S
O56    C84     1.297   .     S
C59    N60     1.157   .     T
C61    N62     1.157   .     T
C63    N64     1.157   .     T
C65    N66     1.157   .     T
C67    C78     1.448   .     S
C67    O119    1.289   .     A
C67    O183    1.289   .     S
C68    C77     1.447   .     S
C68    O120    1.288   .     A
C69    C71     1.386   .     A
C69    H109    1.076   .     S
C69    C98     1.417   .     A
C70    C97     1.417   .     A
C70    C72     1.386   .     A
C70    H110    1.076   .     S
C71    H101    1.084   .     S
C71    C689    1.390   1_554 S
C72    H102    1.085   .     S
C72    C690    1.390   .     S
C73    C125    1.453   .     S
C73    C78     1.409   .     A
C73    C471    1.397   1_545 S
C74    C127    1.453   .     S
C74    C77     1.409   .     A
C74    C274    1.397   .     S
C75    C129    1.453   .     S
C75    C271    1.397   .     S
C75    C143    1.408   .     S
C76    C131    1.453   .     S
C76    C470    1.397   1_545 S
C78    C142    1.409   .     S
C79    H111    1.082   .     S
C79    C81     1.417   .     A
C79    N116    1.368   .     A
C80    H112    1.082   .     S
C80    C82     1.417   .     A
C80    N115    1.368   .     A
C81    H113    1.081   .     S
C81    N115    1.367   .     A
C82    H114    1.081   .     S
C82    N116    1.367   .     A
C83    C85     1.467   .     S
C83    O123    1.295   .     A
C83    O187    1.297   .     S
C84    C86     1.466   .     S
C84    O124    1.295   .     A
C85    C89     1.399   .     A
C85    C91     1.399   .     A
C86    C90     1.398   .     A
C86    C92     1.398   .     A
C87    C89     1.391   .     A
C87    C95     1.404   .     A
C87    H173    1.083   .     S
C88    H108    1.083   .     S
C88    C90     1.392   .     A
C88    C96     1.404   .     A
C89    H172    1.083   .     S
C91    H104    1.074   .     S
C91    C93     1.406   .     A
C92    H103    1.075   .     S
C92    C94     1.405   .     A
C93    C95     1.418   .     A
C93    C97     1.427   .     A
C94    C96     1.418   .     A
C94    C98     1.427   .     A
C95    C665    1.390   .     S
C96    C666    1.390   1_554 S
C97    C692    1.425   .     S
C98    C691    1.425   1_554 S
Cu99   O121    1.958   .     S
Cu99   O124    1.944   .     S
Cu99   O117    1.959   .     S
Cu99   N115    2.015   .     S
Cu99   O120    1.959   .     S
Cu100  O123    1.944   .     S
Cu100  O122    1.958   .     S
Cu100  N116    2.015   .     S
Cu100  O119    1.959   .     S
Cu100  O118    1.959   .     S
Cu100  Cu165   2.681   .     S
H105   C156    1.083   .     S
O118   C134    1.289   .     S
O122   C150    1.297   .     S
C125   N126    1.157   .     T
C127   N128    1.157   .     T
C129   N130    1.157   .     T
C131   N132    1.157   .     T
C133   C144    1.448   .     S
C133   O185    1.289   .     A
C133   O51     1.289   1_655 S
C134   C143    1.447   .     S
C134   O186    1.288   .     A
C135   C137    1.386   .     A
C135   H175    1.076   .     S
C135   C164    1.417   .     A
C136   C163    1.417   .     A
C136   C138    1.386   .     A
C136   H176    1.076   .     S
C137   H167    1.084   .     S
C137   C755    1.390   1_554 S
C138   H168    1.085   .     S
C138   C756    1.390   .     S
C139   C191    1.453   .     S
C139   C144    1.409   .     A
C139   C537    1.397   1_545 S
C140   C193    1.453   .     S
C140   C143    1.409   .     A
C140   C340    1.397   .     S
C141   C195    1.453   .     S
C141   C337    1.397   .     S
C141   C11     1.408   1_655 S
C142   C197    1.453   .     S
C142   C536    1.397   1_545 S
C144   C10     1.409   1_655 S
C145   H177    1.082   .     S
C145   C147    1.417   .     A
C145   N182    1.368   .     A
C146   H178    1.082   .     S
C146   C148    1.417   .     A
C146   N181    1.368   .     A
C147   H179    1.081   .     S
C147   N181    1.367   .     A
C148   H180    1.081   .     S
C148   N182    1.367   .     A
C149   C151    1.467   .     S
C149   O189    1.295   .     A
C149   O55     1.297   1_655 S
C150   C152    1.466   .     S
C150   O190    1.295   .     A
C151   C155    1.399   .     A
C151   C157    1.399   .     A
C152   C156    1.398   .     A
C152   C158    1.398   .     A
C153   C155    1.391   .     A
C153   C161    1.404   .     A
C153   H41     1.083   1_655 S
C154   H174    1.083   .     S
C154   C156    1.392   .     A
C154   C162    1.404   .     A
C155   H40     1.083   1_655 S
C157   H170    1.074   .     S
C157   C159    1.406   .     A
C158   H169    1.075   .     S
C158   C160    1.405   .     A
C159   C161    1.418   .     A
C159   C163    1.427   .     A
C160   C162    1.418   .     A
C160   C164    1.427   .     A
C161   C731    1.390   .     S
C162   C732    1.390   1_554 S
C163   C758    1.425   .     S
C164   C757    1.425   1_554 S
Cu165  O187    1.958   .     S
Cu165  O190    1.944   .     S
Cu165  O183    1.959   .     S
Cu165  N181    2.015   .     S
Cu165  O186    1.959   .     S
Cu166  O189    1.944   .     S
Cu166  O188    1.958   .     S
Cu166  N182    2.015   .     S
Cu166  O185    1.959   .     S
Cu166  O184    1.959   .     S
Cu166  Cu33    2.681   1_655 S
H171   C24     1.083   1_655 S
O184   C2      1.289   1_655 S
O188   C18     1.297   1_655 S
C191   N192    1.157   .     T
C193   N194    1.157   .     T
C195   N196    1.157   .     T
C197   N198    1.157   .     T
C199   C210    1.448   .     S
C199   O251    1.289   .     A
C199   O315    1.289   .     S
C200   C209    1.447   .     S
C200   O252    1.288   .     A
C200   O382    1.289   1_455 S
C201   C203    1.386   .     A
C201   H241    1.076   .     S
C201   C230    1.417   .     A
C202   C229    1.417   .     A
C202   C204    1.386   .     A
C202   H242    1.076   .     S
C203   H233    1.084   .     S
C203   C821    1.390   1_554 S
C204   H234    1.085   .     S
C204   C822    1.390   .     S
C205   C257    1.453   .     S
C205   C210    1.409   .     A
C206   C259    1.453   .     S
C206   C209    1.409   .     A
C206   C406    1.397   .     S
C207   C261    1.453   .     S
C207   C403    1.397   .     S
C207   C275    1.408   .     S
C208   C263    1.453   .     S
C208   C342    1.409   1_455 S
C209   C339    1.408   1_455 S
C210   C274    1.409   .     S
C211   H243    1.082   .     S
C211   C213    1.417   .     A
C211   N248    1.368   .     A
C212   H244    1.082   .     S
C212   C214    1.417   .     A
C212   N247    1.368   .     A
C213   H245    1.081   .     S
C213   N247    1.367   .     A
C214   H246    1.081   .     S
C214   N248    1.367   .     A
C215   C217    1.467   .     S
C215   O255    1.295   .     A
C215   O319    1.297   .     S
C216   C218    1.466   .     S
C216   O256    1.295   .     A
C216   O386    1.297   1_455 S
C217   C221    1.399   .     A
C217   C223    1.399   .     A
C218   C222    1.398   .     A
C218   C224    1.398   .     A
C219   C221    1.391   .     A
C219   C227    1.404   .     A
C219   H305    1.083   .     S
C220   H240    1.083   .     S
C220   C222    1.392   .     A
C220   C228    1.404   .     A
C221   H304    1.083   .     S
C222   H369    1.083   1_455 S
C223   H236    1.074   .     S
C223   C225    1.406   .     A
C224   H235    1.075   .     S
C224   C226    1.405   .     A
C225   C227    1.418   .     A
C225   C229    1.427   .     A
C226   C228    1.418   .     A
C226   C230    1.427   .     A
C227   C797    1.390   .     S
C228   C798    1.390   1_554 S
C229   C824    1.425   .     S
C230   C823    1.425   1_554 S
Cu231  O253    1.958   .     S
Cu231  O256    1.944   .     S
Cu231  O249    1.959   .     S
Cu231  N247    2.015   .     S
Cu231  O252    1.959   .     S
Cu231  Cu364   2.681   1_455 S
Cu232  O255    1.944   .     S
Cu232  O254    1.958   .     S
Cu232  N248    2.015   .     S
Cu232  O251    1.959   .     S
Cu232  O250    1.959   .     S
Cu232  Cu297   2.681   .     S
H237   C288    1.083   .     S
H238   C353    1.083   1_455 S
H239   C351    1.083   1_455 S
O249   C331    1.289   1_455 S
O250   C266    1.289   .     S
O253   C347    1.297   1_455 S
O254   C282    1.297   .     S
C257   N258    1.157   .     T
C259   N260    1.157   .     T
C261   N262    1.157   .     T
C263   N264    1.157   .     T
C265   C276    1.448   .     S
C265   O317    1.289   .     A
C265   O381    1.289   .     S
C266   C275    1.447   .     S
C266   O318    1.288   .     A
C267   C269    1.386   .     A
C267   H307    1.076   .     S
C267   C296    1.417   .     A
C268   C295    1.417   .     A
C268   C270    1.386   .     A
C268   H308    1.076   .     S
C269   H299    1.084   .     S
C269   C887    1.390   1_554 S
C270   H300    1.085   .     S
C270   C888    1.390   .     S
C271   C323    1.453   .     S
C271   C276    1.409   .     A
C272   C325    1.453   .     S
C272   C275    1.409   .     A
C272   C472    1.397   .     S
C273   C327    1.453   .     S
C273   C469    1.397   .     S
C273   C341    1.408   .     S
C274   C329    1.453   .     S
C276   C340    1.409   .     S
C277   H309    1.082   .     S
C277   C279    1.417   .     A
C277   N314    1.368   .     A
C278   H310    1.082   .     S
C278   C280    1.417   .     A
C278   N313    1.368   .     A
C279   H311    1.081   .     S
C279   N313    1.367   .     A
C280   H312    1.081   .     S
C280   N314    1.367   .     A
C281   C283    1.467   .     S
C281   O321    1.295   .     A
C281   O385    1.297   .     S
C282   C284    1.466   .     S
C282   O322    1.295   .     A
C283   C287    1.399   .     A
C283   C289    1.399   .     A
C284   C288    1.398   .     A
C284   C290    1.398   .     A
C285   C287    1.391   .     A
C285   C293    1.404   .     A
C285   H371    1.083   .     S
C286   H306    1.083   .     S
C286   C288    1.392   .     A
C286   C294    1.404   .     A
C287   H370    1.083   .     S
C289   H302    1.074   .     S
C289   C291    1.406   .     A
C290   H301    1.075   .     S
C290   C292    1.405   .     A
C291   C293    1.418   .     A
C291   C295    1.427   .     A
C292   C294    1.418   .     A
C292   C296    1.427   .     A
C293   C863    1.390   .     S
C294   C864    1.390   1_554 S
C295   C890    1.425   .     S
C296   C889    1.425   1_554 S
Cu297  O319    1.958   .     S
Cu297  O322    1.944   .     S
Cu297  O315    1.959   .     S
Cu297  N313    2.015   .     S
Cu297  O318    1.959   .     S
Cu298  O321    1.944   .     S
Cu298  O320    1.958   .     S
Cu298  N314    2.015   .     S
Cu298  O317    1.959   .     S
Cu298  O316    1.959   .     S
Cu298  Cu363   2.681   .     S
H303   C354    1.083   .     S
O316   C332    1.289   .     S
O320   C348    1.297   .     S
C323   N324    1.157   .     T
C325   N326    1.157   .     T
C327   N328    1.157   .     T
C329   N330    1.157   .     T
C331   C342    1.448   .     S
C331   O383    1.289   .     A
C331   O249    1.289   1_655 S
C332   C341    1.447   .     S
C332   O384    1.288   .     A
C333   C335    1.386   .     A
C333   H373    1.076   .     S
C333   C362    1.417   .     A
C334   C361    1.417   .     A
C334   C336    1.386   .     A
C334   H374    1.076   .     S
C335   H365    1.084   .     S
C335   C953    1.390   1_554 S
C336   H366    1.085   .     S
C336   C954    1.390   .     S
C337   C389    1.453   .     S
C337   C342    1.409   .     A
C338   C391    1.453   .     S
C338   C341    1.409   .     A
C338   C538    1.397   .     S
C339   C393    1.453   .     S
C339   C535    1.397   .     S
C339   C209    1.408   1_655 S
C340   C395    1.453   .     S
C342   C208    1.409   1_655 S
C343   H375    1.082   .     S
C343   C345    1.417   .     A
C343   N380    1.368   .     A
C344   H376    1.082   .     S
C344   C346    1.417   .     A
C344   N379    1.368   .     A
C345   H377    1.081   .     S
C345   N379    1.367   .     A
C346   H378    1.081   .     S
C346   N380    1.367   .     A
C347   C349    1.467   .     S
C347   O387    1.295   .     A
C347   O253    1.297   1_655 S
C348   C350    1.466   .     S
C348   O388    1.295   .     A
C349   C353    1.399   .     A
C349   C355    1.399   .     A
C350   C354    1.398   .     A
C350   C356    1.398   .     A
C351   C353    1.391   .     A
C351   C359    1.404   .     A
C351   H239    1.083   1_655 S
C352   H372    1.083   .     S
C352   C354    1.392   .     A
C352   C360    1.404   .     A
C353   H238    1.083   1_655 S
C355   H368    1.074   .     S
C355   C357    1.406   .     A
C356   H367    1.075   .     S
C356   C358    1.405   .     A
C357   C359    1.418   .     A
C357   C361    1.427   .     A
C358   C360    1.418   .     A
C358   C362    1.427   .     A
C359   C929    1.390   .     S
C360   C930    1.390   1_554 S
C361   C956    1.425   .     S
C362   C955    1.425   1_554 S
Cu363  O385    1.958   .     S
Cu363  O388    1.944   .     S
Cu363  O381    1.959   .     S
Cu363  N379    2.015   .     S
Cu363  O384    1.959   .     S
Cu364  O387    1.944   .     S
Cu364  O386    1.958   .     S
Cu364  N380    2.015   .     S
Cu364  O383    1.959   .     S
Cu364  O382    1.959   .     S
Cu364  Cu231   2.681   1_655 S
H369   C222    1.083   1_655 S
O382   C200    1.289   1_655 S
O386   C216    1.297   1_655 S
C389   N390    1.157   .     T
C391   N392    1.157   .     T
C393   N394    1.157   .     T
C395   N396    1.157   .     T
C397   C408    1.448   .     S
C397   O449    1.289   .     A
C397   O513    1.289   .     S
C398   C407    1.447   .     S
C398   O450    1.288   .     A
C398   O580    1.289   1_455 S
C399   C401    1.386   .     A
C399   H439    1.076   .     S
C399   C428    1.417   .     A
C400   C427    1.417   .     A
C400   C402    1.386   .     A
C400   H440    1.076   .     S
C401   H431    1.084   .     S
C401   C1019   1.390   1_554 S
C402   H432    1.085   .     S
C402   C1020   1.390   .     S
C403   C455    1.453   .     S
C403   C408    1.409   .     A
C404   C457    1.453   .     S
C404   C407    1.409   .     A
C404   C10     1.397   1_565 S
C405   C459    1.453   .     S
C405   C7      1.397   1_565 S
C405   C473    1.408   .     S
C406   C461    1.453   .     S
C406   C540    1.409   1_455 S
C407   C537    1.408   1_455 S
C408   C472    1.409   .     S
C409   H441    1.082   .     S
C409   C411    1.417   .     A
C409   N446    1.368   .     A
C410   H442    1.082   .     S
C410   C412    1.417   .     A
C410   N445    1.368   .     A
C411   H443    1.081   .     S
C411   N445    1.367   .     A
C412   H444    1.081   .     S
C412   N446    1.367   .     A
C413   C415    1.467   .     S
C413   O453    1.295   .     A
C413   O517    1.297   .     S
C414   C416    1.466   .     S
C414   O454    1.295   .     A
C414   O584    1.297   1_455 S
C415   C419    1.399   .     A
C415   C421    1.399   .     A
C416   C420    1.398   .     A
C416   C422    1.398   .     A
C417   C419    1.391   .     A
C417   C425    1.404   .     A
C417   H503    1.083   .     S
C418   H438    1.083   .     S
C418   C420    1.392   .     A
C418   C426    1.404   .     A
C419   H502    1.083   .     S
C420   H567    1.083   1_455 S
C421   H434    1.074   .     S
C421   C423    1.406   .     A
C422   H433    1.075   .     S
C422   C424    1.405   .     A
C423   C425    1.418   .     A
C423   C427    1.427   .     A
C424   C426    1.418   .     A
C424   C428    1.427   .     A
C425   C995    1.390   .     S
C426   C996    1.390   1_554 S
C427   C1022   1.425   .     S
C428   C1021   1.425   1_554 S
Cu429  O451    1.958   .     S
Cu429  O454    1.944   .     S
Cu429  O447    1.959   .     S
Cu429  N445    2.015   .     S
Cu429  O450    1.959   .     S
Cu429  Cu562   2.681   1_455 S
Cu430  O453    1.944   .     S
Cu430  O452    1.958   .     S
Cu430  N446    2.015   .     S
Cu430  O449    1.959   .     S
Cu430  O448    1.959   .     S
Cu430  Cu495   2.681   .     S
H435   C486    1.083   .     S
H436   C551    1.083   1_455 S
H437   C549    1.083   1_455 S
O447   C529    1.289   1_455 S
O448   C464    1.289   .     S
O451   C545    1.297   1_455 S
O452   C480    1.297   .     S
C455   N456    1.157   .     T
C457   N458    1.157   .     T
C459   N460    1.157   .     T
C461   N462    1.157   .     T
C463   C474    1.448   .     S
C463   O515    1.289   .     A
C463   O579    1.289   .     S
C464   C473    1.447   .     S
C464   O516    1.288   .     A
C465   C467    1.386   .     A
C465   H505    1.076   .     S
C465   C494    1.417   .     A
C466   C493    1.417   .     A
C466   C468    1.386   .     A
C466   H506    1.076   .     S
C467   H497    1.084   .     S
C467   C1085   1.390   1_554 S
C468   H498    1.085   .     S
C468   C1086   1.390   .     S
C469   C521    1.453   .     S
C469   C474    1.409   .     A
C470   C523    1.453   .     S
C470   C473    1.409   .     A
C470   C76     1.397   1_565 S
C471   C525    1.453   .     S
C471   C73     1.397   1_565 S
C471   C539    1.408   .     S
C472   C527    1.453   .     S
C474   C538    1.409   .     S
C475   H507    1.082   .     S
C475   C477    1.417   .     A
C475   N512    1.368   .     A
C476   H508    1.082   .     S
C476   C478    1.417   .     A
C476   N511    1.368   .     A
C477   H509    1.081   .     S
C477   N511    1.367   .     A
C478   H510    1.081   .     S
C478   N512    1.367   .     A
C479   C481    1.467   .     S
C479   O519    1.295   .     A
C479   O583    1.297   .     S
C480   C482    1.466   .     S
C480   O520    1.295   .     A
C481   C485    1.399   .     A
C481   C487    1.399   .     A
C482   C486    1.398   .     A
C482   C488    1.398   .     A
C483   C485    1.391   .     A
C483   C491    1.404   .     A
C483   H569    1.083   .     S
C484   H504    1.083   .     S
C484   C486    1.392   .     A
C484   C492    1.404   .     A
C485   H568    1.083   .     S
C487   H500    1.074   .     S
C487   C489    1.406   .     A
C488   H499    1.075   .     S
C488   C490    1.405   .     A
C489   C491    1.418   .     A
C489   C493    1.427   .     A
C490   C492    1.418   .     A
C490   C494    1.427   .     A
C491   C1061   1.390   .     S
C492   C1062   1.390   1_554 S
C493   C1088   1.425   .     S
C494   C1087   1.425   1_554 S
Cu495  O517    1.958   .     S
Cu495  O520    1.944   .     S
Cu495  O513    1.959   .     S
Cu495  N511    2.015   .     S
Cu495  O516    1.959   .     S
Cu496  O519    1.944   .     S
Cu496  O518    1.958   .     S
Cu496  N512    2.015   .     S
Cu496  O515    1.959   .     S
Cu496  O514    1.959   .     S
Cu496  Cu561   2.681   .     S
H501   C552    1.083   .     S
O514   C530    1.289   .     S
O518   C546    1.297   .     S
C521   N522    1.157   .     T
C523   N524    1.157   .     T
C525   N526    1.157   .     T
C527   N528    1.157   .     T
C529   C540    1.448   .     S
C529   O581    1.289   .     A
C529   O447    1.289   1_655 S
C530   C539    1.447   .     S
C530   O582    1.288   .     A
C531   C533    1.386   .     A
C531   H571    1.076   .     S
C531   C560    1.417   .     A
C532   C559    1.417   .     A
C532   C534    1.386   .     A
C532   H572    1.076   .     S
C533   H563    1.084   .     S
C533   C1151   1.390   1_554 S
C534   H564    1.085   .     S
C534   C1152   1.390   .     S
C535   C587    1.453   .     S
C535   C540    1.409   .     A
C536   C589    1.453   .     S
C536   C539    1.409   .     A
C536   C142    1.397   1_565 S
C537   C591    1.453   .     S
C537   C139    1.397   1_565 S
C537   C407    1.408   1_655 S
C538   C593    1.453   .     S
C540   C406    1.409   1_655 S
C541   H573    1.082   .     S
C541   C543    1.417   .     A
C541   N578    1.368   .     A
C542   H574    1.082   .     S
C542   C544    1.417   .     A
C542   N577    1.368   .     A
C543   H575    1.081   .     S
C543   N577    1.367   .     A
C544   H576    1.081   .     S
C544   N578    1.367   .     A
C545   C547    1.467   .     S
C545   O585    1.295   .     A
C545   O451    1.297   1_655 S
C546   C548    1.466   .     S
C546   O586    1.295   .     A
C547   C551    1.399   .     A
C547   C553    1.399   .     A
C548   C552    1.398   .     A
C548   C554    1.398   .     A
C549   C551    1.391   .     A
C549   C557    1.404   .     A
C549   H437    1.083   1_655 S
C550   H570    1.083   .     S
C550   C552    1.392   .     A
C550   C558    1.404   .     A
C551   H436    1.083   1_655 S
C553   H566    1.074   .     S
C553   C555    1.406   .     A
C554   H565    1.075   .     S
C554   C556    1.405   .     A
C555   C557    1.418   .     A
C555   C559    1.427   .     A
C556   C558    1.418   .     A
C556   C560    1.427   .     A
C557   C1127   1.390   .     S
C558   C1128   1.390   1_554 S
C559   C1154   1.425   .     S
C560   C1153   1.425   1_554 S
Cu561  O583    1.958   .     S
Cu561  O586    1.944   .     S
Cu561  O579    1.959   .     S
Cu561  N577    2.015   .     S
Cu561  O582    1.959   .     S
Cu562  O585    1.944   .     S
Cu562  O584    1.958   .     S
Cu562  N578    2.015   .     S
Cu562  O581    1.959   .     S
Cu562  O580    1.959   .     S
Cu562  Cu429   2.681   1_655 S
H567   C420    1.083   1_655 S
O580   C398    1.289   1_655 S
O584   C414    1.297   1_655 S
C587   N588    1.157   .     T
C589   N590    1.157   .     T
C591   N592    1.157   .     T
C593   N594    1.157   .     T
C595   C606    1.448   .     S
C595   O647    1.289   .     A
C595   O711    1.289   .     S
C596   C605    1.447   .     S
C596   O648    1.288   .     A
C596   O778    1.289   1_455 S
C597   C599    1.386   .     A
C597   H637    1.076   .     S
C597   C626    1.417   .     A
C598   C625    1.417   .     A
C598   C600    1.386   .     A
C598   H638    1.076   .     S
C599   H629    1.084   .     S
C600   H630    1.085   .     S
C600   C30     1.390   1_556 S
C601   C653    1.453   .     S
C601   C606    1.409   .     A
C601   C999    1.397   1_545 S
C602   C655    1.453   .     S
C602   C605    1.409   .     A
C602   C802    1.397   .     S
C603   C657    1.453   .     S
C603   C799    1.397   .     S
C603   C671    1.408   .     S
C604   C659    1.453   .     S
C604   C998    1.397   1_545 S
C604   C738    1.409   1_455 S
C605   C735    1.408   1_455 S
C606   C670    1.409   .     S
C607   H639    1.082   .     S
C607   C609    1.417   .     A
C607   N644    1.368   .     A
C608   H640    1.082   .     S
C608   C610    1.417   .     A
C608   N643    1.368   .     A
C609   H641    1.081   .     S
C609   N643    1.367   .     A
C610   H642    1.081   .     S
C610   N644    1.367   .     A
C611   C613    1.467   .     S
C611   O651    1.295   .     A
C611   O715    1.297   .     S
C612   C614    1.466   .     S
C612   O652    1.295   .     A
C612   O782    1.297   1_455 S
C613   C617    1.399   .     A
C613   C619    1.399   .     A
C614   C618    1.398   .     A
C614   C620    1.398   .     A
C615   C617    1.391   .     A
C615   C623    1.404   .     A
C615   H701    1.083   .     S
C616   H636    1.083   .     S
C616   C618    1.392   .     A
C616   C624    1.404   .     A
C617   H700    1.083   .     S
C618   H765    1.083   1_455 S
C619   H632    1.074   .     S
C619   C621    1.406   .     A
C620   H631    1.075   .     S
C620   C622    1.405   .     A
C621   C623    1.418   .     A
C621   C625    1.427   .     A
C622   C624    1.418   .     A
C622   C626    1.427   .     A
C623   C5      1.390   1_556 S
C625   C32     1.425   1_556 S
Cu627  O649    1.958   .     S
Cu627  O652    1.944   .     S
Cu627  O645    1.959   .     S
Cu627  N643    2.015   .     S
Cu627  O648    1.959   .     S
Cu627  Cu760   2.681   1_455 S
Cu628  O651    1.944   .     S
Cu628  O650    1.958   .     S
Cu628  N644    2.015   .     S
Cu628  O647    1.959   .     S
Cu628  O646    1.959   .     S
Cu628  Cu693   2.681   .     S
H633   C684    1.083   .     S
H634   C749    1.083   1_455 S
H635   C747    1.083   1_455 S
O645   C727    1.289   1_455 S
O646   C662    1.289   .     S
O649   C743    1.297   1_455 S
O650   C678    1.297   .     S
C653   N654    1.157   .     T
C655   N656    1.157   .     T
C657   N658    1.157   .     T
C659   N660    1.157   .     T
C661   C672    1.448   .     S
C661   O713    1.289   .     A
C661   O777    1.289   .     S
C662   C671    1.447   .     S
C662   O714    1.288   .     A
C663   C665    1.386   .     A
C663   H703    1.076   .     S
C663   C692    1.417   .     A
C664   C691    1.417   .     A
C664   C666    1.386   .     A
C664   H704    1.076   .     S
C665   H695    1.084   .     S
C666   H696    1.085   .     S
C666   C96     1.390   1_556 S
C667   C719    1.453   .     S
C667   C672    1.409   .     A
C667   C1065   1.397   1_545 S
C668   C721    1.453   .     S
C668   C671    1.409   .     A
C668   C868    1.397   .     S
C669   C723    1.453   .     S
C669   C865    1.397   .     S
C669   C737    1.408   .     S
C670   C725    1.453   .     S
C670   C1064   1.397   1_545 S
C672   C736    1.409   .     S
C673   H705    1.082   .     S
C673   C675    1.417   .     A
C673   N710    1.368   .     A
C674   H706    1.082   .     S
C674   C676    1.417   .     A
C674   N709    1.368   .     A
C675   H707    1.081   .     S
C675   N709    1.367   .     A
C676   H708    1.081   .     S
C676   N710    1.367   .     A
C677   C679    1.467   .     S
C677   O717    1.295   .     A
C677   O781    1.297   .     S
C678   C680    1.466   .     S
C678   O718    1.295   .     A
C679   C683    1.399   .     A
C679   C685    1.399   .     A
C680   C684    1.398   .     A
C680   C686    1.398   .     A
C681   C683    1.391   .     A
C681   C689    1.404   .     A
C681   H767    1.083   .     S
C682   H702    1.083   .     S
C682   C684    1.392   .     A
C682   C690    1.404   .     A
C683   H766    1.083   .     S
C685   H698    1.074   .     S
C685   C687    1.406   .     A
C686   H697    1.075   .     S
C686   C688    1.405   .     A
C687   C689    1.418   .     A
C687   C691    1.427   .     A
C688   C690    1.418   .     A
C688   C692    1.427   .     A
C689   C71     1.390   1_556 S
C691   C98     1.425   1_556 S
Cu693  O715    1.958   .     S
Cu693  O718    1.944   .     S
Cu693  O711    1.959   .     S
Cu693  N709    2.015   .     S
Cu693  O714    1.959   .     S
Cu694  O717    1.944   .     S
Cu694  O716    1.958   .     S
Cu694  N710    2.015   .     S
Cu694  O713    1.959   .     S
Cu694  O712    1.959   .     S
Cu694  Cu759   2.681   .     S
H699   C750    1.083   .     S
O712   C728    1.289   .     S
O716   C744    1.297   .     S
C719   N720    1.157   .     T
C721   N722    1.157   .     T
C723   N724    1.157   .     T
C725   N726    1.157   .     T
C727   C738    1.448   .     S
C727   O779    1.289   .     A
C727   O645    1.289   1_655 S
C728   C737    1.447   .     S
C728   O780    1.288   .     A
C729   C731    1.386   .     A
C729   H769    1.076   .     S
C729   C758    1.417   .     A
C730   C757    1.417   .     A
C730   C732    1.386   .     A
C730   H770    1.076   .     S
C731   H761    1.084   .     S
C732   H762    1.085   .     S
C732   C162    1.390   1_556 S
C733   C785    1.453   .     S
C733   C738    1.409   .     A
C733   C1131   1.397   1_545 S
C734   C787    1.453   .     S
C734   C737    1.409   .     A
C734   C934    1.397   .     S
C735   C789    1.453   .     S
C735   C931    1.397   .     S
C735   C605    1.408   1_655 S
C736   C791    1.453   .     S
C736   C1130   1.397   1_545 S
C738   C604    1.409   1_655 S
C739   H771    1.082   .     S
C739   C741    1.417   .     A
C739   N776    1.368   .     A
C740   H772    1.082   .     S
C740   C742    1.417   .     A
C740   N775    1.368   .     A
C741   H773    1.081   .     S
C741   N775    1.367   .     A
C742   H774    1.081   .     S
C742   N776    1.367   .     A
C743   C745    1.467   .     S
C743   O783    1.295   .     A
C743   O649    1.297   1_655 S
C744   C746    1.466   .     S
C744   O784    1.295   .     A
C745   C749    1.399   .     A
C745   C751    1.399   .     A
C746   C750    1.398   .     A
C746   C752    1.398   .     A
C747   C749    1.391   .     A
C747   C755    1.404   .     A
C747   H635    1.083   1_655 S
C748   H768    1.083   .     S
C748   C750    1.392   .     A
C748   C756    1.404   .     A
C749   H634    1.083   1_655 S
C751   H764    1.074   .     S
C751   C753    1.406   .     A
C752   H763    1.075   .     S
C752   C754    1.405   .     A
C753   C755    1.418   .     A
C753   C757    1.427   .     A
C754   C756    1.418   .     A
C754   C758    1.427   .     A
C755   C137    1.390   1_556 S
C757   C164    1.425   1_556 S
Cu759  O781    1.958   .     S
Cu759  O784    1.944   .     S
Cu759  O777    1.959   .     S
Cu759  N775    2.015   .     S
Cu759  O780    1.959   .     S
Cu760  O783    1.944   .     S
Cu760  O782    1.958   .     S
Cu760  N776    2.015   .     S
Cu760  O779    1.959   .     S
Cu760  O778    1.959   .     S
Cu760  Cu627   2.681   1_655 S
H765   C618    1.083   1_655 S
O778   C596    1.289   1_655 S
O782   C612    1.297   1_655 S
C785   N786    1.157   .     T
C787   N788    1.157   .     T
C789   N790    1.157   .     T
C791   N792    1.157   .     T
C793   C804    1.448   .     S
C793   O845    1.289   .     A
C793   O909    1.289   .     S
C794   C803    1.447   .     S
C794   O846    1.288   .     A
C794   O976    1.289   1_455 S
C795   C797    1.386   .     A
C795   H835    1.076   .     S
C795   C824    1.417   .     A
C796   C823    1.417   .     A
C796   C798    1.386   .     A
C796   H836    1.076   .     S
C797   H827    1.084   .     S
C798   H828    1.085   .     S
C798   C228    1.390   1_556 S
C799   C851    1.453   .     S
C799   C804    1.409   .     A
C800   C853    1.453   .     S
C800   C803    1.409   .     A
C800   C1000   1.397   .     S
C801   C855    1.453   .     S
C801   C997    1.397   .     S
C801   C869    1.408   .     S
C802   C857    1.453   .     S
C802   C936    1.409   1_455 S
C803   C933    1.408   1_455 S
C804   C868    1.409   .     S
C805   H837    1.082   .     S
C805   C807    1.417   .     A
C805   N842    1.368   .     A
C806   H838    1.082   .     S
C806   C808    1.417   .     A
C806   N841    1.368   .     A
C807   H839    1.081   .     S
C807   N841    1.367   .     A
C808   H840    1.081   .     S
C808   N842    1.367   .     A
C809   C811    1.467   .     S
C809   O849    1.295   .     A
C809   O913    1.297   .     S
C810   C812    1.466   .     S
C810   O850    1.295   .     A
C810   O980    1.297   1_455 S
C811   C815    1.399   .     A
C811   C817    1.399   .     A
C812   C816    1.398   .     A
C812   C818    1.398   .     A
C813   C815    1.391   .     A
C813   C821    1.404   .     A
C813   H899    1.083   .     S
C814   H834    1.083   .     S
C814   C816    1.392   .     A
C814   C822    1.404   .     A
C815   H898    1.083   .     S
C816   H963    1.083   1_455 S
C817   H830    1.074   .     S
C817   C819    1.406   .     A
C818   H829    1.075   .     S
C818   C820    1.405   .     A
C819   C821    1.418   .     A
C819   C823    1.427   .     A
C820   C822    1.418   .     A
C820   C824    1.427   .     A
C821   C203    1.390   1_556 S
C823   C230    1.425   1_556 S
Cu825  O847    1.958   .     S
Cu825  O850    1.944   .     S
Cu825  O843    1.959   .     S
Cu825  N841    2.015   .     S
Cu825  O846    1.959   .     S
Cu825  Cu958   2.681   1_455 S
Cu826  O849    1.944   .     S
Cu826  O848    1.958   .     S
Cu826  N842    2.015   .     S
Cu826  O845    1.959   .     S
Cu826  O844    1.959   .     S
Cu826  Cu891   2.681   .     S
H831   C882    1.083   .     S
H832   C947    1.083   1_455 S
H833   C945    1.083   1_455 S
O843   C925    1.289   1_455 S
O844   C860    1.289   .     S
O847   C941    1.297   1_455 S
O848   C876    1.297   .     S
C851   N852    1.157   .     T
C853   N854    1.157   .     T
C855   N856    1.157   .     T
C857   N858    1.157   .     T
C859   C870    1.448   .     S
C859   O911    1.289   .     A
C859   O975    1.289   .     S
C860   C869    1.447   .     S
C860   O912    1.288   .     A
C861   C863    1.386   .     A
C861   H901    1.076   .     S
C861   C890    1.417   .     A
C862   C889    1.417   .     A
C862   C864    1.386   .     A
C862   H902    1.076   .     S
C863   H893    1.084   .     S
C864   H894    1.085   .     S
C864   C294    1.390   1_556 S
C865   C917    1.453   .     S
C865   C870    1.409   .     A
C866   C919    1.453   .     S
C866   C869    1.409   .     A
C866   C1066   1.397   .     S
C867   C921    1.453   .     S
C867   C1063   1.397   .     S
C867   C935    1.408   .     S
C868   C923    1.453   .     S
C870   C934    1.409   .     S
C871   H903    1.082   .     S
C871   C873    1.417   .     A
C871   N908    1.368   .     A
C872   H904    1.082   .     S
C872   C874    1.417   .     A
C872   N907    1.368   .     A
C873   H905    1.081   .     S
C873   N907    1.367   .     A
C874   H906    1.081   .     S
C874   N908    1.367   .     A
C875   C877    1.467   .     S
C875   O915    1.295   .     A
C875   O979    1.297   .     S
C876   C878    1.466   .     S
C876   O916    1.295   .     A
C877   C881    1.399   .     A
C877   C883    1.399   .     A
C878   C882    1.398   .     A
C878   C884    1.398   .     A
C879   C881    1.391   .     A
C879   C887    1.404   .     A
C879   H965    1.083   .     S
C880   H900    1.083   .     S
C880   C882    1.392   .     A
C880   C888    1.404   .     A
C881   H964    1.083   .     S
C883   H896    1.074   .     S
C883   C885    1.406   .     A
C884   H895    1.075   .     S
C884   C886    1.405   .     A
C885   C887    1.418   .     A
C885   C889    1.427   .     A
C886   C888    1.418   .     A
C886   C890    1.427   .     A
C887   C269    1.390   1_556 S
C889   C296    1.425   1_556 S
Cu891  O913    1.958   .     S
Cu891  O916    1.944   .     S
Cu891  O909    1.959   .     S
Cu891  N907    2.015   .     S
Cu891  O912    1.959   .     S
Cu892  O915    1.944   .     S
Cu892  O914    1.958   .     S
Cu892  N908    2.015   .     S
Cu892  O911    1.959   .     S
Cu892  O910    1.959   .     S
Cu892  Cu957   2.681   .     S
H897   C948    1.083   .     S
O910   C926    1.289   .     S
O914   C942    1.297   .     S
C917   N918    1.157   .     T
C919   N920    1.157   .     T
C921   N922    1.157   .     T
C923   N924    1.157   .     T
C925   C936    1.448   .     S
C925   O977    1.289   .     A
C925   O843    1.289   1_655 S
C926   C935    1.447   .     S
C926   O978    1.288   .     A
C927   C929    1.386   .     A
C927   H967    1.076   .     S
C927   C956    1.417   .     A
C928   C955    1.417   .     A
C928   C930    1.386   .     A
C928   H968    1.076   .     S
C929   H959    1.084   .     S
C930   H960    1.085   .     S
C930   C360    1.390   1_556 S
C931   C983    1.453   .     S
C931   C936    1.409   .     A
C932   C985    1.453   .     S
C932   C935    1.409   .     A
C932   C1132   1.397   .     S
C933   C987    1.453   .     S
C933   C1129   1.397   .     S
C933   C803    1.408   1_655 S
C934   C989    1.453   .     S
C936   C802    1.409   1_655 S
C937   H969    1.082   .     S
C937   C939    1.417   .     A
C937   N974    1.368   .     A
C938   H970    1.082   .     S
C938   C940    1.417   .     A
C938   N973    1.368   .     A
C939   H971    1.081   .     S
C939   N973    1.367   .     A
C940   H972    1.081   .     S
C940   N974    1.367   .     A
C941   C943    1.467   .     S
C941   O981    1.295   .     A
C941   O847    1.297   1_655 S
C942   C944    1.466   .     S
C942   O982    1.295   .     A
C943   C947    1.399   .     A
C943   C949    1.399   .     A
C944   C948    1.398   .     A
C944   C950    1.398   .     A
C945   C947    1.391   .     A
C945   C953    1.404   .     A
C945   H833    1.083   1_655 S
C946   H966    1.083   .     S
C946   C948    1.392   .     A
C946   C954    1.404   .     A
C947   H832    1.083   1_655 S
C949   H962    1.074   .     S
C949   C951    1.406   .     A
C950   H961    1.075   .     S
C950   C952    1.405   .     A
C951   C953    1.418   .     A
C951   C955    1.427   .     A
C952   C954    1.418   .     A
C952   C956    1.427   .     A
C953   C335    1.390   1_556 S
C955   C362    1.425   1_556 S
Cu957  O979    1.958   .     S
Cu957  O982    1.944   .     S
Cu957  O975    1.959   .     S
Cu957  N973    2.015   .     S
Cu957  O978    1.959   .     S
Cu958  O981    1.944   .     S
Cu958  O980    1.958   .     S
Cu958  N974    2.015   .     S
Cu958  O977    1.959   .     S
Cu958  O976    1.959   .     S
Cu958  Cu825   2.681   1_655 S
H963   C816    1.083   1_655 S
O976   C794    1.289   1_655 S
O980   C810    1.297   1_655 S
C983   N984    1.157   .     T
C985   N986    1.157   .     T
C987   N988    1.157   .     T
C989   N990    1.157   .     T
C991   C1002   1.448   .     S
C991   O1043   1.289   .     A
C991   O1107   1.289   .     S
C992   C1001   1.447   .     S
C992   O1044   1.288   .     A
C992   O1174   1.289   1_455 S
C993   C995    1.386   .     A
C993   H1033   1.076   .     S
C993   C1022   1.417   .     A
C994   C1021   1.417   .     A
C994   C996    1.386   .     A
C994   H1034   1.076   .     S
C995   H1025   1.084   .     S
C996   H1026   1.085   .     S
C996   C426    1.390   1_556 S
C997   C1049   1.453   .     S
C997   C1002   1.409   .     A
C998   C1051   1.453   .     S
C998   C1001   1.409   .     A
C998   C604    1.397   1_565 S
C999   C1053   1.453   .     S
C999   C601    1.397   1_565 S
C999   C1067   1.408   .     S
C1000  C1055   1.453   .     S
C1000  C1134   1.409   1_455 S
C1001  C1131   1.408   1_455 S
C1002  C1066   1.409   .     S
C1003  H1035   1.082   .     S
C1003  C1005   1.417   .     A
C1003  N1040   1.368   .     A
C1004  H1036   1.082   .     S
C1004  C1006   1.417   .     A
C1004  N1039   1.368   .     A
C1005  H1037   1.081   .     S
C1005  N1039   1.367   .     A
C1006  H1038   1.081   .     S
C1006  N1040   1.367   .     A
C1007  C1009   1.467   .     S
C1007  O1047   1.295   .     A
C1007  O1111   1.297   .     S
C1008  C1010   1.466   .     S
C1008  O1048   1.295   .     A
C1008  O1178   1.297   1_455 S
C1009  C1013   1.399   .     A
C1009  C1015   1.399   .     A
C1010  C1014   1.398   .     A
C1010  C1016   1.398   .     A
C1011  C1013   1.391   .     A
C1011  C1019   1.404   .     A
C1011  H1097   1.083   .     S
C1012  H1032   1.083   .     S
C1012  C1014   1.392   .     A
C1012  C1020   1.404   .     A
C1013  H1096   1.083   .     S
C1014  H1161   1.083   1_455 S
C1015  H1028   1.074   .     S
C1015  C1017   1.406   .     A
C1016  H1027   1.075   .     S
C1016  C1018   1.405   .     A
C1017  C1019   1.418   .     A
C1017  C1021   1.427   .     A
C1018  C1020   1.418   .     A
C1018  C1022   1.427   .     A
C1019  C401    1.390   1_556 S
C1021  C428    1.425   1_556 S
Cu1023 O1045   1.958   .     S
Cu1023 O1048   1.944   .     S
Cu1023 O1041   1.959   .     S
Cu1023 N1039   2.015   .     S
Cu1023 O1044   1.959   .     S
Cu1023 Cu1156  2.681   1_455 S
Cu1024 O1047   1.944   .     S
Cu1024 O1046   1.958   .     S
Cu1024 N1040   2.015   .     S
Cu1024 O1043   1.959   .     S
Cu1024 O1042   1.959   .     S
Cu1024 Cu1089  2.681   .     S
H1029  C1080   1.083   .     S
H1030  C1145   1.083   1_455 S
H1031  C1143   1.083   1_455 S
O1041  C1123   1.289   1_455 S
O1042  C1058   1.289   .     S
O1045  C1139   1.297   1_455 S
O1046  C1074   1.297   .     S
C1049  N1050   1.157   .     T
C1051  N1052   1.157   .     T
C1053  N1054   1.157   .     T
C1055  N1056   1.157   .     T
C1057  C1068   1.448   .     S
C1057  O1109   1.289   .     A
C1057  O1173   1.289   .     S
C1058  C1067   1.447   .     S
C1058  O1110   1.288   .     A
C1059  C1061   1.386   .     A
C1059  H1099   1.076   .     S
C1059  C1088   1.417   .     A
C1060  C1087   1.417   .     A
C1060  C1062   1.386   .     A
C1060  H1100   1.076   .     S
C1061  H1091   1.084   .     S
C1062  H1092   1.085   .     S
C1062  C492    1.390   1_556 S
C1063  C1115   1.453   .     S
C1063  C1068   1.409   .     A
C1064  C1117   1.453   .     S
C1064  C1067   1.409   .     A
C1064  C670    1.397   1_565 S
C1065  C1119   1.453   .     S
C1065  C667    1.397   1_565 S
C1065  C1133   1.408   .     S
C1066  C1121   1.453   .     S
C1068  C1132   1.409   .     S
C1069  H1101   1.082   .     S
C1069  C1071   1.417   .     A
C1069  N1106   1.368   .     A
C1070  H1102   1.082   .     S
C1070  C1072   1.417   .     A
C1070  N1105   1.368   .     A
C1071  H1103   1.081   .     S
C1071  N1105   1.367   .     A
C1072  H1104   1.081   .     S
C1072  N1106   1.367   .     A
C1073  C1075   1.467   .     S
C1073  O1113   1.295   .     A
C1073  O1177   1.297   .     S
C1074  C1076   1.466   .     S
C1074  O1114   1.295   .     A
C1075  C1079   1.399   .     A
C1075  C1081   1.399   .     A
C1076  C1080   1.398   .     A
C1076  C1082   1.398   .     A
C1077  C1079   1.391   .     A
C1077  C1085   1.404   .     A
C1077  H1163   1.083   .     S
C1078  H1098   1.083   .     S
C1078  C1080   1.392   .     A
C1078  C1086   1.404   .     A
C1079  H1162   1.083   .     S
C1081  H1094   1.074   .     S
C1081  C1083   1.406   .     A
C1082  H1093   1.075   .     S
C1082  C1084   1.405   .     A
C1083  C1085   1.418   .     A
C1083  C1087   1.427   .     A
C1084  C1086   1.418   .     A
C1084  C1088   1.427   .     A
C1085  C467    1.390   1_556 S
C1087  C494    1.425   1_556 S
Cu1089 O1111   1.958   .     S
Cu1089 O1114   1.944   .     S
Cu1089 O1107   1.959   .     S
Cu1089 N1105   2.015   .     S
Cu1089 O1110   1.959   .     S
Cu1090 O1113   1.944   .     S
Cu1090 O1112   1.958   .     S
Cu1090 N1106   2.015   .     S
Cu1090 O1109   1.959   .     S
Cu1090 O1108   1.959   .     S
Cu1090 Cu1155  2.681   .     S
H1095  C1146   1.083   .     S
O1108  C1124   1.289   .     S
O1112  C1140   1.297   .     S
C1115  N1116   1.157   .     T
C1117  N1118   1.157   .     T
C1119  N1120   1.157   .     T
C1121  N1122   1.157   .     T
C1123  C1134   1.448   .     S
C1123  O1175   1.289   .     A
C1123  O1041   1.289   1_655 S
C1124  C1133   1.447   .     S
C1124  O1176   1.288   .     A
C1125  C1127   1.386   .     A
C1125  H1165   1.076   .     S
C1125  C1154   1.417   .     A
C1126  C1153   1.417   .     A
C1126  C1128   1.386   .     A
C1126  H1166   1.076   .     S
C1127  H1157   1.084   .     S
C1128  H1158   1.085   .     S
C1128  C558    1.390   1_556 S
C1129  C1181   1.453   .     S
C1129  C1134   1.409   .     A
C1130  C1183   1.453   .     S
C1130  C1133   1.409   .     A
C1130  C736    1.397   1_565 S
C1131  C1185   1.453   .     S
C1131  C733    1.397   1_565 S
C1131  C1001   1.408   1_655 S
C1132  C1187   1.453   .     S
C1134  C1000   1.409   1_655 S
C1135  H1167   1.082   .     S
C1135  C1137   1.417   .     A
C1135  N1172   1.368   .     A
C1136  H1168   1.082   .     S
C1136  C1138   1.417   .     A
C1136  N1171   1.368   .     A
C1137  H1169   1.081   .     S
C1137  N1171   1.367   .     A
C1138  H1170   1.081   .     S
C1138  N1172   1.367   .     A
C1139  C1141   1.467   .     S
C1139  O1179   1.295   .     A
C1139  O1045   1.297   1_655 S
C1140  C1142   1.466   .     S
C1140  O1180   1.295   .     A
C1141  C1145   1.399   .     A
C1141  C1147   1.399   .     A
C1142  C1146   1.398   .     A
C1142  C1148   1.398   .     A
C1143  C1145   1.391   .     A
C1143  C1151   1.404   .     A
C1143  H1031   1.083   1_655 S
C1144  H1164   1.083   .     S
C1144  C1146   1.392   .     A
C1144  C1152   1.404   .     A
C1145  H1030   1.083   1_655 S
C1147  H1160   1.074   .     S
C1147  C1149   1.406   .     A
C1148  H1159   1.075   .     S
C1148  C1150   1.405   .     A
C1149  C1151   1.418   .     A
C1149  C1153   1.427   .     A
C1150  C1152   1.418   .     A
C1150  C1154   1.427   .     A
C1151  C533    1.390   1_556 S
C1153  C560    1.425   1_556 S
Cu1155 O1177   1.958   .     S
Cu1155 O1180   1.944   .     S
Cu1155 O1173   1.959   .     S
Cu1155 N1171   2.015   .     S
Cu1155 O1176   1.959   .     S
Cu1156 O1179   1.944   .     S
Cu1156 O1178   1.958   .     S
Cu1156 N1172   2.015   .     S
Cu1156 O1175   1.959   .     S
Cu1156 O1174   1.959   .     S
Cu1156 Cu1023  2.681   1_655 S
H1161  C1014   1.083   1_655 S
O1174  C992    1.289   1_655 S
O1178  C1008   1.297   1_655 S
C1181  N1182   1.157   .     T
C1183  N1184   1.157   .     T
C1185  N1186   1.157   .     T
C1187  N1188   1.157   .     T
