data_str_m2_o2_o10_pcu_sym.246
_audit_creation_date              2020-01-03
_audit_creation_method            'Materials Studio'
_symmetry_space_group_name_H-M    'P1'
_symmetry_Int_Tables_number       1
_symmetry_cell_setting            triclinic
loop_
_symmetry_equiv_pos_as_xyz
  x,y,z
_cell_length_a                    26.1578
_cell_length_b                    30.1771
_cell_length_c                    27.6827
_cell_angle_alpha                 89.2828
_cell_angle_beta                  97.8864
_cell_angle_gamma                 90.1501
loop_
_atom_site_label
_atom_site_type_symbol
_atom_site_fract_x
_atom_site_fract_y
_atom_site_fract_z
_atom_site_U_iso_or_equiv
_atom_site_adp_type
_atom_site_occupancy
C1     C     0.16607   0.16483   0.25022   0.00000  Uiso   1.00
C2     C     0.16613   0.33521   0.24962   0.00000  Uiso   1.00
C3     C     0.20696   0.22663   0.05987   0.00000  Uiso   1.00
C4     C     0.12564   0.22747   0.44062   0.00000  Uiso   1.00
C5     C     0.20548   0.22873   0.11075   0.00000  Uiso   1.00
C6     C     0.12716   0.22965   0.38972   0.00000  Uiso   1.00
C7     C     0.12807   0.26988   0.09864   0.00000  Uiso   1.00
C8     C     0.20518   0.27005   0.40083   0.00000  Uiso   1.00
C9     C     0.12794   0.26946   0.04785   0.00000  Uiso   1.00
C10    C     0.20538   0.26941   0.45167   0.00000  Uiso   1.00
C11    C     0.16720   0.24764   0.02740   0.00000  Uiso   1.00
C12    C     0.16589   0.24776   0.47264   0.00000  Uiso   1.00
C13    C     0.06788   0.24999   0.23755   0.00000  Uiso   1.00
C14    C     0.26546   0.24993   0.26245   0.00000  Uiso   1.00
C15    C     0.01263   0.24996   0.23064   0.00000  Uiso   1.00
C16    C     0.32071   0.24981   0.26936   0.00000  Uiso   1.00
C17    C     0.14781   0.04404   0.28100   0.00000  Uiso   1.00
C18    C     0.14986   0.45601   0.21308   0.00000  Uiso   1.00
C19    C     0.14063   0.08976   0.28027   0.00000  Uiso   1.00
C20    C     0.14266   0.41028   0.21177   0.00000  Uiso   1.00
C21    C     0.16902   0.11639   0.25105   0.00000  Uiso   1.00
C22    C     0.16910   0.38372   0.24957   0.00000  Uiso   1.00
C23    C     0.20276   0.09651   0.22246   0.00000  Uiso   1.00
C24    C     0.20087   0.40377   0.28824   0.00000  Uiso   1.00
C25    C     0.20971   0.05053   0.22282   0.00000  Uiso   1.00
C26    C     0.20775   0.44976   0.28988   0.00000  Uiso   1.00
C27    C     0.18154   0.02432   0.25265   0.00000  Uiso   1.00
C28    C     0.18164   0.47585   0.25152   0.00000  Uiso   1.00
Cu29   Cu    0.16667   0.24999   0.29822   0.00000  Uiso   1.00
Cu30   Cu    0.16667   0.25000   0.20179   0.00000  Uiso   1.00
H31    H     0.32599   0.25011   0.19350   0.00000  Uiso   1.00
H32    H     0.00736   0.24962   0.30650   0.00000  Uiso   1.00
H33    H     0.12605   0.02318   0.30301   0.00000  Uiso   1.00
H34    H     0.12955   0.47679   0.18451   0.00000  Uiso   1.00
H35    H     0.22470   0.11736   0.20059   0.00000  Uiso   1.00
H36    H     0.22137   0.38307   0.31679   0.00000  Uiso   1.00
H37    H     0.23497   0.21219   0.13574   0.00000  Uiso   1.00
H38    H     0.09701   0.21401   0.36511   0.00000  Uiso   1.00
H39    H     0.09703   0.28621   0.11343   0.00000  Uiso   1.00
H40    H     0.23602   0.28676   0.38557   0.00000  Uiso   1.00
H41    H     0.09696   0.28592   0.02445   0.00000  Uiso   1.00
H42    H     0.23648   0.28570   0.47470   0.00000  Uiso   1.00
N43    N     0.16667   0.25001   0.12935   0.00000  Uiso   1.00
N44    N     0.16667   0.24999   0.37066   0.00000  Uiso   1.00
O45    O     0.16667   0.18572   0.29072   0.00000  Uiso   1.00
O46    O     0.16666   0.31427   0.20929   0.00000  Uiso   1.00
O47    O     0.16667   0.18573   0.20928   0.00000  Uiso   1.00
O48    O     0.16666   0.31427   0.29072   0.00000  Uiso   1.00
O49    O     0.09161   0.24999   0.28132   0.00000  Uiso   1.00
O50    O     0.24172   0.25000   0.21868   0.00000  Uiso   1.00
O51    O     0.09161   0.25000   0.19989   0.00000  Uiso   1.00
O52    O     0.24172   0.25000   0.30012   0.00000  Uiso   1.00
S53    S     0.09470   0.11136   0.31515   0.00000  Uiso   1.00
O54    O     0.06646   0.15002   0.28929   0.00000  Uiso   1.00
O55    O     0.05621   0.07605   0.32388   0.00000  Uiso   1.00
O56    O     0.12611   0.12771   0.36907   0.00000  Uiso   1.00
H57    H     0.09974   0.12744   0.39156   0.00000  Uiso   1.00
S58    S     0.09902   0.38856   0.16315   0.00000  Uiso   1.00
O59    O     0.06819   0.35121   0.18108   0.00000  Uiso   1.00
O60    O     0.06243   0.42392   0.14092   0.00000  Uiso   1.00
O61    O     0.13279   0.36973   0.12022   0.00000  Uiso   1.00
H62    H     0.15278   0.39565   0.11089   0.00000  Uiso   1.00
C63    C     0.24687   0.03148   0.19237   0.00000  Uiso   1.00
O64    O     0.26226   0.49337   0.19895   0.00000  Uiso   1.00
O65    O     0.26514   0.05769   0.15635   0.00000  Uiso   1.00
H66    H     0.29039   0.04132   0.13831   0.00000  Uiso   1.00
C67    C     0.24261   0.46899   0.33156   0.00000  Uiso   1.00
O68    O     0.25874   0.00694   0.32944   0.00000  Uiso   1.00
O69    O     0.25784   0.44315   0.37334   0.00000  Uiso   1.00
H70    H     0.28171   0.45963   0.39903   0.00000  Uiso   1.00
C71    C     0.24947   0.20118   0.04263   0.00000  Uiso   1.00
O72    O     0.24389   0.18484   0.00205   0.00000  Uiso   1.00
O73    O     0.29591   0.19495   0.07359   0.00000  Uiso   1.00
H74    H     0.32189   0.17707   0.05798   0.00000  Uiso   1.00
C75    C     0.08243   0.20277   0.45838   0.00000  Uiso   1.00
O76    O     0.08771   0.18589   0.49914   0.00000  Uiso   1.00
O77    O     0.03569   0.19779   0.42766   0.00000  Uiso   1.00
H78    H     0.00929   0.18019   0.44356   0.00000  Uiso   1.00
C79    C     0.49940   0.16483   0.25022   0.00000  Uiso   1.00
C80    C     0.49946   0.33521   0.24962   0.00000  Uiso   1.00
C81    C     0.54029   0.22663   0.05987   0.00000  Uiso   1.00
C82    C     0.45897   0.22747   0.44062   0.00000  Uiso   1.00
C83    C     0.53881   0.22873   0.11075   0.00000  Uiso   1.00
C84    C     0.46050   0.22965   0.38972   0.00000  Uiso   1.00
C85    C     0.46140   0.26988   0.09864   0.00000  Uiso   1.00
C86    C     0.53851   0.27005   0.40083   0.00000  Uiso   1.00
C87    C     0.46127   0.26946   0.04785   0.00000  Uiso   1.00
C88    C     0.53872   0.26941   0.45167   0.00000  Uiso   1.00
C89    C     0.50054   0.24764   0.02740   0.00000  Uiso   1.00
C90    C     0.49922   0.24776   0.47264   0.00000  Uiso   1.00
C91    C     0.40121   0.24999   0.23755   0.00000  Uiso   1.00
C92    C     0.59879   0.24993   0.26245   0.00000  Uiso   1.00
C93    C     0.34596   0.24996   0.23064   0.00000  Uiso   1.00
C94    C     0.65405   0.24981   0.26936   0.00000  Uiso   1.00
C95    C     0.48115   0.04404   0.28100   0.00000  Uiso   1.00
C96    C     0.48319   0.45601   0.21308   0.00000  Uiso   1.00
C97    C     0.47396   0.08976   0.28027   0.00000  Uiso   1.00
C98    C     0.47600   0.41028   0.21177   0.00000  Uiso   1.00
C99    C     0.50235   0.11639   0.25105   0.00000  Uiso   1.00
C100   C     0.50244   0.38372   0.24957   0.00000  Uiso   1.00
C101   C     0.53609   0.09651   0.22246   0.00000  Uiso   1.00
C102   C     0.53420   0.40377   0.28824   0.00000  Uiso   1.00
C103   C     0.54305   0.05053   0.22282   0.00000  Uiso   1.00
C104   C     0.54108   0.44976   0.28988   0.00000  Uiso   1.00
C105   C     0.51488   0.02432   0.25265   0.00000  Uiso   1.00
C106   C     0.51497   0.47585   0.25152   0.00000  Uiso   1.00
Cu107  Cu    0.50000   0.24999   0.29822   0.00000  Uiso   1.00
Cu108  Cu    0.50000   0.25000   0.20179   0.00000  Uiso   1.00
H109   H     0.65932   0.25011   0.19350   0.00000  Uiso   1.00
H110   H     0.34069   0.24962   0.30650   0.00000  Uiso   1.00
H111   H     0.45939   0.02318   0.30301   0.00000  Uiso   1.00
H112   H     0.46288   0.47679   0.18451   0.00000  Uiso   1.00
H113   H     0.55803   0.11736   0.20059   0.00000  Uiso   1.00
H114   H     0.55471   0.38307   0.31679   0.00000  Uiso   1.00
H115   H     0.56831   0.21219   0.13574   0.00000  Uiso   1.00
H116   H     0.43034   0.21401   0.36511   0.00000  Uiso   1.00
H117   H     0.43037   0.28621   0.11343   0.00000  Uiso   1.00
H118   H     0.56936   0.28676   0.38557   0.00000  Uiso   1.00
H119   H     0.43029   0.28592   0.02445   0.00000  Uiso   1.00
H120   H     0.56981   0.28570   0.47470   0.00000  Uiso   1.00
N121   N     0.50000   0.25001   0.12935   0.00000  Uiso   1.00
N122   N     0.50000   0.24999   0.37066   0.00000  Uiso   1.00
O123   O     0.50000   0.18572   0.29072   0.00000  Uiso   1.00
O124   O     0.50000   0.31427   0.20929   0.00000  Uiso   1.00
O125   O     0.50000   0.18573   0.20928   0.00000  Uiso   1.00
O126   O     0.50000   0.31427   0.29072   0.00000  Uiso   1.00
O127   O     0.42495   0.24999   0.28132   0.00000  Uiso   1.00
O128   O     0.57505   0.25000   0.21868   0.00000  Uiso   1.00
O129   O     0.42495   0.25000   0.19989   0.00000  Uiso   1.00
O130   O     0.57505   0.25000   0.30012   0.00000  Uiso   1.00
S131   S     0.42803   0.11136   0.31515   0.00000  Uiso   1.00
O132   O     0.39979   0.15002   0.28929   0.00000  Uiso   1.00
O133   O     0.38954   0.07605   0.32388   0.00000  Uiso   1.00
O134   O     0.45944   0.12771   0.36907   0.00000  Uiso   1.00
H135   H     0.43307   0.12744   0.39156   0.00000  Uiso   1.00
S136   S     0.43235   0.38856   0.16315   0.00000  Uiso   1.00
O137   O     0.40152   0.35121   0.18108   0.00000  Uiso   1.00
O138   O     0.39576   0.42392   0.14092   0.00000  Uiso   1.00
O139   O     0.46612   0.36973   0.12022   0.00000  Uiso   1.00
H140   H     0.48611   0.39565   0.11089   0.00000  Uiso   1.00
C141   C     0.58020   0.03148   0.19237   0.00000  Uiso   1.00
O142   O     0.59559   0.49337   0.19895   0.00000  Uiso   1.00
O143   O     0.59848   0.05769   0.15635   0.00000  Uiso   1.00
H144   H     0.62373   0.04132   0.13831   0.00000  Uiso   1.00
C145   C     0.57594   0.46899   0.33156   0.00000  Uiso   1.00
O146   O     0.59208   0.00694   0.32944   0.00000  Uiso   1.00
O147   O     0.59117   0.44315   0.37334   0.00000  Uiso   1.00
H148   H     0.61504   0.45963   0.39903   0.00000  Uiso   1.00
C149   C     0.58280   0.20118   0.04263   0.00000  Uiso   1.00
O150   O     0.57723   0.18484   0.00205   0.00000  Uiso   1.00
O151   O     0.62924   0.19495   0.07359   0.00000  Uiso   1.00
H152   H     0.65522   0.17707   0.05798   0.00000  Uiso   1.00
C153   C     0.41577   0.20277   0.45838   0.00000  Uiso   1.00
O154   O     0.42104   0.18589   0.49914   0.00000  Uiso   1.00
O155   O     0.36902   0.19779   0.42766   0.00000  Uiso   1.00
H156   H     0.34263   0.18019   0.44356   0.00000  Uiso   1.00
C157   C     0.83274   0.16483   0.25022   0.00000  Uiso   1.00
C158   C     0.83279   0.33521   0.24962   0.00000  Uiso   1.00
C159   C     0.87362   0.22663   0.05987   0.00000  Uiso   1.00
C160   C     0.79230   0.22747   0.44062   0.00000  Uiso   1.00
C161   C     0.87215   0.22873   0.11075   0.00000  Uiso   1.00
C162   C     0.79383   0.22965   0.38972   0.00000  Uiso   1.00
C163   C     0.79474   0.26988   0.09864   0.00000  Uiso   1.00
C164   C     0.87185   0.27005   0.40083   0.00000  Uiso   1.00
C165   C     0.79460   0.26946   0.04785   0.00000  Uiso   1.00
C166   C     0.87205   0.26941   0.45167   0.00000  Uiso   1.00
C167   C     0.83387   0.24764   0.02740   0.00000  Uiso   1.00
C168   C     0.83256   0.24776   0.47264   0.00000  Uiso   1.00
C169   C     0.73454   0.24999   0.23755   0.00000  Uiso   1.00
C170   C     0.93212   0.24993   0.26245   0.00000  Uiso   1.00
C171   C     0.67929   0.24996   0.23064   0.00000  Uiso   1.00
C172   C     0.98738   0.24981   0.26936   0.00000  Uiso   1.00
C173   C     0.81448   0.04404   0.28100   0.00000  Uiso   1.00
C174   C     0.81652   0.45601   0.21308   0.00000  Uiso   1.00
C175   C     0.80729   0.08976   0.28027   0.00000  Uiso   1.00
C176   C     0.80933   0.41028   0.21177   0.00000  Uiso   1.00
C177   C     0.83569   0.11639   0.25105   0.00000  Uiso   1.00
C178   C     0.83577   0.38372   0.24957   0.00000  Uiso   1.00
C179   C     0.86943   0.09651   0.22246   0.00000  Uiso   1.00
C180   C     0.86754   0.40377   0.28824   0.00000  Uiso   1.00
C181   C     0.87638   0.05053   0.22282   0.00000  Uiso   1.00
C182   C     0.87441   0.44976   0.28988   0.00000  Uiso   1.00
C183   C     0.84821   0.02432   0.25265   0.00000  Uiso   1.00
C184   C     0.84830   0.47585   0.25152   0.00000  Uiso   1.00
Cu185  Cu    0.83333   0.24999   0.29822   0.00000  Uiso   1.00
Cu186  Cu    0.83333   0.25000   0.20179   0.00000  Uiso   1.00
H187   H     0.99266   0.25011   0.19350   0.00000  Uiso   1.00
H188   H     0.67402   0.24962   0.30650   0.00000  Uiso   1.00
H189   H     0.79272   0.02318   0.30301   0.00000  Uiso   1.00
H190   H     0.79621   0.47679   0.18451   0.00000  Uiso   1.00
H191   H     0.89137   0.11736   0.20059   0.00000  Uiso   1.00
H192   H     0.88804   0.38307   0.31679   0.00000  Uiso   1.00
H193   H     0.90164   0.21219   0.13574   0.00000  Uiso   1.00
H194   H     0.76367   0.21401   0.36511   0.00000  Uiso   1.00
H195   H     0.76370   0.28621   0.11343   0.00000  Uiso   1.00
H196   H     0.90269   0.28676   0.38557   0.00000  Uiso   1.00
H197   H     0.76363   0.28592   0.02445   0.00000  Uiso   1.00
H198   H     0.90315   0.28570   0.47470   0.00000  Uiso   1.00
N199   N     0.83333   0.25001   0.12935   0.00000  Uiso   1.00
N200   N     0.83333   0.24999   0.37066   0.00000  Uiso   1.00
O201   O     0.83334   0.18572   0.29072   0.00000  Uiso   1.00
O202   O     0.83333   0.31427   0.20929   0.00000  Uiso   1.00
O203   O     0.83334   0.18573   0.20928   0.00000  Uiso   1.00
O204   O     0.83333   0.31427   0.29072   0.00000  Uiso   1.00
O205   O     0.75828   0.24999   0.28132   0.00000  Uiso   1.00
O206   O     0.90839   0.25000   0.21868   0.00000  Uiso   1.00
O207   O     0.75828   0.25000   0.19989   0.00000  Uiso   1.00
O208   O     0.90839   0.25000   0.30012   0.00000  Uiso   1.00
S209   S     0.76137   0.11136   0.31515   0.00000  Uiso   1.00
O210   O     0.73313   0.15002   0.28929   0.00000  Uiso   1.00
O211   O     0.72287   0.07605   0.32388   0.00000  Uiso   1.00
O212   O     0.79277   0.12771   0.36907   0.00000  Uiso   1.00
H213   H     0.76641   0.12744   0.39156   0.00000  Uiso   1.00
S214   S     0.76568   0.38856   0.16315   0.00000  Uiso   1.00
O215   O     0.73486   0.35121   0.18108   0.00000  Uiso   1.00
O216   O     0.72909   0.42392   0.14092   0.00000  Uiso   1.00
O217   O     0.79946   0.36973   0.12022   0.00000  Uiso   1.00
H218   H     0.81944   0.39565   0.11089   0.00000  Uiso   1.00
C219   C     0.91354   0.03148   0.19237   0.00000  Uiso   1.00
O220   O     0.92892   0.49337   0.19895   0.00000  Uiso   1.00
O221   O     0.93181   0.05769   0.15635   0.00000  Uiso   1.00
H222   H     0.95706   0.04132   0.13831   0.00000  Uiso   1.00
C223   C     0.90928   0.46899   0.33156   0.00000  Uiso   1.00
O224   O     0.92541   0.00694   0.32944   0.00000  Uiso   1.00
O225   O     0.92451   0.44315   0.37334   0.00000  Uiso   1.00
H226   H     0.94838   0.45963   0.39903   0.00000  Uiso   1.00
C227   C     0.91614   0.20118   0.04263   0.00000  Uiso   1.00
O228   O     0.91056   0.18484   0.00205   0.00000  Uiso   1.00
O229   O     0.96258   0.19495   0.07359   0.00000  Uiso   1.00
H230   H     0.98856   0.17707   0.05798   0.00000  Uiso   1.00
C231   C     0.74910   0.20277   0.45838   0.00000  Uiso   1.00
O232   O     0.75438   0.18589   0.49914   0.00000  Uiso   1.00
O233   O     0.70236   0.19779   0.42766   0.00000  Uiso   1.00
H234   H     0.67596   0.18019   0.44356   0.00000  Uiso   1.00
C235   C     0.16607   0.66483   0.25022   0.00000  Uiso   1.00
C236   C     0.16613   0.83521   0.24962   0.00000  Uiso   1.00
C237   C     0.20696   0.72663   0.05987   0.00000  Uiso   1.00
C238   C     0.12564   0.72747   0.44062   0.00000  Uiso   1.00
C239   C     0.20548   0.72873   0.11075   0.00000  Uiso   1.00
C240   C     0.12716   0.72965   0.38972   0.00000  Uiso   1.00
C241   C     0.12807   0.76988   0.09864   0.00000  Uiso   1.00
C242   C     0.20518   0.77005   0.40083   0.00000  Uiso   1.00
C243   C     0.12794   0.76946   0.04785   0.00000  Uiso   1.00
C244   C     0.20538   0.76941   0.45167   0.00000  Uiso   1.00
C245   C     0.16720   0.74764   0.02740   0.00000  Uiso   1.00
C246   C     0.16589   0.74776   0.47264   0.00000  Uiso   1.00
C247   C     0.06788   0.74999   0.23755   0.00000  Uiso   1.00
C248   C     0.26546   0.74993   0.26245   0.00000  Uiso   1.00
C249   C     0.01263   0.74996   0.23064   0.00000  Uiso   1.00
C250   C     0.32071   0.74981   0.26936   0.00000  Uiso   1.00
C251   C     0.14781   0.54404   0.28100   0.00000  Uiso   1.00
C252   C     0.14986   0.95601   0.21308   0.00000  Uiso   1.00
C253   C     0.14063   0.58976   0.28027   0.00000  Uiso   1.00
C254   C     0.14266   0.91028   0.21177   0.00000  Uiso   1.00
C255   C     0.16902   0.61639   0.25105   0.00000  Uiso   1.00
C256   C     0.16910   0.88372   0.24957   0.00000  Uiso   1.00
C257   C     0.20276   0.59651   0.22246   0.00000  Uiso   1.00
C258   C     0.20087   0.90377   0.28824   0.00000  Uiso   1.00
C259   C     0.20971   0.55053   0.22282   0.00000  Uiso   1.00
C260   C     0.20775   0.94976   0.28988   0.00000  Uiso   1.00
C261   C     0.18154   0.52432   0.25265   0.00000  Uiso   1.00
C262   C     0.18164   0.97585   0.25152   0.00000  Uiso   1.00
Cu263  Cu    0.16667   0.74999   0.29822   0.00000  Uiso   1.00
Cu264  Cu    0.16667   0.75000   0.20179   0.00000  Uiso   1.00
H265   H     0.32599   0.75011   0.19350   0.00000  Uiso   1.00
H266   H     0.00736   0.74962   0.30650   0.00000  Uiso   1.00
H267   H     0.12605   0.52318   0.30301   0.00000  Uiso   1.00
H268   H     0.12955   0.97679   0.18451   0.00000  Uiso   1.00
H269   H     0.22470   0.61736   0.20059   0.00000  Uiso   1.00
H270   H     0.22137   0.88307   0.31679   0.00000  Uiso   1.00
H271   H     0.23497   0.71219   0.13574   0.00000  Uiso   1.00
H272   H     0.09701   0.71401   0.36511   0.00000  Uiso   1.00
H273   H     0.09703   0.78621   0.11343   0.00000  Uiso   1.00
H274   H     0.23602   0.78676   0.38557   0.00000  Uiso   1.00
H275   H     0.09696   0.78592   0.02445   0.00000  Uiso   1.00
H276   H     0.23648   0.78570   0.47470   0.00000  Uiso   1.00
N277   N     0.16667   0.75001   0.12935   0.00000  Uiso   1.00
N278   N     0.16667   0.74999   0.37066   0.00000  Uiso   1.00
O279   O     0.16667   0.68572   0.29072   0.00000  Uiso   1.00
O280   O     0.16666   0.81427   0.20929   0.00000  Uiso   1.00
O281   O     0.16667   0.68573   0.20928   0.00000  Uiso   1.00
O282   O     0.16666   0.81427   0.29072   0.00000  Uiso   1.00
O283   O     0.09161   0.74999   0.28132   0.00000  Uiso   1.00
O284   O     0.24172   0.75000   0.21868   0.00000  Uiso   1.00
O285   O     0.09161   0.75000   0.19989   0.00000  Uiso   1.00
O286   O     0.24172   0.75000   0.30012   0.00000  Uiso   1.00
S287   S     0.09470   0.61136   0.31515   0.00000  Uiso   1.00
O288   O     0.06646   0.65002   0.28929   0.00000  Uiso   1.00
O289   O     0.05621   0.57605   0.32388   0.00000  Uiso   1.00
O290   O     0.12611   0.62771   0.36907   0.00000  Uiso   1.00
H291   H     0.09974   0.62744   0.39156   0.00000  Uiso   1.00
S292   S     0.09902   0.88856   0.16315   0.00000  Uiso   1.00
O293   O     0.06819   0.85121   0.18108   0.00000  Uiso   1.00
O294   O     0.06243   0.92392   0.14092   0.00000  Uiso   1.00
O295   O     0.13279   0.86973   0.12022   0.00000  Uiso   1.00
H296   H     0.15278   0.89565   0.11089   0.00000  Uiso   1.00
C297   C     0.24687   0.53148   0.19237   0.00000  Uiso   1.00
O298   O     0.26226   0.99337   0.19895   0.00000  Uiso   1.00
O299   O     0.26514   0.55769   0.15635   0.00000  Uiso   1.00
H300   H     0.29039   0.54132   0.13831   0.00000  Uiso   1.00
C301   C     0.24261   0.96899   0.33156   0.00000  Uiso   1.00
O302   O     0.25874   0.50694   0.32944   0.00000  Uiso   1.00
O303   O     0.25784   0.94315   0.37334   0.00000  Uiso   1.00
H304   H     0.28171   0.95963   0.39903   0.00000  Uiso   1.00
C305   C     0.24947   0.70118   0.04263   0.00000  Uiso   1.00
O306   O     0.24389   0.68484   0.00205   0.00000  Uiso   1.00
O307   O     0.29591   0.69495   0.07359   0.00000  Uiso   1.00
H308   H     0.32189   0.67707   0.05798   0.00000  Uiso   1.00
C309   C     0.08243   0.70277   0.45838   0.00000  Uiso   1.00
O310   O     0.08771   0.68589   0.49914   0.00000  Uiso   1.00
O311   O     0.03569   0.69779   0.42766   0.00000  Uiso   1.00
H312   H     0.00929   0.68019   0.44356   0.00000  Uiso   1.00
C313   C     0.49940   0.66483   0.25022   0.00000  Uiso   1.00
C314   C     0.49946   0.83521   0.24962   0.00000  Uiso   1.00
C315   C     0.54029   0.72663   0.05987   0.00000  Uiso   1.00
C316   C     0.45897   0.72747   0.44062   0.00000  Uiso   1.00
C317   C     0.53881   0.72873   0.11075   0.00000  Uiso   1.00
C318   C     0.46050   0.72965   0.38972   0.00000  Uiso   1.00
C319   C     0.46140   0.76988   0.09864   0.00000  Uiso   1.00
C320   C     0.53851   0.77005   0.40083   0.00000  Uiso   1.00
C321   C     0.46127   0.76946   0.04785   0.00000  Uiso   1.00
C322   C     0.53872   0.76941   0.45167   0.00000  Uiso   1.00
C323   C     0.50054   0.74764   0.02740   0.00000  Uiso   1.00
C324   C     0.49922   0.74776   0.47264   0.00000  Uiso   1.00
C325   C     0.40121   0.74999   0.23755   0.00000  Uiso   1.00
C326   C     0.59879   0.74993   0.26245   0.00000  Uiso   1.00
C327   C     0.34596   0.74996   0.23064   0.00000  Uiso   1.00
C328   C     0.65405   0.74981   0.26936   0.00000  Uiso   1.00
C329   C     0.48115   0.54404   0.28100   0.00000  Uiso   1.00
C330   C     0.48319   0.95601   0.21308   0.00000  Uiso   1.00
C331   C     0.47396   0.58976   0.28027   0.00000  Uiso   1.00
C332   C     0.47600   0.91028   0.21177   0.00000  Uiso   1.00
C333   C     0.50235   0.61639   0.25105   0.00000  Uiso   1.00
C334   C     0.50244   0.88372   0.24957   0.00000  Uiso   1.00
C335   C     0.53609   0.59651   0.22246   0.00000  Uiso   1.00
C336   C     0.53420   0.90377   0.28824   0.00000  Uiso   1.00
C337   C     0.54305   0.55053   0.22282   0.00000  Uiso   1.00
C338   C     0.54108   0.94976   0.28988   0.00000  Uiso   1.00
C339   C     0.51488   0.52432   0.25265   0.00000  Uiso   1.00
C340   C     0.51497   0.97585   0.25152   0.00000  Uiso   1.00
Cu341  Cu    0.50000   0.74999   0.29822   0.00000  Uiso   1.00
Cu342  Cu    0.50000   0.75000   0.20179   0.00000  Uiso   1.00
H343   H     0.65932   0.75011   0.19350   0.00000  Uiso   1.00
H344   H     0.34069   0.74962   0.30650   0.00000  Uiso   1.00
H345   H     0.45939   0.52318   0.30301   0.00000  Uiso   1.00
H346   H     0.46288   0.97679   0.18451   0.00000  Uiso   1.00
H347   H     0.55803   0.61736   0.20059   0.00000  Uiso   1.00
H348   H     0.55471   0.88307   0.31679   0.00000  Uiso   1.00
H349   H     0.56831   0.71219   0.13574   0.00000  Uiso   1.00
H350   H     0.43034   0.71401   0.36511   0.00000  Uiso   1.00
H351   H     0.43037   0.78621   0.11343   0.00000  Uiso   1.00
H352   H     0.56936   0.78676   0.38557   0.00000  Uiso   1.00
H353   H     0.43029   0.78592   0.02445   0.00000  Uiso   1.00
H354   H     0.56981   0.78570   0.47470   0.00000  Uiso   1.00
N355   N     0.50000   0.75001   0.12935   0.00000  Uiso   1.00
N356   N     0.50000   0.74999   0.37066   0.00000  Uiso   1.00
O357   O     0.50000   0.68572   0.29072   0.00000  Uiso   1.00
O358   O     0.50000   0.81427   0.20929   0.00000  Uiso   1.00
O359   O     0.50000   0.68573   0.20928   0.00000  Uiso   1.00
O360   O     0.50000   0.81427   0.29072   0.00000  Uiso   1.00
O361   O     0.42495   0.74999   0.28132   0.00000  Uiso   1.00
O362   O     0.57505   0.75000   0.21868   0.00000  Uiso   1.00
O363   O     0.42495   0.75000   0.19989   0.00000  Uiso   1.00
O364   O     0.57505   0.75000   0.30012   0.00000  Uiso   1.00
S365   S     0.42803   0.61136   0.31515   0.00000  Uiso   1.00
O366   O     0.39979   0.65002   0.28929   0.00000  Uiso   1.00
O367   O     0.38954   0.57605   0.32388   0.00000  Uiso   1.00
O368   O     0.45944   0.62771   0.36907   0.00000  Uiso   1.00
H369   H     0.43307   0.62744   0.39156   0.00000  Uiso   1.00
S370   S     0.43235   0.88856   0.16315   0.00000  Uiso   1.00
O371   O     0.40152   0.85121   0.18108   0.00000  Uiso   1.00
O372   O     0.39576   0.92392   0.14092   0.00000  Uiso   1.00
O373   O     0.46612   0.86973   0.12022   0.00000  Uiso   1.00
H374   H     0.48611   0.89565   0.11089   0.00000  Uiso   1.00
C375   C     0.58020   0.53148   0.19237   0.00000  Uiso   1.00
O376   O     0.59559   0.99337   0.19895   0.00000  Uiso   1.00
O377   O     0.59848   0.55769   0.15635   0.00000  Uiso   1.00
H378   H     0.62373   0.54132   0.13831   0.00000  Uiso   1.00
C379   C     0.57594   0.96899   0.33156   0.00000  Uiso   1.00
O380   O     0.59208   0.50694   0.32944   0.00000  Uiso   1.00
O381   O     0.59117   0.94315   0.37334   0.00000  Uiso   1.00
H382   H     0.61504   0.95963   0.39903   0.00000  Uiso   1.00
C383   C     0.58280   0.70118   0.04263   0.00000  Uiso   1.00
O384   O     0.57723   0.68484   0.00205   0.00000  Uiso   1.00
O385   O     0.62924   0.69495   0.07359   0.00000  Uiso   1.00
H386   H     0.65522   0.67707   0.05798   0.00000  Uiso   1.00
C387   C     0.41577   0.70277   0.45838   0.00000  Uiso   1.00
O388   O     0.42104   0.68589   0.49914   0.00000  Uiso   1.00
O389   O     0.36902   0.69779   0.42766   0.00000  Uiso   1.00
H390   H     0.34263   0.68019   0.44356   0.00000  Uiso   1.00
C391   C     0.83274   0.66483   0.25022   0.00000  Uiso   1.00
C392   C     0.83279   0.83521   0.24962   0.00000  Uiso   1.00
C393   C     0.87362   0.72663   0.05987   0.00000  Uiso   1.00
C394   C     0.79230   0.72747   0.44062   0.00000  Uiso   1.00
C395   C     0.87215   0.72873   0.11075   0.00000  Uiso   1.00
C396   C     0.79383   0.72965   0.38972   0.00000  Uiso   1.00
C397   C     0.79474   0.76988   0.09864   0.00000  Uiso   1.00
C398   C     0.87185   0.77005   0.40083   0.00000  Uiso   1.00
C399   C     0.79460   0.76946   0.04785   0.00000  Uiso   1.00
C400   C     0.87205   0.76941   0.45167   0.00000  Uiso   1.00
C401   C     0.83387   0.74764   0.02740   0.00000  Uiso   1.00
C402   C     0.83256   0.74776   0.47264   0.00000  Uiso   1.00
C403   C     0.73454   0.74999   0.23755   0.00000  Uiso   1.00
C404   C     0.93212   0.74993   0.26245   0.00000  Uiso   1.00
C405   C     0.67929   0.74996   0.23064   0.00000  Uiso   1.00
C406   C     0.98738   0.74981   0.26936   0.00000  Uiso   1.00
C407   C     0.81448   0.54404   0.28100   0.00000  Uiso   1.00
C408   C     0.81652   0.95601   0.21308   0.00000  Uiso   1.00
C409   C     0.80729   0.58976   0.28027   0.00000  Uiso   1.00
C410   C     0.80933   0.91028   0.21177   0.00000  Uiso   1.00
C411   C     0.83569   0.61639   0.25105   0.00000  Uiso   1.00
C412   C     0.83577   0.88372   0.24957   0.00000  Uiso   1.00
C413   C     0.86943   0.59651   0.22246   0.00000  Uiso   1.00
C414   C     0.86754   0.90377   0.28824   0.00000  Uiso   1.00
C415   C     0.87638   0.55053   0.22282   0.00000  Uiso   1.00
C416   C     0.87441   0.94976   0.28988   0.00000  Uiso   1.00
C417   C     0.84821   0.52432   0.25265   0.00000  Uiso   1.00
C418   C     0.84830   0.97585   0.25152   0.00000  Uiso   1.00
Cu419  Cu    0.83333   0.74999   0.29822   0.00000  Uiso   1.00
Cu420  Cu    0.83333   0.75000   0.20179   0.00000  Uiso   1.00
H421   H     0.99266   0.75011   0.19350   0.00000  Uiso   1.00
H422   H     0.67402   0.74962   0.30650   0.00000  Uiso   1.00
H423   H     0.79272   0.52318   0.30301   0.00000  Uiso   1.00
H424   H     0.79621   0.97679   0.18451   0.00000  Uiso   1.00
H425   H     0.89137   0.61736   0.20059   0.00000  Uiso   1.00
H426   H     0.88804   0.88307   0.31679   0.00000  Uiso   1.00
H427   H     0.90164   0.71219   0.13574   0.00000  Uiso   1.00
H428   H     0.76367   0.71401   0.36511   0.00000  Uiso   1.00
H429   H     0.76370   0.78621   0.11343   0.00000  Uiso   1.00
H430   H     0.90269   0.78676   0.38557   0.00000  Uiso   1.00
H431   H     0.76363   0.78592   0.02445   0.00000  Uiso   1.00
H432   H     0.90315   0.78570   0.47470   0.00000  Uiso   1.00
N433   N     0.83333   0.75001   0.12935   0.00000  Uiso   1.00
N434   N     0.83333   0.74999   0.37066   0.00000  Uiso   1.00
O435   O     0.83334   0.68572   0.29072   0.00000  Uiso   1.00
O436   O     0.83333   0.81427   0.20929   0.00000  Uiso   1.00
O437   O     0.83334   0.68573   0.20928   0.00000  Uiso   1.00
O438   O     0.83333   0.81427   0.29072   0.00000  Uiso   1.00
O439   O     0.75828   0.74999   0.28132   0.00000  Uiso   1.00
O440   O     0.90839   0.75000   0.21868   0.00000  Uiso   1.00
O441   O     0.75828   0.75000   0.19989   0.00000  Uiso   1.00
O442   O     0.90839   0.75000   0.30012   0.00000  Uiso   1.00
S443   S     0.76137   0.61136   0.31515   0.00000  Uiso   1.00
O444   O     0.73313   0.65002   0.28929   0.00000  Uiso   1.00
O445   O     0.72287   0.57605   0.32388   0.00000  Uiso   1.00
O446   O     0.79277   0.62771   0.36907   0.00000  Uiso   1.00
H447   H     0.76641   0.62744   0.39156   0.00000  Uiso   1.00
S448   S     0.76568   0.88856   0.16315   0.00000  Uiso   1.00
O449   O     0.73486   0.85121   0.18108   0.00000  Uiso   1.00
O450   O     0.72909   0.92392   0.14092   0.00000  Uiso   1.00
O451   O     0.79946   0.86973   0.12022   0.00000  Uiso   1.00
H452   H     0.81944   0.89565   0.11089   0.00000  Uiso   1.00
C453   C     0.91354   0.53148   0.19237   0.00000  Uiso   1.00
O454   O     0.92892   0.99337   0.19895   0.00000  Uiso   1.00
O455   O     0.93181   0.55769   0.15635   0.00000  Uiso   1.00
H456   H     0.95706   0.54132   0.13831   0.00000  Uiso   1.00
C457   C     0.90928   0.96899   0.33156   0.00000  Uiso   1.00
O458   O     0.92541   0.50694   0.32944   0.00000  Uiso   1.00
O459   O     0.92451   0.94315   0.37334   0.00000  Uiso   1.00
H460   H     0.94838   0.95963   0.39903   0.00000  Uiso   1.00
C461   C     0.91614   0.70118   0.04263   0.00000  Uiso   1.00
O462   O     0.91056   0.68484   0.00205   0.00000  Uiso   1.00
O463   O     0.96258   0.69495   0.07359   0.00000  Uiso   1.00
H464   H     0.98856   0.67707   0.05798   0.00000  Uiso   1.00
C465   C     0.74910   0.70277   0.45838   0.00000  Uiso   1.00
O466   O     0.75438   0.68589   0.49914   0.00000  Uiso   1.00
O467   O     0.70236   0.69779   0.42766   0.00000  Uiso   1.00
H468   H     0.67596   0.68019   0.44356   0.00000  Uiso   1.00
C469   C     0.16607   0.16483   0.75022   0.00000  Uiso   1.00
C470   C     0.16613   0.33521   0.74962   0.00000  Uiso   1.00
C471   C     0.20696   0.22663   0.55987   0.00000  Uiso   1.00
C472   C     0.12564   0.22747   0.94062   0.00000  Uiso   1.00
C473   C     0.20548   0.22873   0.61075   0.00000  Uiso   1.00
C474   C     0.12716   0.22965   0.88972   0.00000  Uiso   1.00
C475   C     0.12807   0.26988   0.59864   0.00000  Uiso   1.00
C476   C     0.20518   0.27005   0.90083   0.00000  Uiso   1.00
C477   C     0.12794   0.26946   0.54785   0.00000  Uiso   1.00
C478   C     0.20538   0.26941   0.95167   0.00000  Uiso   1.00
C479   C     0.16720   0.24764   0.52740   0.00000  Uiso   1.00
C480   C     0.16589   0.24776   0.97264   0.00000  Uiso   1.00
C481   C     0.06788   0.24999   0.73755   0.00000  Uiso   1.00
C482   C     0.26546   0.24993   0.76245   0.00000  Uiso   1.00
C483   C     0.01263   0.24996   0.73064   0.00000  Uiso   1.00
C484   C     0.32071   0.24981   0.76936   0.00000  Uiso   1.00
C485   C     0.14781   0.04404   0.78100   0.00000  Uiso   1.00
C486   C     0.14986   0.45601   0.71308   0.00000  Uiso   1.00
C487   C     0.14063   0.08976   0.78027   0.00000  Uiso   1.00
C488   C     0.14266   0.41028   0.71177   0.00000  Uiso   1.00
C489   C     0.16902   0.11639   0.75105   0.00000  Uiso   1.00
C490   C     0.16910   0.38372   0.74957   0.00000  Uiso   1.00
C491   C     0.20276   0.09651   0.72246   0.00000  Uiso   1.00
C492   C     0.20087   0.40377   0.78824   0.00000  Uiso   1.00
C493   C     0.20971   0.05053   0.72282   0.00000  Uiso   1.00
C494   C     0.20775   0.44976   0.78988   0.00000  Uiso   1.00
C495   C     0.18154   0.02432   0.75265   0.00000  Uiso   1.00
C496   C     0.18164   0.47585   0.75152   0.00000  Uiso   1.00
Cu497  Cu    0.16667   0.24999   0.79822   0.00000  Uiso   1.00
Cu498  Cu    0.16667   0.25000   0.70179   0.00000  Uiso   1.00
H499   H     0.32599   0.25011   0.69350   0.00000  Uiso   1.00
H500   H     0.00736   0.24962   0.80650   0.00000  Uiso   1.00
H501   H     0.12605   0.02318   0.80301   0.00000  Uiso   1.00
H502   H     0.12955   0.47679   0.68451   0.00000  Uiso   1.00
H503   H     0.22470   0.11736   0.70059   0.00000  Uiso   1.00
H504   H     0.22137   0.38307   0.81679   0.00000  Uiso   1.00
H505   H     0.23497   0.21219   0.63574   0.00000  Uiso   1.00
H506   H     0.09701   0.21401   0.86511   0.00000  Uiso   1.00
H507   H     0.09703   0.28621   0.61343   0.00000  Uiso   1.00
H508   H     0.23602   0.28676   0.88557   0.00000  Uiso   1.00
H509   H     0.09696   0.28592   0.52445   0.00000  Uiso   1.00
H510   H     0.23648   0.28570   0.97470   0.00000  Uiso   1.00
N511   N     0.16667   0.25001   0.62935   0.00000  Uiso   1.00
N512   N     0.16667   0.24999   0.87066   0.00000  Uiso   1.00
O513   O     0.16667   0.18572   0.79072   0.00000  Uiso   1.00
O514   O     0.16666   0.31427   0.70929   0.00000  Uiso   1.00
O515   O     0.16667   0.18573   0.70928   0.00000  Uiso   1.00
O516   O     0.16666   0.31427   0.79072   0.00000  Uiso   1.00
O517   O     0.09161   0.24999   0.78132   0.00000  Uiso   1.00
O518   O     0.24172   0.25000   0.71868   0.00000  Uiso   1.00
O519   O     0.09161   0.25000   0.69989   0.00000  Uiso   1.00
O520   O     0.24172   0.25000   0.80012   0.00000  Uiso   1.00
S521   S     0.09470   0.11136   0.81515   0.00000  Uiso   1.00
O522   O     0.06646   0.15002   0.78929   0.00000  Uiso   1.00
O523   O     0.05621   0.07605   0.82388   0.00000  Uiso   1.00
O524   O     0.12611   0.12771   0.86907   0.00000  Uiso   1.00
H525   H     0.09974   0.12744   0.89156   0.00000  Uiso   1.00
S526   S     0.09902   0.38856   0.66315   0.00000  Uiso   1.00
O527   O     0.06819   0.35121   0.68108   0.00000  Uiso   1.00
O528   O     0.06243   0.42392   0.64092   0.00000  Uiso   1.00
O529   O     0.13279   0.36973   0.62022   0.00000  Uiso   1.00
H530   H     0.15278   0.39565   0.61089   0.00000  Uiso   1.00
C531   C     0.24687   0.03148   0.69237   0.00000  Uiso   1.00
O532   O     0.26226   0.49337   0.69895   0.00000  Uiso   1.00
O533   O     0.26514   0.05769   0.65635   0.00000  Uiso   1.00
H534   H     0.29039   0.04132   0.63831   0.00000  Uiso   1.00
C535   C     0.24261   0.46899   0.83156   0.00000  Uiso   1.00
O536   O     0.25874   0.00694   0.82944   0.00000  Uiso   1.00
O537   O     0.25784   0.44315   0.87334   0.00000  Uiso   1.00
H538   H     0.28171   0.45963   0.89903   0.00000  Uiso   1.00
C539   C     0.24947   0.20118   0.54263   0.00000  Uiso   1.00
O540   O     0.24389   0.18484   0.50205   0.00000  Uiso   1.00
O541   O     0.29591   0.19495   0.57359   0.00000  Uiso   1.00
H542   H     0.32189   0.17707   0.55798   0.00000  Uiso   1.00
C543   C     0.08243   0.20277   0.95838   0.00000  Uiso   1.00
O544   O     0.08771   0.18589   0.99914   0.00000  Uiso   1.00
O545   O     0.03569   0.19779   0.92766   0.00000  Uiso   1.00
H546   H     0.00929   0.18019   0.94356   0.00000  Uiso   1.00
C547   C     0.49940   0.16483   0.75022   0.00000  Uiso   1.00
C548   C     0.49946   0.33521   0.74962   0.00000  Uiso   1.00
C549   C     0.54029   0.22663   0.55987   0.00000  Uiso   1.00
C550   C     0.45897   0.22747   0.94062   0.00000  Uiso   1.00
C551   C     0.53881   0.22873   0.61075   0.00000  Uiso   1.00
C552   C     0.46050   0.22965   0.88972   0.00000  Uiso   1.00
C553   C     0.46140   0.26988   0.59864   0.00000  Uiso   1.00
C554   C     0.53851   0.27005   0.90083   0.00000  Uiso   1.00
C555   C     0.46127   0.26946   0.54785   0.00000  Uiso   1.00
C556   C     0.53872   0.26941   0.95167   0.00000  Uiso   1.00
C557   C     0.50054   0.24764   0.52740   0.00000  Uiso   1.00
C558   C     0.49922   0.24776   0.97264   0.00000  Uiso   1.00
C559   C     0.40121   0.24999   0.73755   0.00000  Uiso   1.00
C560   C     0.59879   0.24993   0.76245   0.00000  Uiso   1.00
C561   C     0.34596   0.24996   0.73064   0.00000  Uiso   1.00
C562   C     0.65405   0.24981   0.76936   0.00000  Uiso   1.00
C563   C     0.48115   0.04404   0.78100   0.00000  Uiso   1.00
C564   C     0.48319   0.45601   0.71308   0.00000  Uiso   1.00
C565   C     0.47396   0.08976   0.78027   0.00000  Uiso   1.00
C566   C     0.47600   0.41028   0.71177   0.00000  Uiso   1.00
C567   C     0.50235   0.11639   0.75105   0.00000  Uiso   1.00
C568   C     0.50244   0.38372   0.74957   0.00000  Uiso   1.00
C569   C     0.53609   0.09651   0.72246   0.00000  Uiso   1.00
C570   C     0.53420   0.40377   0.78824   0.00000  Uiso   1.00
C571   C     0.54305   0.05053   0.72282   0.00000  Uiso   1.00
C572   C     0.54108   0.44976   0.78988   0.00000  Uiso   1.00
C573   C     0.51488   0.02432   0.75265   0.00000  Uiso   1.00
C574   C     0.51497   0.47585   0.75152   0.00000  Uiso   1.00
Cu575  Cu    0.50000   0.24999   0.79822   0.00000  Uiso   1.00
Cu576  Cu    0.50000   0.25000   0.70179   0.00000  Uiso   1.00
H577   H     0.65932   0.25011   0.69350   0.00000  Uiso   1.00
H578   H     0.34069   0.24962   0.80650   0.00000  Uiso   1.00
H579   H     0.45939   0.02318   0.80301   0.00000  Uiso   1.00
H580   H     0.46288   0.47679   0.68451   0.00000  Uiso   1.00
H581   H     0.55803   0.11736   0.70059   0.00000  Uiso   1.00
H582   H     0.55471   0.38307   0.81679   0.00000  Uiso   1.00
H583   H     0.56831   0.21219   0.63574   0.00000  Uiso   1.00
H584   H     0.43034   0.21401   0.86511   0.00000  Uiso   1.00
H585   H     0.43037   0.28621   0.61343   0.00000  Uiso   1.00
H586   H     0.56936   0.28676   0.88557   0.00000  Uiso   1.00
H587   H     0.43029   0.28592   0.52445   0.00000  Uiso   1.00
H588   H     0.56981   0.28570   0.97470   0.00000  Uiso   1.00
N589   N     0.50000   0.25001   0.62935   0.00000  Uiso   1.00
N590   N     0.50000   0.24999   0.87066   0.00000  Uiso   1.00
O591   O     0.50000   0.18572   0.79072   0.00000  Uiso   1.00
O592   O     0.50000   0.31427   0.70929   0.00000  Uiso   1.00
O593   O     0.50000   0.18573   0.70928   0.00000  Uiso   1.00
O594   O     0.50000   0.31427   0.79072   0.00000  Uiso   1.00
O595   O     0.42495   0.24999   0.78132   0.00000  Uiso   1.00
O596   O     0.57505   0.25000   0.71868   0.00000  Uiso   1.00
O597   O     0.42495   0.25000   0.69989   0.00000  Uiso   1.00
O598   O     0.57505   0.25000   0.80012   0.00000  Uiso   1.00
S599   S     0.42803   0.11136   0.81515   0.00000  Uiso   1.00
O600   O     0.39979   0.15002   0.78929   0.00000  Uiso   1.00
O601   O     0.38954   0.07605   0.82388   0.00000  Uiso   1.00
O602   O     0.45944   0.12771   0.86907   0.00000  Uiso   1.00
H603   H     0.43307   0.12744   0.89156   0.00000  Uiso   1.00
S604   S     0.43235   0.38856   0.66315   0.00000  Uiso   1.00
O605   O     0.40152   0.35121   0.68108   0.00000  Uiso   1.00
O606   O     0.39576   0.42392   0.64092   0.00000  Uiso   1.00
O607   O     0.46612   0.36973   0.62022   0.00000  Uiso   1.00
H608   H     0.48611   0.39565   0.61089   0.00000  Uiso   1.00
C609   C     0.58020   0.03148   0.69237   0.00000  Uiso   1.00
O610   O     0.59559   0.49337   0.69895   0.00000  Uiso   1.00
O611   O     0.59848   0.05769   0.65635   0.00000  Uiso   1.00
H612   H     0.62373   0.04132   0.63831   0.00000  Uiso   1.00
C613   C     0.57594   0.46899   0.83156   0.00000  Uiso   1.00
O614   O     0.59208   0.00694   0.82944   0.00000  Uiso   1.00
O615   O     0.59117   0.44315   0.87334   0.00000  Uiso   1.00
H616   H     0.61504   0.45963   0.89903   0.00000  Uiso   1.00
C617   C     0.58280   0.20118   0.54263   0.00000  Uiso   1.00
O618   O     0.57723   0.18484   0.50205   0.00000  Uiso   1.00
O619   O     0.62924   0.19495   0.57359   0.00000  Uiso   1.00
H620   H     0.65522   0.17707   0.55798   0.00000  Uiso   1.00
C621   C     0.41577   0.20277   0.95838   0.00000  Uiso   1.00
O622   O     0.42104   0.18589   0.99914   0.00000  Uiso   1.00
O623   O     0.36902   0.19779   0.92766   0.00000  Uiso   1.00
H624   H     0.34263   0.18019   0.94356   0.00000  Uiso   1.00
C625   C     0.83274   0.16483   0.75022   0.00000  Uiso   1.00
C626   C     0.83279   0.33521   0.74962   0.00000  Uiso   1.00
C627   C     0.87362   0.22663   0.55987   0.00000  Uiso   1.00
C628   C     0.79230   0.22747   0.94062   0.00000  Uiso   1.00
C629   C     0.87215   0.22873   0.61075   0.00000  Uiso   1.00
C630   C     0.79383   0.22965   0.88972   0.00000  Uiso   1.00
C631   C     0.79474   0.26988   0.59864   0.00000  Uiso   1.00
C632   C     0.87185   0.27005   0.90083   0.00000  Uiso   1.00
C633   C     0.79460   0.26946   0.54785   0.00000  Uiso   1.00
C634   C     0.87205   0.26941   0.95167   0.00000  Uiso   1.00
C635   C     0.83387   0.24764   0.52740   0.00000  Uiso   1.00
C636   C     0.83256   0.24776   0.97264   0.00000  Uiso   1.00
C637   C     0.73454   0.24999   0.73755   0.00000  Uiso   1.00
C638   C     0.93212   0.24993   0.76245   0.00000  Uiso   1.00
C639   C     0.67929   0.24996   0.73064   0.00000  Uiso   1.00
C640   C     0.98738   0.24981   0.76936   0.00000  Uiso   1.00
C641   C     0.81448   0.04404   0.78100   0.00000  Uiso   1.00
C642   C     0.81652   0.45601   0.71308   0.00000  Uiso   1.00
C643   C     0.80729   0.08976   0.78027   0.00000  Uiso   1.00
C644   C     0.80933   0.41028   0.71177   0.00000  Uiso   1.00
C645   C     0.83569   0.11639   0.75105   0.00000  Uiso   1.00
C646   C     0.83577   0.38372   0.74957   0.00000  Uiso   1.00
C647   C     0.86943   0.09651   0.72246   0.00000  Uiso   1.00
C648   C     0.86754   0.40377   0.78824   0.00000  Uiso   1.00
C649   C     0.87638   0.05053   0.72282   0.00000  Uiso   1.00
C650   C     0.87441   0.44976   0.78988   0.00000  Uiso   1.00
C651   C     0.84821   0.02432   0.75265   0.00000  Uiso   1.00
C652   C     0.84830   0.47585   0.75152   0.00000  Uiso   1.00
Cu653  Cu    0.83333   0.24999   0.79822   0.00000  Uiso   1.00
Cu654  Cu    0.83333   0.25000   0.70179   0.00000  Uiso   1.00
H655   H     0.99266   0.25011   0.69350   0.00000  Uiso   1.00
H656   H     0.67402   0.24962   0.80650   0.00000  Uiso   1.00
H657   H     0.79272   0.02318   0.80301   0.00000  Uiso   1.00
H658   H     0.79621   0.47679   0.68451   0.00000  Uiso   1.00
H659   H     0.89137   0.11736   0.70059   0.00000  Uiso   1.00
H660   H     0.88804   0.38307   0.81679   0.00000  Uiso   1.00
H661   H     0.90164   0.21219   0.63574   0.00000  Uiso   1.00
H662   H     0.76367   0.21401   0.86511   0.00000  Uiso   1.00
H663   H     0.76370   0.28621   0.61343   0.00000  Uiso   1.00
H664   H     0.90269   0.28676   0.88557   0.00000  Uiso   1.00
H665   H     0.76363   0.28592   0.52445   0.00000  Uiso   1.00
H666   H     0.90315   0.28570   0.97470   0.00000  Uiso   1.00
N667   N     0.83333   0.25001   0.62935   0.00000  Uiso   1.00
N668   N     0.83333   0.24999   0.87066   0.00000  Uiso   1.00
O669   O     0.83334   0.18572   0.79072   0.00000  Uiso   1.00
O670   O     0.83333   0.31427   0.70929   0.00000  Uiso   1.00
O671   O     0.83334   0.18573   0.70928   0.00000  Uiso   1.00
O672   O     0.83333   0.31427   0.79072   0.00000  Uiso   1.00
O673   O     0.75828   0.24999   0.78132   0.00000  Uiso   1.00
O674   O     0.90839   0.25000   0.71868   0.00000  Uiso   1.00
O675   O     0.75828   0.25000   0.69989   0.00000  Uiso   1.00
O676   O     0.90839   0.25000   0.80012   0.00000  Uiso   1.00
S677   S     0.76137   0.11136   0.81515   0.00000  Uiso   1.00
O678   O     0.73313   0.15002   0.78929   0.00000  Uiso   1.00
O679   O     0.72287   0.07605   0.82388   0.00000  Uiso   1.00
O680   O     0.79277   0.12771   0.86907   0.00000  Uiso   1.00
H681   H     0.76641   0.12744   0.89156   0.00000  Uiso   1.00
S682   S     0.76568   0.38856   0.66315   0.00000  Uiso   1.00
O683   O     0.73486   0.35121   0.68108   0.00000  Uiso   1.00
O684   O     0.72909   0.42392   0.64092   0.00000  Uiso   1.00
O685   O     0.79946   0.36973   0.62022   0.00000  Uiso   1.00
H686   H     0.81944   0.39565   0.61089   0.00000  Uiso   1.00
C687   C     0.91354   0.03148   0.69237   0.00000  Uiso   1.00
O688   O     0.92892   0.49337   0.69895   0.00000  Uiso   1.00
O689   O     0.93181   0.05769   0.65635   0.00000  Uiso   1.00
H690   H     0.95706   0.04132   0.63831   0.00000  Uiso   1.00
C691   C     0.90928   0.46899   0.83156   0.00000  Uiso   1.00
O692   O     0.92541   0.00694   0.82944   0.00000  Uiso   1.00
O693   O     0.92451   0.44315   0.87334   0.00000  Uiso   1.00
H694   H     0.94838   0.45963   0.89903   0.00000  Uiso   1.00
C695   C     0.91614   0.20118   0.54263   0.00000  Uiso   1.00
O696   O     0.91056   0.18484   0.50205   0.00000  Uiso   1.00
O697   O     0.96258   0.19495   0.57359   0.00000  Uiso   1.00
H698   H     0.98856   0.17707   0.55798   0.00000  Uiso   1.00
C699   C     0.74910   0.20277   0.95838   0.00000  Uiso   1.00
O700   O     0.75438   0.18589   0.99914   0.00000  Uiso   1.00
O701   O     0.70236   0.19779   0.92766   0.00000  Uiso   1.00
H702   H     0.67596   0.18019   0.94356   0.00000  Uiso   1.00
C703   C     0.16607   0.66483   0.75022   0.00000  Uiso   1.00
C704   C     0.16613   0.83521   0.74962   0.00000  Uiso   1.00
C705   C     0.20696   0.72663   0.55987   0.00000  Uiso   1.00
C706   C     0.12564   0.72747   0.94062   0.00000  Uiso   1.00
C707   C     0.20548   0.72873   0.61075   0.00000  Uiso   1.00
C708   C     0.12716   0.72965   0.88972   0.00000  Uiso   1.00
C709   C     0.12807   0.76988   0.59864   0.00000  Uiso   1.00
C710   C     0.20518   0.77005   0.90083   0.00000  Uiso   1.00
C711   C     0.12794   0.76946   0.54785   0.00000  Uiso   1.00
C712   C     0.20538   0.76941   0.95167   0.00000  Uiso   1.00
C713   C     0.16720   0.74764   0.52740   0.00000  Uiso   1.00
C714   C     0.16589   0.74776   0.97264   0.00000  Uiso   1.00
C715   C     0.06788   0.74999   0.73755   0.00000  Uiso   1.00
C716   C     0.26546   0.74993   0.76245   0.00000  Uiso   1.00
C717   C     0.01263   0.74996   0.73064   0.00000  Uiso   1.00
C718   C     0.32071   0.74981   0.76936   0.00000  Uiso   1.00
C719   C     0.14781   0.54404   0.78100   0.00000  Uiso   1.00
C720   C     0.14986   0.95601   0.71308   0.00000  Uiso   1.00
C721   C     0.14063   0.58976   0.78027   0.00000  Uiso   1.00
C722   C     0.14266   0.91028   0.71177   0.00000  Uiso   1.00
C723   C     0.16902   0.61639   0.75105   0.00000  Uiso   1.00
C724   C     0.16910   0.88372   0.74957   0.00000  Uiso   1.00
C725   C     0.20276   0.59651   0.72246   0.00000  Uiso   1.00
C726   C     0.20087   0.90377   0.78824   0.00000  Uiso   1.00
C727   C     0.20971   0.55053   0.72282   0.00000  Uiso   1.00
C728   C     0.20775   0.94976   0.78988   0.00000  Uiso   1.00
C729   C     0.18154   0.52432   0.75265   0.00000  Uiso   1.00
C730   C     0.18164   0.97585   0.75152   0.00000  Uiso   1.00
Cu731  Cu    0.16667   0.74999   0.79822   0.00000  Uiso   1.00
Cu732  Cu    0.16667   0.75000   0.70179   0.00000  Uiso   1.00
H733   H     0.32599   0.75011   0.69350   0.00000  Uiso   1.00
H734   H     0.00736   0.74962   0.80650   0.00000  Uiso   1.00
H735   H     0.12605   0.52318   0.80301   0.00000  Uiso   1.00
H736   H     0.12955   0.97679   0.68451   0.00000  Uiso   1.00
H737   H     0.22470   0.61736   0.70059   0.00000  Uiso   1.00
H738   H     0.22137   0.88307   0.81679   0.00000  Uiso   1.00
H739   H     0.23497   0.71219   0.63574   0.00000  Uiso   1.00
H740   H     0.09701   0.71401   0.86511   0.00000  Uiso   1.00
H741   H     0.09703   0.78621   0.61343   0.00000  Uiso   1.00
H742   H     0.23602   0.78676   0.88557   0.00000  Uiso   1.00
H743   H     0.09696   0.78592   0.52445   0.00000  Uiso   1.00
H744   H     0.23648   0.78570   0.97470   0.00000  Uiso   1.00
N745   N     0.16667   0.75001   0.62935   0.00000  Uiso   1.00
N746   N     0.16667   0.74999   0.87066   0.00000  Uiso   1.00
O747   O     0.16667   0.68572   0.79072   0.00000  Uiso   1.00
O748   O     0.16666   0.81427   0.70929   0.00000  Uiso   1.00
O749   O     0.16667   0.68573   0.70928   0.00000  Uiso   1.00
O750   O     0.16666   0.81427   0.79072   0.00000  Uiso   1.00
O751   O     0.09161   0.74999   0.78132   0.00000  Uiso   1.00
O752   O     0.24172   0.75000   0.71868   0.00000  Uiso   1.00
O753   O     0.09161   0.75000   0.69989   0.00000  Uiso   1.00
O754   O     0.24172   0.75000   0.80012   0.00000  Uiso   1.00
S755   S     0.09470   0.61136   0.81515   0.00000  Uiso   1.00
O756   O     0.06646   0.65002   0.78929   0.00000  Uiso   1.00
O757   O     0.05621   0.57605   0.82388   0.00000  Uiso   1.00
O758   O     0.12611   0.62771   0.86907   0.00000  Uiso   1.00
H759   H     0.09974   0.62744   0.89156   0.00000  Uiso   1.00
S760   S     0.09902   0.88856   0.66315   0.00000  Uiso   1.00
O761   O     0.06819   0.85121   0.68108   0.00000  Uiso   1.00
O762   O     0.06243   0.92392   0.64092   0.00000  Uiso   1.00
O763   O     0.13279   0.86973   0.62022   0.00000  Uiso   1.00
H764   H     0.15278   0.89565   0.61089   0.00000  Uiso   1.00
C765   C     0.24687   0.53148   0.69237   0.00000  Uiso   1.00
O766   O     0.26226   0.99337   0.69895   0.00000  Uiso   1.00
O767   O     0.26514   0.55769   0.65635   0.00000  Uiso   1.00
H768   H     0.29039   0.54132   0.63831   0.00000  Uiso   1.00
C769   C     0.24261   0.96899   0.83156   0.00000  Uiso   1.00
O770   O     0.25874   0.50694   0.82944   0.00000  Uiso   1.00
O771   O     0.25784   0.94315   0.87334   0.00000  Uiso   1.00
H772   H     0.28171   0.95963   0.89903   0.00000  Uiso   1.00
C773   C     0.24947   0.70118   0.54263   0.00000  Uiso   1.00
O774   O     0.24389   0.68484   0.50205   0.00000  Uiso   1.00
O775   O     0.29591   0.69495   0.57359   0.00000  Uiso   1.00
H776   H     0.32189   0.67707   0.55798   0.00000  Uiso   1.00
C777   C     0.08243   0.70277   0.95838   0.00000  Uiso   1.00
O778   O     0.08771   0.68589   0.99914   0.00000  Uiso   1.00
O779   O     0.03569   0.69779   0.92766   0.00000  Uiso   1.00
H780   H     0.00929   0.68019   0.94356   0.00000  Uiso   1.00
C781   C     0.49940   0.66483   0.75022   0.00000  Uiso   1.00
C782   C     0.49946   0.83521   0.74962   0.00000  Uiso   1.00
C783   C     0.54029   0.72663   0.55987   0.00000  Uiso   1.00
C784   C     0.45897   0.72747   0.94062   0.00000  Uiso   1.00
C785   C     0.53881   0.72873   0.61075   0.00000  Uiso   1.00
C786   C     0.46050   0.72965   0.88972   0.00000  Uiso   1.00
C787   C     0.46140   0.76988   0.59864   0.00000  Uiso   1.00
C788   C     0.53851   0.77005   0.90083   0.00000  Uiso   1.00
C789   C     0.46127   0.76946   0.54785   0.00000  Uiso   1.00
C790   C     0.53872   0.76941   0.95167   0.00000  Uiso   1.00
C791   C     0.50054   0.74764   0.52740   0.00000  Uiso   1.00
C792   C     0.49922   0.74776   0.97264   0.00000  Uiso   1.00
C793   C     0.40121   0.74999   0.73755   0.00000  Uiso   1.00
C794   C     0.59879   0.74993   0.76245   0.00000  Uiso   1.00
C795   C     0.34596   0.74996   0.73064   0.00000  Uiso   1.00
C796   C     0.65405   0.74981   0.76936   0.00000  Uiso   1.00
C797   C     0.48115   0.54404   0.78100   0.00000  Uiso   1.00
C798   C     0.48319   0.95601   0.71308   0.00000  Uiso   1.00
C799   C     0.47396   0.58976   0.78027   0.00000  Uiso   1.00
C800   C     0.47600   0.91028   0.71177   0.00000  Uiso   1.00
C801   C     0.50235   0.61639   0.75105   0.00000  Uiso   1.00
C802   C     0.50244   0.88372   0.74957   0.00000  Uiso   1.00
C803   C     0.53609   0.59651   0.72246   0.00000  Uiso   1.00
C804   C     0.53420   0.90377   0.78824   0.00000  Uiso   1.00
C805   C     0.54305   0.55053   0.72282   0.00000  Uiso   1.00
C806   C     0.54108   0.94976   0.78988   0.00000  Uiso   1.00
C807   C     0.51488   0.52432   0.75265   0.00000  Uiso   1.00
C808   C     0.51497   0.97585   0.75152   0.00000  Uiso   1.00
Cu809  Cu    0.50000   0.74999   0.79822   0.00000  Uiso   1.00
Cu810  Cu    0.50000   0.75000   0.70179   0.00000  Uiso   1.00
H811   H     0.65932   0.75011   0.69350   0.00000  Uiso   1.00
H812   H     0.34069   0.74962   0.80650   0.00000  Uiso   1.00
H813   H     0.45939   0.52318   0.80301   0.00000  Uiso   1.00
H814   H     0.46288   0.97679   0.68451   0.00000  Uiso   1.00
H815   H     0.55803   0.61736   0.70059   0.00000  Uiso   1.00
H816   H     0.55471   0.88307   0.81679   0.00000  Uiso   1.00
H817   H     0.56831   0.71219   0.63574   0.00000  Uiso   1.00
H818   H     0.43034   0.71401   0.86511   0.00000  Uiso   1.00
H819   H     0.43037   0.78621   0.61343   0.00000  Uiso   1.00
H820   H     0.56936   0.78676   0.88557   0.00000  Uiso   1.00
H821   H     0.43029   0.78592   0.52445   0.00000  Uiso   1.00
H822   H     0.56981   0.78570   0.97470   0.00000  Uiso   1.00
N823   N     0.50000   0.75001   0.62935   0.00000  Uiso   1.00
N824   N     0.50000   0.74999   0.87066   0.00000  Uiso   1.00
O825   O     0.50000   0.68572   0.79072   0.00000  Uiso   1.00
O826   O     0.50000   0.81427   0.70929   0.00000  Uiso   1.00
O827   O     0.50000   0.68573   0.70928   0.00000  Uiso   1.00
O828   O     0.50000   0.81427   0.79072   0.00000  Uiso   1.00
O829   O     0.42495   0.74999   0.78132   0.00000  Uiso   1.00
O830   O     0.57505   0.75000   0.71868   0.00000  Uiso   1.00
O831   O     0.42495   0.75000   0.69989   0.00000  Uiso   1.00
O832   O     0.57505   0.75000   0.80012   0.00000  Uiso   1.00
S833   S     0.42803   0.61136   0.81515   0.00000  Uiso   1.00
O834   O     0.39979   0.65002   0.78929   0.00000  Uiso   1.00
O835   O     0.38954   0.57605   0.82388   0.00000  Uiso   1.00
O836   O     0.45944   0.62771   0.86907   0.00000  Uiso   1.00
H837   H     0.43307   0.62744   0.89156   0.00000  Uiso   1.00
S838   S     0.43235   0.88856   0.66315   0.00000  Uiso   1.00
O839   O     0.40152   0.85121   0.68108   0.00000  Uiso   1.00
O840   O     0.39576   0.92392   0.64092   0.00000  Uiso   1.00
O841   O     0.46612   0.86973   0.62022   0.00000  Uiso   1.00
H842   H     0.48611   0.89565   0.61089   0.00000  Uiso   1.00
C843   C     0.58020   0.53148   0.69237   0.00000  Uiso   1.00
O844   O     0.59559   0.99337   0.69895   0.00000  Uiso   1.00
O845   O     0.59848   0.55769   0.65635   0.00000  Uiso   1.00
H846   H     0.62373   0.54132   0.63831   0.00000  Uiso   1.00
C847   C     0.57594   0.96899   0.83156   0.00000  Uiso   1.00
O848   O     0.59208   0.50694   0.82944   0.00000  Uiso   1.00
O849   O     0.59117   0.94315   0.87334   0.00000  Uiso   1.00
H850   H     0.61504   0.95963   0.89903   0.00000  Uiso   1.00
C851   C     0.58280   0.70118   0.54263   0.00000  Uiso   1.00
O852   O     0.57723   0.68484   0.50205   0.00000  Uiso   1.00
O853   O     0.62924   0.69495   0.57359   0.00000  Uiso   1.00
H854   H     0.65522   0.67707   0.55798   0.00000  Uiso   1.00
C855   C     0.41577   0.70277   0.95838   0.00000  Uiso   1.00
O856   O     0.42104   0.68589   0.99914   0.00000  Uiso   1.00
O857   O     0.36902   0.69779   0.92766   0.00000  Uiso   1.00
H858   H     0.34263   0.68019   0.94356   0.00000  Uiso   1.00
C859   C     0.83274   0.66483   0.75022   0.00000  Uiso   1.00
C860   C     0.83279   0.83521   0.74962   0.00000  Uiso   1.00
C861   C     0.87362   0.72663   0.55987   0.00000  Uiso   1.00
C862   C     0.79230   0.72747   0.94062   0.00000  Uiso   1.00
C863   C     0.87215   0.72873   0.61075   0.00000  Uiso   1.00
C864   C     0.79383   0.72965   0.88972   0.00000  Uiso   1.00
C865   C     0.79474   0.76988   0.59864   0.00000  Uiso   1.00
C866   C     0.87185   0.77005   0.90083   0.00000  Uiso   1.00
C867   C     0.79460   0.76946   0.54785   0.00000  Uiso   1.00
C868   C     0.87205   0.76941   0.95167   0.00000  Uiso   1.00
C869   C     0.83387   0.74764   0.52740   0.00000  Uiso   1.00
C870   C     0.83256   0.74776   0.97264   0.00000  Uiso   1.00
C871   C     0.73454   0.74999   0.73755   0.00000  Uiso   1.00
C872   C     0.93212   0.74993   0.76245   0.00000  Uiso   1.00
C873   C     0.67929   0.74996   0.73064   0.00000  Uiso   1.00
C874   C     0.98738   0.74981   0.76936   0.00000  Uiso   1.00
C875   C     0.81448   0.54404   0.78100   0.00000  Uiso   1.00
C876   C     0.81652   0.95601   0.71308   0.00000  Uiso   1.00
C877   C     0.80729   0.58976   0.78027   0.00000  Uiso   1.00
C878   C     0.80933   0.91028   0.71177   0.00000  Uiso   1.00
C879   C     0.83569   0.61639   0.75105   0.00000  Uiso   1.00
C880   C     0.83577   0.88372   0.74957   0.00000  Uiso   1.00
C881   C     0.86943   0.59651   0.72246   0.00000  Uiso   1.00
C882   C     0.86754   0.90377   0.78824   0.00000  Uiso   1.00
C883   C     0.87638   0.55053   0.72282   0.00000  Uiso   1.00
C884   C     0.87441   0.94976   0.78988   0.00000  Uiso   1.00
C885   C     0.84821   0.52432   0.75265   0.00000  Uiso   1.00
C886   C     0.84830   0.97585   0.75152   0.00000  Uiso   1.00
Cu887  Cu    0.83333   0.74999   0.79822   0.00000  Uiso   1.00
Cu888  Cu    0.83333   0.75000   0.70179   0.00000  Uiso   1.00
H889   H     0.99266   0.75011   0.69350   0.00000  Uiso   1.00
H890   H     0.67402   0.74962   0.80650   0.00000  Uiso   1.00
H891   H     0.79272   0.52318   0.80301   0.00000  Uiso   1.00
H892   H     0.79621   0.97679   0.68451   0.00000  Uiso   1.00
H893   H     0.89137   0.61736   0.70059   0.00000  Uiso   1.00
H894   H     0.88804   0.88307   0.81679   0.00000  Uiso   1.00
H895   H     0.90164   0.71219   0.63574   0.00000  Uiso   1.00
H896   H     0.76367   0.71401   0.86511   0.00000  Uiso   1.00
H897   H     0.76370   0.78621   0.61343   0.00000  Uiso   1.00
H898   H     0.90269   0.78676   0.88557   0.00000  Uiso   1.00
H899   H     0.76363   0.78592   0.52445   0.00000  Uiso   1.00
H900   H     0.90315   0.78570   0.97470   0.00000  Uiso   1.00
N901   N     0.83333   0.75001   0.62935   0.00000  Uiso   1.00
N902   N     0.83333   0.74999   0.87066   0.00000  Uiso   1.00
O903   O     0.83334   0.68572   0.79072   0.00000  Uiso   1.00
O904   O     0.83333   0.81427   0.70929   0.00000  Uiso   1.00
O905   O     0.83334   0.68573   0.70928   0.00000  Uiso   1.00
O906   O     0.83333   0.81427   0.79072   0.00000  Uiso   1.00
O907   O     0.75828   0.74999   0.78132   0.00000  Uiso   1.00
O908   O     0.90839   0.75000   0.71868   0.00000  Uiso   1.00
O909   O     0.75828   0.75000   0.69989   0.00000  Uiso   1.00
O910   O     0.90839   0.75000   0.80012   0.00000  Uiso   1.00
S911   S     0.76137   0.61136   0.81515   0.00000  Uiso   1.00
O912   O     0.73313   0.65002   0.78929   0.00000  Uiso   1.00
O913   O     0.72287   0.57605   0.82388   0.00000  Uiso   1.00
O914   O     0.79277   0.62771   0.86907   0.00000  Uiso   1.00
H915   H     0.76641   0.62744   0.89156   0.00000  Uiso   1.00
S916   S     0.76568   0.88856   0.66315   0.00000  Uiso   1.00
O917   O     0.73486   0.85121   0.68108   0.00000  Uiso   1.00
O918   O     0.72909   0.92392   0.64092   0.00000  Uiso   1.00
O919   O     0.79946   0.86973   0.62022   0.00000  Uiso   1.00
H920   H     0.81944   0.89565   0.61089   0.00000  Uiso   1.00
C921   C     0.91354   0.53148   0.69237   0.00000  Uiso   1.00
O922   O     0.92892   0.99337   0.69895   0.00000  Uiso   1.00
O923   O     0.93181   0.55769   0.65635   0.00000  Uiso   1.00
H924   H     0.95706   0.54132   0.63831   0.00000  Uiso   1.00
C925   C     0.90928   0.96899   0.83156   0.00000  Uiso   1.00
O926   O     0.92541   0.50694   0.82944   0.00000  Uiso   1.00
O927   O     0.92451   0.94315   0.87334   0.00000  Uiso   1.00
H928   H     0.94838   0.95963   0.89903   0.00000  Uiso   1.00
C929   C     0.91614   0.70118   0.54263   0.00000  Uiso   1.00
O930   O     0.91056   0.68484   0.50205   0.00000  Uiso   1.00
O931   O     0.96258   0.69495   0.57359   0.00000  Uiso   1.00
H932   H     0.98856   0.67707   0.55798   0.00000  Uiso   1.00
C933   C     0.74910   0.70277   0.95838   0.00000  Uiso   1.00
O934   O     0.75438   0.68589   0.99914   0.00000  Uiso   1.00
O935   O     0.70236   0.69779   0.92766   0.00000  Uiso   1.00
H936   H     0.67596   0.68019   0.94356   0.00000  Uiso   1.00
loop_
_geom_bond_atom_site_label_1
_geom_bond_atom_site_label_2
_geom_bond_distance
_geom_bond_site_symmetry_2
_ccdc_geom_bond_type
C1     C21     1.464   .     S
C1     O47     1.292   .     A
C1     O45     1.291   .     A
C2     O46     1.292   .     A
C2     C22     1.466   .     S
C2     O48     1.293   .     A
C3     C71     1.488   .     S
C3     C5      1.416   .     A
C3     C11     1.423   .     A
C4     C75     1.488   .     S
C4     C12     1.422   .     A
C4     C6      1.416   .     A
C5     H37     1.082   .     S
C5     N43     1.365   .     A
C6     H38     1.081   .     S
C6     N44     1.364   .     A
C7     N43     1.362   .     A
C7     C9      1.406   .     A
C7     H39     1.081   .     S
C8     N44     1.363   .     A
C8     C10     1.407   .     A
C8     H40     1.081   .     S
C9     C11     1.408   .     A
C9     H41     1.083   .     S
C10    H42     1.083   .     S
C10    C12     1.408   .     A
C11    C480    1.512   1_554 S
C12    C479    1.512   .     S
C13    O51     1.285   .     A
C13    O49     1.284   .     A
C13    C15     1.432   .     S
C14    O52     1.285   .     A
C14    O50     1.284   .     A
C14    C16     1.432   .     S
C15    C172    1.334   1_455 S
C15    H187    1.087   1_455 S
C16    C93     1.334   .     S
C16    H110    1.088   .     S
C17    H33     1.084   .     S
C17    C27     1.398   .     A
C17    C19     1.393   .     A
C18    C20     1.393   .     A
C18    H34     1.084   .     S
C18    C28     1.397   .     A
C19    C21     1.413   .     A
C19    S53     1.772   .     S
C20    C22     1.414   .     A
C20    S58     1.772   .     S
C21    C23     1.404   .     A
C22    C24     1.404   .     A
C23    H35     1.084   .     S
C23    C25     1.400   .     A
C24    H36     1.084   .     S
C24    C26     1.400   .     A
C25    C63     1.492   .     S
C25    C27     1.413   .     A
C26    C67     1.492   .     S
C26    C28     1.413   .     A
C27    C262    1.463   1_545 S
C28    C261    1.463   .     S
Cu29   O49     1.955   .     S
Cu29   O48     1.948   .     S
Cu29   O45     1.953   .     S
Cu29   Cu30    2.669   .     S
Cu29   N44     2.005   .     S
Cu29   O52     1.957   .     S
Cu30   O51     1.957   .     S
Cu30   O50     1.955   .     S
Cu30   O47     1.948   .     S
Cu30   N43     2.005   .     S
Cu30   O46     1.953   .     S
H31    C93     1.087   .     S
H32    C172    1.088   1_455 S
S53    O55     1.504   .     D
S53    O54     1.503   .     D
S53    O56     1.681   .     S
O56    H57     0.991   .     S
S58    O60     1.504   .     D
S58    O61     1.680   .     S
S58    O59     1.503   .     D
O61    H62     0.991   .     S
C63    O65     1.399   .     S
C63    O298    1.223   1_545 S
O64    C297    1.223   .     S
O65    H66     1.014   .     S
C67    O69     1.399   .     S
C67    O302    1.223   .     S
O68    C301    1.223   1_545 S
O69    H70     1.014   .     S
C71    O73     1.399   .     S
C71    O72     1.223   .     D
O73    H74     1.014   .     S
C75    O76     1.223   .     D
C75    O77     1.399   .     S
O77    H78     1.014   .     S
C79    C99     1.464   .     S
C79    O125    1.292   .     A
C79    O123    1.291   .     A
C80    O124    1.292   .     A
C80    C100    1.466   .     S
C80    O126    1.293   .     A
C81    C149    1.488   .     S
C81    C83     1.416   .     A
C81    C89     1.423   .     A
C82    C153    1.488   .     S
C82    C90     1.422   .     A
C82    C84     1.416   .     A
C83    H115    1.082   .     S
C83    N121    1.365   .     A
C84    H116    1.081   .     S
C84    N122    1.364   .     A
C85    N121    1.362   .     A
C85    C87     1.406   .     A
C85    H117    1.081   .     S
C86    N122    1.363   .     A
C86    C88     1.407   .     A
C86    H118    1.081   .     S
C87    C89     1.408   .     A
C87    H119    1.083   .     S
C88    H120    1.083   .     S
C88    C90     1.408   .     A
C89    C558    1.512   1_554 S
C90    C557    1.512   .     S
C91    O129    1.285   .     A
C91    O127    1.284   .     A
C91    C93     1.432   .     S
C92    O130    1.285   .     A
C92    O128    1.284   .     A
C92    C94     1.432   .     S
C94    C171    1.334   .     S
C94    H188    1.088   .     S
C95    H111    1.084   .     S
C95    C105    1.398   .     A
C95    C97     1.393   .     A
C96    C98     1.393   .     A
C96    H112    1.084   .     S
C96    C106    1.397   .     A
C97    C99     1.413   .     A
C97    S131    1.772   .     S
C98    C100    1.414   .     A
C98    S136    1.772   .     S
C99    C101    1.404   .     A
C100   C102    1.404   .     A
C101   H113    1.084   .     S
C101   C103    1.400   .     A
C102   H114    1.084   .     S
C102   C104    1.400   .     A
C103   C141    1.492   .     S
C103   C105    1.413   .     A
C104   C145    1.492   .     S
C104   C106    1.413   .     A
C105   C340    1.463   1_545 S
C106   C339    1.463   .     S
Cu107  O127    1.955   .     S
Cu107  O126    1.948   .     S
Cu107  O123    1.953   .     S
Cu107  Cu108   2.669   .     S
Cu107  N122    2.005   .     S
Cu107  O130    1.957   .     S
Cu108  O129    1.957   .     S
Cu108  O128    1.955   .     S
Cu108  O125    1.948   .     S
Cu108  N121    2.005   .     S
Cu108  O124    1.953   .     S
H109   C171    1.087   .     S
S131   O133    1.504   .     D
S131   O132    1.503   .     D
S131   O134    1.681   .     S
O134   H135    0.991   .     S
S136   O138    1.504   .     D
S136   O139    1.680   .     S
S136   O137    1.503   .     D
O139   H140    0.991   .     S
C141   O143    1.399   .     S
C141   O376    1.223   1_545 S
O142   C375    1.223   .     S
O143   H144    1.014   .     S
C145   O147    1.399   .     S
C145   O380    1.223   .     S
O146   C379    1.223   1_545 S
O147   H148    1.014   .     S
C149   O151    1.399   .     S
C149   O150    1.223   .     D
O151   H152    1.014   .     S
C153   O154    1.223   .     D
C153   O155    1.399   .     S
O155   H156    1.014   .     S
C157   C177    1.464   .     S
C157   O203    1.292   .     A
C157   O201    1.291   .     A
C158   O202    1.292   .     A
C158   C178    1.466   .     S
C158   O204    1.293   .     A
C159   C227    1.488   .     S
C159   C161    1.416   .     A
C159   C167    1.423   .     A
C160   C231    1.488   .     S
C160   C168    1.422   .     A
C160   C162    1.416   .     A
C161   H193    1.082   .     S
C161   N199    1.365   .     A
C162   H194    1.081   .     S
C162   N200    1.364   .     A
C163   N199    1.362   .     A
C163   C165    1.406   .     A
C163   H195    1.081   .     S
C164   N200    1.363   .     A
C164   C166    1.407   .     A
C164   H196    1.081   .     S
C165   C167    1.408   .     A
C165   H197    1.083   .     S
C166   H198    1.083   .     S
C166   C168    1.408   .     A
C167   C636    1.512   1_554 S
C168   C635    1.512   .     S
C169   O207    1.285   .     A
C169   O205    1.284   .     A
C169   C171    1.432   .     S
C170   O208    1.285   .     A
C170   O206    1.284   .     A
C170   C172    1.432   .     S
C172   C15     1.334   1_655 S
C172   H32     1.088   1_655 S
C173   H189    1.084   .     S
C173   C183    1.398   .     A
C173   C175    1.393   .     A
C174   C176    1.393   .     A
C174   H190    1.084   .     S
C174   C184    1.397   .     A
C175   C177    1.413   .     A
C175   S209    1.772   .     S
C176   C178    1.414   .     A
C176   S214    1.772   .     S
C177   C179    1.404   .     A
C178   C180    1.404   .     A
C179   H191    1.084   .     S
C179   C181    1.400   .     A
C180   H192    1.084   .     S
C180   C182    1.400   .     A
C181   C219    1.492   .     S
C181   C183    1.413   .     A
C182   C223    1.492   .     S
C182   C184    1.413   .     A
C183   C418    1.463   1_545 S
C184   C417    1.463   .     S
Cu185  O205    1.955   .     S
Cu185  O204    1.948   .     S
Cu185  O201    1.953   .     S
Cu185  Cu186   2.669   .     S
Cu185  N200    2.005   .     S
Cu185  O208    1.957   .     S
Cu186  O207    1.957   .     S
Cu186  O206    1.955   .     S
Cu186  O203    1.948   .     S
Cu186  N199    2.005   .     S
Cu186  O202    1.953   .     S
H187   C15     1.087   1_655 S
S209   O211    1.504   .     D
S209   O210    1.503   .     D
S209   O212    1.681   .     S
O212   H213    0.991   .     S
S214   O216    1.504   .     D
S214   O217    1.680   .     S
S214   O215    1.503   .     D
O217   H218    0.991   .     S
C219   O221    1.399   .     S
C219   O454    1.223   1_545 S
O220   C453    1.223   .     S
O221   H222    1.014   .     S
C223   O225    1.399   .     S
C223   O458    1.223   .     S
O224   C457    1.223   1_545 S
O225   H226    1.014   .     S
C227   O229    1.399   .     S
C227   O228    1.223   .     D
O229   H230    1.014   .     S
C231   O232    1.223   .     D
C231   O233    1.399   .     S
O233   H234    1.014   .     S
C235   C255    1.464   .     S
C235   O281    1.292   .     A
C235   O279    1.291   .     A
C236   O280    1.292   .     A
C236   C256    1.466   .     S
C236   O282    1.293   .     A
C237   C305    1.488   .     S
C237   C239    1.416   .     A
C237   C245    1.423   .     A
C238   C309    1.488   .     S
C238   C246    1.422   .     A
C238   C240    1.416   .     A
C239   H271    1.082   .     S
C239   N277    1.365   .     A
C240   H272    1.081   .     S
C240   N278    1.364   .     A
C241   N277    1.362   .     A
C241   C243    1.406   .     A
C241   H273    1.081   .     S
C242   N278    1.363   .     A
C242   C244    1.407   .     A
C242   H274    1.081   .     S
C243   C245    1.408   .     A
C243   H275    1.083   .     S
C244   H276    1.083   .     S
C244   C246    1.408   .     A
C245   C714    1.512   1_554 S
C246   C713    1.512   .     S
C247   O285    1.285   .     A
C247   O283    1.284   .     A
C247   C249    1.432   .     S
C248   O286    1.285   .     A
C248   O284    1.284   .     A
C248   C250    1.432   .     S
C249   C406    1.334   1_455 S
C249   H421    1.087   1_455 S
C250   C327    1.334   .     S
C250   H344    1.088   .     S
C251   H267    1.084   .     S
C251   C261    1.398   .     A
C251   C253    1.393   .     A
C252   C254    1.393   .     A
C252   H268    1.084   .     S
C252   C262    1.397   .     A
C253   C255    1.413   .     A
C253   S287    1.772   .     S
C254   C256    1.414   .     A
C254   S292    1.772   .     S
C255   C257    1.404   .     A
C256   C258    1.404   .     A
C257   H269    1.084   .     S
C257   C259    1.400   .     A
C258   H270    1.084   .     S
C258   C260    1.400   .     A
C259   C297    1.492   .     S
C259   C261    1.413   .     A
C260   C301    1.492   .     S
C260   C262    1.413   .     A
C262   C27     1.463   1_565 S
Cu263  O283    1.955   .     S
Cu263  O282    1.948   .     S
Cu263  O279    1.953   .     S
Cu263  Cu264   2.669   .     S
Cu263  N278    2.005   .     S
Cu263  O286    1.957   .     S
Cu264  O285    1.957   .     S
Cu264  O284    1.955   .     S
Cu264  O281    1.948   .     S
Cu264  N277    2.005   .     S
Cu264  O280    1.953   .     S
H265   C327    1.087   .     S
H266   C406    1.088   1_455 S
S287   O289    1.504   .     D
S287   O288    1.503   .     D
S287   O290    1.681   .     S
O290   H291    0.991   .     S
S292   O294    1.504   .     D
S292   O295    1.680   .     S
S292   O293    1.503   .     D
O295   H296    0.991   .     S
C297   O299    1.399   .     S
O298   C63     1.223   1_565 S
O299   H300    1.014   .     S
C301   O303    1.399   .     S
C301   O68     1.223   1_565 S
O303   H304    1.014   .     S
C305   O307    1.399   .     S
C305   O306    1.223   .     D
O307   H308    1.014   .     S
C309   O310    1.223   .     D
C309   O311    1.399   .     S
O311   H312    1.014   .     S
C313   C333    1.464   .     S
C313   O359    1.292   .     A
C313   O357    1.291   .     A
C314   O358    1.292   .     A
C314   C334    1.466   .     S
C314   O360    1.293   .     A
C315   C383    1.488   .     S
C315   C317    1.416   .     A
C315   C323    1.423   .     A
C316   C387    1.488   .     S
C316   C324    1.422   .     A
C316   C318    1.416   .     A
C317   H349    1.082   .     S
C317   N355    1.365   .     A
C318   H350    1.081   .     S
C318   N356    1.364   .     A
C319   N355    1.362   .     A
C319   C321    1.406   .     A
C319   H351    1.081   .     S
C320   N356    1.363   .     A
C320   C322    1.407   .     A
C320   H352    1.081   .     S
C321   C323    1.408   .     A
C321   H353    1.083   .     S
C322   H354    1.083   .     S
C322   C324    1.408   .     A
C323   C792    1.512   1_554 S
C324   C791    1.512   .     S
C325   O363    1.285   .     A
C325   O361    1.284   .     A
C325   C327    1.432   .     S
C326   O364    1.285   .     A
C326   O362    1.284   .     A
C326   C328    1.432   .     S
C328   C405    1.334   .     S
C328   H422    1.088   .     S
C329   H345    1.084   .     S
C329   C339    1.398   .     A
C329   C331    1.393   .     A
C330   C332    1.393   .     A
C330   H346    1.084   .     S
C330   C340    1.397   .     A
C331   C333    1.413   .     A
C331   S365    1.772   .     S
C332   C334    1.414   .     A
C332   S370    1.772   .     S
C333   C335    1.404   .     A
C334   C336    1.404   .     A
C335   H347    1.084   .     S
C335   C337    1.400   .     A
C336   H348    1.084   .     S
C336   C338    1.400   .     A
C337   C375    1.492   .     S
C337   C339    1.413   .     A
C338   C379    1.492   .     S
C338   C340    1.413   .     A
C340   C105    1.463   1_565 S
Cu341  O361    1.955   .     S
Cu341  O360    1.948   .     S
Cu341  O357    1.953   .     S
Cu341  Cu342   2.669   .     S
Cu341  N356    2.005   .     S
Cu341  O364    1.957   .     S
Cu342  O363    1.957   .     S
Cu342  O362    1.955   .     S
Cu342  O359    1.948   .     S
Cu342  N355    2.005   .     S
Cu342  O358    1.953   .     S
H343   C405    1.087   .     S
S365   O367    1.504   .     D
S365   O366    1.503   .     D
S365   O368    1.681   .     S
O368   H369    0.991   .     S
S370   O372    1.504   .     D
S370   O373    1.680   .     S
S370   O371    1.503   .     D
O373   H374    0.991   .     S
C375   O377    1.399   .     S
O376   C141    1.223   1_565 S
O377   H378    1.014   .     S
C379   O381    1.399   .     S
C379   O146    1.223   1_565 S
O381   H382    1.014   .     S
C383   O385    1.399   .     S
C383   O384    1.223   .     D
O385   H386    1.014   .     S
C387   O388    1.223   .     D
C387   O389    1.399   .     S
O389   H390    1.014   .     S
C391   C411    1.464   .     S
C391   O437    1.292   .     A
C391   O435    1.291   .     A
C392   O436    1.292   .     A
C392   C412    1.466   .     S
C392   O438    1.293   .     A
C393   C461    1.488   .     S
C393   C395    1.416   .     A
C393   C401    1.423   .     A
C394   C465    1.488   .     S
C394   C402    1.422   .     A
C394   C396    1.416   .     A
C395   H427    1.082   .     S
C395   N433    1.365   .     A
C396   H428    1.081   .     S
C396   N434    1.364   .     A
C397   N433    1.362   .     A
C397   C399    1.406   .     A
C397   H429    1.081   .     S
C398   N434    1.363   .     A
C398   C400    1.407   .     A
C398   H430    1.081   .     S
C399   C401    1.408   .     A
C399   H431    1.083   .     S
C400   H432    1.083   .     S
C400   C402    1.408   .     A
C401   C870    1.512   1_554 S
C402   C869    1.512   .     S
C403   O441    1.285   .     A
C403   O439    1.284   .     A
C403   C405    1.432   .     S
C404   O442    1.285   .     A
C404   O440    1.284   .     A
C404   C406    1.432   .     S
C406   C249    1.334   1_655 S
C406   H266    1.088   1_655 S
C407   H423    1.084   .     S
C407   C417    1.398   .     A
C407   C409    1.393   .     A
C408   C410    1.393   .     A
C408   H424    1.084   .     S
C408   C418    1.397   .     A
C409   C411    1.413   .     A
C409   S443    1.772   .     S
C410   C412    1.414   .     A
C410   S448    1.772   .     S
C411   C413    1.404   .     A
C412   C414    1.404   .     A
C413   H425    1.084   .     S
C413   C415    1.400   .     A
C414   H426    1.084   .     S
C414   C416    1.400   .     A
C415   C453    1.492   .     S
C415   C417    1.413   .     A
C416   C457    1.492   .     S
C416   C418    1.413   .     A
C418   C183    1.463   1_565 S
Cu419  O439    1.955   .     S
Cu419  O438    1.948   .     S
Cu419  O435    1.953   .     S
Cu419  Cu420   2.669   .     S
Cu419  N434    2.005   .     S
Cu419  O442    1.957   .     S
Cu420  O441    1.957   .     S
Cu420  O440    1.955   .     S
Cu420  O437    1.948   .     S
Cu420  N433    2.005   .     S
Cu420  O436    1.953   .     S
H421   C249    1.087   1_655 S
S443   O445    1.504   .     D
S443   O444    1.503   .     D
S443   O446    1.681   .     S
O446   H447    0.991   .     S
S448   O450    1.504   .     D
S448   O451    1.680   .     S
S448   O449    1.503   .     D
O451   H452    0.991   .     S
C453   O455    1.399   .     S
O454   C219    1.223   1_565 S
O455   H456    1.014   .     S
C457   O459    1.399   .     S
C457   O224    1.223   1_565 S
O459   H460    1.014   .     S
C461   O463    1.399   .     S
C461   O462    1.223   .     D
O463   H464    1.014   .     S
C465   O466    1.223   .     D
C465   O467    1.399   .     S
O467   H468    1.014   .     S
C469   C489    1.464   .     S
C469   O515    1.292   .     A
C469   O513    1.291   .     A
C470   O514    1.292   .     A
C470   C490    1.466   .     S
C470   O516    1.293   .     A
C471   C539    1.488   .     S
C471   C473    1.416   .     A
C471   C479    1.423   .     A
C472   C543    1.488   .     S
C472   C480    1.422   .     A
C472   C474    1.416   .     A
C473   H505    1.082   .     S
C473   N511    1.365   .     A
C474   H506    1.081   .     S
C474   N512    1.364   .     A
C475   N511    1.362   .     A
C475   C477    1.406   .     A
C475   H507    1.081   .     S
C476   N512    1.363   .     A
C476   C478    1.407   .     A
C476   H508    1.081   .     S
C477   C479    1.408   .     A
C477   H509    1.083   .     S
C478   H510    1.083   .     S
C478   C480    1.408   .     A
C480   C11     1.512   1_556 S
C481   O519    1.285   .     A
C481   O517    1.284   .     A
C481   C483    1.432   .     S
C482   O520    1.285   .     A
C482   O518    1.284   .     A
C482   C484    1.432   .     S
C483   C640    1.334   1_455 S
C483   H655    1.087   1_455 S
C484   C561    1.334   .     S
C484   H578    1.088   .     S
C485   H501    1.084   .     S
C485   C495    1.398   .     A
C485   C487    1.393   .     A
C486   C488    1.393   .     A
C486   H502    1.084   .     S
C486   C496    1.397   .     A
C487   C489    1.413   .     A
C487   S521    1.772   .     S
C488   C490    1.414   .     A
C488   S526    1.772   .     S
C489   C491    1.404   .     A
C490   C492    1.404   .     A
C491   H503    1.084   .     S
C491   C493    1.400   .     A
C492   H504    1.084   .     S
C492   C494    1.400   .     A
C493   C531    1.492   .     S
C493   C495    1.413   .     A
C494   C535    1.492   .     S
C494   C496    1.413   .     A
C495   C730    1.463   1_545 S
C496   C729    1.463   .     S
Cu497  O517    1.955   .     S
Cu497  O516    1.948   .     S
Cu497  O513    1.953   .     S
Cu497  Cu498   2.669   .     S
Cu497  N512    2.005   .     S
Cu497  O520    1.957   .     S
Cu498  O519    1.957   .     S
Cu498  O518    1.955   .     S
Cu498  O515    1.948   .     S
Cu498  N511    2.005   .     S
Cu498  O514    1.953   .     S
H499   C561    1.087   .     S
H500   C640    1.088   1_455 S
S521   O523    1.504   .     D
S521   O522    1.503   .     D
S521   O524    1.681   .     S
O524   H525    0.991   .     S
S526   O528    1.504   .     D
S526   O529    1.680   .     S
S526   O527    1.503   .     D
O529   H530    0.991   .     S
C531   O533    1.399   .     S
C531   O766    1.223   1_545 S
O532   C765    1.223   .     S
O533   H534    1.014   .     S
C535   O537    1.399   .     S
C535   O770    1.223   .     S
O536   C769    1.223   1_545 S
O537   H538    1.014   .     S
C539   O541    1.399   .     S
C539   O540    1.223   .     D
O541   H542    1.014   .     S
C543   O544    1.223   .     D
C543   O545    1.399   .     S
O545   H546    1.014   .     S
C547   C567    1.464   .     S
C547   O593    1.292   .     A
C547   O591    1.291   .     A
C548   O592    1.292   .     A
C548   C568    1.466   .     S
C548   O594    1.293   .     A
C549   C617    1.488   .     S
C549   C551    1.416   .     A
C549   C557    1.423   .     A
C550   C621    1.488   .     S
C550   C558    1.422   .     A
C550   C552    1.416   .     A
C551   H583    1.082   .     S
C551   N589    1.365   .     A
C552   H584    1.081   .     S
C552   N590    1.364   .     A
C553   N589    1.362   .     A
C553   C555    1.406   .     A
C553   H585    1.081   .     S
C554   N590    1.363   .     A
C554   C556    1.407   .     A
C554   H586    1.081   .     S
C555   C557    1.408   .     A
C555   H587    1.083   .     S
C556   H588    1.083   .     S
C556   C558    1.408   .     A
C558   C89     1.512   1_556 S
C559   O597    1.285   .     A
C559   O595    1.284   .     A
C559   C561    1.432   .     S
C560   O598    1.285   .     A
C560   O596    1.284   .     A
C560   C562    1.432   .     S
C562   C639    1.334   .     S
C562   H656    1.088   .     S
C563   H579    1.084   .     S
C563   C573    1.398   .     A
C563   C565    1.393   .     A
C564   C566    1.393   .     A
C564   H580    1.084   .     S
C564   C574    1.397   .     A
C565   C567    1.413   .     A
C565   S599    1.772   .     S
C566   C568    1.414   .     A
C566   S604    1.772   .     S
C567   C569    1.404   .     A
C568   C570    1.404   .     A
C569   H581    1.084   .     S
C569   C571    1.400   .     A
C570   H582    1.084   .     S
C570   C572    1.400   .     A
C571   C609    1.492   .     S
C571   C573    1.413   .     A
C572   C613    1.492   .     S
C572   C574    1.413   .     A
C573   C808    1.463   1_545 S
C574   C807    1.463   .     S
Cu575  O595    1.955   .     S
Cu575  O594    1.948   .     S
Cu575  O591    1.953   .     S
Cu575  Cu576   2.669   .     S
Cu575  N590    2.005   .     S
Cu575  O598    1.957   .     S
Cu576  O597    1.957   .     S
Cu576  O596    1.955   .     S
Cu576  O593    1.948   .     S
Cu576  N589    2.005   .     S
Cu576  O592    1.953   .     S
H577   C639    1.087   .     S
S599   O601    1.504   .     D
S599   O600    1.503   .     D
S599   O602    1.681   .     S
O602   H603    0.991   .     S
S604   O606    1.504   .     D
S604   O607    1.680   .     S
S604   O605    1.503   .     D
O607   H608    0.991   .     S
C609   O611    1.399   .     S
C609   O844    1.223   1_545 S
O610   C843    1.223   .     S
O611   H612    1.014   .     S
C613   O615    1.399   .     S
C613   O848    1.223   .     S
O614   C847    1.223   1_545 S
O615   H616    1.014   .     S
C617   O619    1.399   .     S
C617   O618    1.223   .     D
O619   H620    1.014   .     S
C621   O622    1.223   .     D
C621   O623    1.399   .     S
O623   H624    1.014   .     S
C625   C645    1.464   .     S
C625   O671    1.292   .     A
C625   O669    1.291   .     A
C626   O670    1.292   .     A
C626   C646    1.466   .     S
C626   O672    1.293   .     A
C627   C695    1.488   .     S
C627   C629    1.416   .     A
C627   C635    1.423   .     A
C628   C699    1.488   .     S
C628   C636    1.422   .     A
C628   C630    1.416   .     A
C629   H661    1.082   .     S
C629   N667    1.365   .     A
C630   H662    1.081   .     S
C630   N668    1.364   .     A
C631   N667    1.362   .     A
C631   C633    1.406   .     A
C631   H663    1.081   .     S
C632   N668    1.363   .     A
C632   C634    1.407   .     A
C632   H664    1.081   .     S
C633   C635    1.408   .     A
C633   H665    1.083   .     S
C634   H666    1.083   .     S
C634   C636    1.408   .     A
C636   C167    1.512   1_556 S
C637   O675    1.285   .     A
C637   O673    1.284   .     A
C637   C639    1.432   .     S
C638   O676    1.285   .     A
C638   O674    1.284   .     A
C638   C640    1.432   .     S
C640   C483    1.334   1_655 S
C640   H500    1.088   1_655 S
C641   H657    1.084   .     S
C641   C651    1.398   .     A
C641   C643    1.393   .     A
C642   C644    1.393   .     A
C642   H658    1.084   .     S
C642   C652    1.397   .     A
C643   C645    1.413   .     A
C643   S677    1.772   .     S
C644   C646    1.414   .     A
C644   S682    1.772   .     S
C645   C647    1.404   .     A
C646   C648    1.404   .     A
C647   H659    1.084   .     S
C647   C649    1.400   .     A
C648   H660    1.084   .     S
C648   C650    1.400   .     A
C649   C687    1.492   .     S
C649   C651    1.413   .     A
C650   C691    1.492   .     S
C650   C652    1.413   .     A
C651   C886    1.463   1_545 S
C652   C885    1.463   .     S
Cu653  O673    1.955   .     S
Cu653  O672    1.948   .     S
Cu653  O669    1.953   .     S
Cu653  Cu654   2.669   .     S
Cu653  N668    2.005   .     S
Cu653  O676    1.957   .     S
Cu654  O675    1.957   .     S
Cu654  O674    1.955   .     S
Cu654  O671    1.948   .     S
Cu654  N667    2.005   .     S
Cu654  O670    1.953   .     S
H655   C483    1.087   1_655 S
S677   O679    1.504   .     D
S677   O678    1.503   .     D
S677   O680    1.681   .     S
O680   H681    0.991   .     S
S682   O684    1.504   .     D
S682   O685    1.680   .     S
S682   O683    1.503   .     D
O685   H686    0.991   .     S
C687   O689    1.399   .     S
C687   O922    1.223   1_545 S
O688   C921    1.223   .     S
O689   H690    1.014   .     S
C691   O693    1.399   .     S
C691   O926    1.223   .     S
O692   C925    1.223   1_545 S
O693   H694    1.014   .     S
C695   O697    1.399   .     S
C695   O696    1.223   .     D
O697   H698    1.014   .     S
C699   O700    1.223   .     D
C699   O701    1.399   .     S
O701   H702    1.014   .     S
C703   C723    1.464   .     S
C703   O749    1.292   .     A
C703   O747    1.291   .     A
C704   O748    1.292   .     A
C704   C724    1.466   .     S
C704   O750    1.293   .     A
C705   C773    1.488   .     S
C705   C707    1.416   .     A
C705   C713    1.423   .     A
C706   C777    1.488   .     S
C706   C714    1.422   .     A
C706   C708    1.416   .     A
C707   H739    1.082   .     S
C707   N745    1.365   .     A
C708   H740    1.081   .     S
C708   N746    1.364   .     A
C709   N745    1.362   .     A
C709   C711    1.406   .     A
C709   H741    1.081   .     S
C710   N746    1.363   .     A
C710   C712    1.407   .     A
C710   H742    1.081   .     S
C711   C713    1.408   .     A
C711   H743    1.083   .     S
C712   H744    1.083   .     S
C712   C714    1.408   .     A
C714   C245    1.512   1_556 S
C715   O753    1.285   .     A
C715   O751    1.284   .     A
C715   C717    1.432   .     S
C716   O754    1.285   .     A
C716   O752    1.284   .     A
C716   C718    1.432   .     S
C717   C874    1.334   1_455 S
C717   H889    1.087   1_455 S
C718   C795    1.334   .     S
C718   H812    1.088   .     S
C719   H735    1.084   .     S
C719   C729    1.398   .     A
C719   C721    1.393   .     A
C720   C722    1.393   .     A
C720   H736    1.084   .     S
C720   C730    1.397   .     A
C721   C723    1.413   .     A
C721   S755    1.772   .     S
C722   C724    1.414   .     A
C722   S760    1.772   .     S
C723   C725    1.404   .     A
C724   C726    1.404   .     A
C725   H737    1.084   .     S
C725   C727    1.400   .     A
C726   H738    1.084   .     S
C726   C728    1.400   .     A
C727   C765    1.492   .     S
C727   C729    1.413   .     A
C728   C769    1.492   .     S
C728   C730    1.413   .     A
C730   C495    1.463   1_565 S
Cu731  O751    1.955   .     S
Cu731  O750    1.948   .     S
Cu731  O747    1.953   .     S
Cu731  Cu732   2.669   .     S
Cu731  N746    2.005   .     S
Cu731  O754    1.957   .     S
Cu732  O753    1.957   .     S
Cu732  O752    1.955   .     S
Cu732  O749    1.948   .     S
Cu732  N745    2.005   .     S
Cu732  O748    1.953   .     S
H733   C795    1.087   .     S
H734   C874    1.088   1_455 S
S755   O757    1.504   .     D
S755   O756    1.503   .     D
S755   O758    1.681   .     S
O758   H759    0.991   .     S
S760   O762    1.504   .     D
S760   O763    1.680   .     S
S760   O761    1.503   .     D
O763   H764    0.991   .     S
C765   O767    1.399   .     S
O766   C531    1.223   1_565 S
O767   H768    1.014   .     S
C769   O771    1.399   .     S
C769   O536    1.223   1_565 S
O771   H772    1.014   .     S
C773   O775    1.399   .     S
C773   O774    1.223   .     D
O775   H776    1.014   .     S
C777   O778    1.223   .     D
C777   O779    1.399   .     S
O779   H780    1.014   .     S
C781   C801    1.464   .     S
C781   O827    1.292   .     A
C781   O825    1.291   .     A
C782   O826    1.292   .     A
C782   C802    1.466   .     S
C782   O828    1.293   .     A
C783   C851    1.488   .     S
C783   C785    1.416   .     A
C783   C791    1.423   .     A
C784   C855    1.488   .     S
C784   C792    1.422   .     A
C784   C786    1.416   .     A
C785   H817    1.082   .     S
C785   N823    1.365   .     A
C786   H818    1.081   .     S
C786   N824    1.364   .     A
C787   N823    1.362   .     A
C787   C789    1.406   .     A
C787   H819    1.081   .     S
C788   N824    1.363   .     A
C788   C790    1.407   .     A
C788   H820    1.081   .     S
C789   C791    1.408   .     A
C789   H821    1.083   .     S
C790   H822    1.083   .     S
C790   C792    1.408   .     A
C792   C323    1.512   1_556 S
C793   O831    1.285   .     A
C793   O829    1.284   .     A
C793   C795    1.432   .     S
C794   O832    1.285   .     A
C794   O830    1.284   .     A
C794   C796    1.432   .     S
C796   C873    1.334   .     S
C796   H890    1.088   .     S
C797   H813    1.084   .     S
C797   C807    1.398   .     A
C797   C799    1.393   .     A
C798   C800    1.393   .     A
C798   H814    1.084   .     S
C798   C808    1.397   .     A
C799   C801    1.413   .     A
C799   S833    1.772   .     S
C800   C802    1.414   .     A
C800   S838    1.772   .     S
C801   C803    1.404   .     A
C802   C804    1.404   .     A
C803   H815    1.084   .     S
C803   C805    1.400   .     A
C804   H816    1.084   .     S
C804   C806    1.400   .     A
C805   C843    1.492   .     S
C805   C807    1.413   .     A
C806   C847    1.492   .     S
C806   C808    1.413   .     A
C808   C573    1.463   1_565 S
Cu809  O829    1.955   .     S
Cu809  O828    1.948   .     S
Cu809  O825    1.953   .     S
Cu809  Cu810   2.669   .     S
Cu809  N824    2.005   .     S
Cu809  O832    1.957   .     S
Cu810  O831    1.957   .     S
Cu810  O830    1.955   .     S
Cu810  O827    1.948   .     S
Cu810  N823    2.005   .     S
Cu810  O826    1.953   .     S
H811   C873    1.087   .     S
S833   O835    1.504   .     D
S833   O834    1.503   .     D
S833   O836    1.681   .     S
O836   H837    0.991   .     S
S838   O840    1.504   .     D
S838   O841    1.680   .     S
S838   O839    1.503   .     D
O841   H842    0.991   .     S
C843   O845    1.399   .     S
O844   C609    1.223   1_565 S
O845   H846    1.014   .     S
C847   O849    1.399   .     S
C847   O614    1.223   1_565 S
O849   H850    1.014   .     S
C851   O853    1.399   .     S
C851   O852    1.223   .     D
O853   H854    1.014   .     S
C855   O856    1.223   .     D
C855   O857    1.399   .     S
O857   H858    1.014   .     S
C859   C879    1.464   .     S
C859   O905    1.292   .     A
C859   O903    1.291   .     A
C860   O904    1.292   .     A
C860   C880    1.466   .     S
C860   O906    1.293   .     A
C861   C929    1.488   .     S
C861   C863    1.416   .     A
C861   C869    1.423   .     A
C862   C933    1.488   .     S
C862   C870    1.422   .     A
C862   C864    1.416   .     A
C863   H895    1.082   .     S
C863   N901    1.365   .     A
C864   H896    1.081   .     S
C864   N902    1.364   .     A
C865   N901    1.362   .     A
C865   C867    1.406   .     A
C865   H897    1.081   .     S
C866   N902    1.363   .     A
C866   C868    1.407   .     A
C866   H898    1.081   .     S
C867   C869    1.408   .     A
C867   H899    1.083   .     S
C868   H900    1.083   .     S
C868   C870    1.408   .     A
C870   C401    1.512   1_556 S
C871   O909    1.285   .     A
C871   O907    1.284   .     A
C871   C873    1.432   .     S
C872   O910    1.285   .     A
C872   O908    1.284   .     A
C872   C874    1.432   .     S
C874   C717    1.334   1_655 S
C874   H734    1.088   1_655 S
C875   H891    1.084   .     S
C875   C885    1.398   .     A
C875   C877    1.393   .     A
C876   C878    1.393   .     A
C876   H892    1.084   .     S
C876   C886    1.397   .     A
C877   C879    1.413   .     A
C877   S911    1.772   .     S
C878   C880    1.414   .     A
C878   S916    1.772   .     S
C879   C881    1.404   .     A
C880   C882    1.404   .     A
C881   H893    1.084   .     S
C881   C883    1.400   .     A
C882   H894    1.084   .     S
C882   C884    1.400   .     A
C883   C921    1.492   .     S
C883   C885    1.413   .     A
C884   C925    1.492   .     S
C884   C886    1.413   .     A
C886   C651    1.463   1_565 S
Cu887  O907    1.955   .     S
Cu887  O906    1.948   .     S
Cu887  O903    1.953   .     S
Cu887  Cu888   2.669   .     S
Cu887  N902    2.005   .     S
Cu887  O910    1.957   .     S
Cu888  O909    1.957   .     S
Cu888  O908    1.955   .     S
Cu888  O905    1.948   .     S
Cu888  N901    2.005   .     S
Cu888  O904    1.953   .     S
H889   C717    1.087   1_655 S
S911   O913    1.504   .     D
S911   O912    1.503   .     D
S911   O914    1.681   .     S
O914   H915    0.991   .     S
S916   O918    1.504   .     D
S916   O919    1.680   .     S
S916   O917    1.503   .     D
O919   H920    0.991   .     S
C921   O923    1.399   .     S
O922   C687    1.223   1_565 S
O923   H924    1.014   .     S
C925   O927    1.399   .     S
C925   O692    1.223   1_565 S
O927   H928    1.014   .     S
C929   O931    1.399   .     S
C929   O930    1.223   .     D
O931   H932    1.014   .     S
C933   O934    1.223   .     D
C933   O935    1.399   .     S
O935   H936    1.014   .     S
