data_str_m2_o2_o5_pcu_sym.66
_audit_creation_date              2020-01-03
_audit_creation_method            'Materials Studio'
_symmetry_space_group_name_H-M    'P1'
_symmetry_Int_Tables_number       1
_symmetry_cell_setting            triclinic
loop_
_symmetry_equiv_pos_as_xyz
  x,y,z
_cell_length_a                    30.2043
_cell_length_b                    28.0144
_cell_length_c                    27.1427
_cell_angle_alpha                 89.9310
_cell_angle_beta                  91.1415
_cell_angle_gamma                 89.9748
loop_
_atom_site_label
_atom_site_type_symbol
_atom_site_fract_x
_atom_site_fract_y
_atom_site_fract_z
_atom_site_U_iso_or_equiv
_atom_site_adp_type
_atom_site_occupancy
C1     C     0.16507   0.25015   0.16660   0.00000  Uiso   1.00
C2     C     0.27550   0.44582   0.20100   0.00000  Uiso   1.00
C3     C     0.24999   0.25002   0.07363   0.00000  Uiso   1.00
C4     C     0.25013   0.24999   0.25971   0.00000  Uiso   1.00
C5     C     0.24983   0.02598   0.16670   0.00000  Uiso   1.00
C6     C     0.24988   0.47198   0.16670   0.00000  Uiso   1.00
C7     C     0.25007   0.25003   0.02188   0.00000  Uiso   1.00
C8     C     0.25013   0.24998   0.31146   0.00000  Uiso   1.00
C9     C     0.04820   0.28521   0.19639   0.00000  Uiso   1.00
C10    C     0.45352   0.24644   0.21154   0.00000  Uiso   1.00
C11    C     0.45093   0.26028   0.12309   0.00000  Uiso   1.00
C12    C     0.33475   0.25010   0.16715   0.00000  Uiso   1.00
C13    C     0.04593   0.22116   0.13617   0.00000  Uiso   1.00
C14    C     0.09448   0.28337   0.19775   0.00000  Uiso   1.00
C15    C     0.40714   0.24461   0.21250   0.00000  Uiso   1.00
C16    C     0.40473   0.25910   0.12326   0.00000  Uiso   1.00
C17    C     0.09216   0.22096   0.13483   0.00000  Uiso   1.00
C18    C     0.11662   0.25102   0.16683   0.00000  Uiso   1.00
C19    C     0.38288   0.25088   0.16779   0.00000  Uiso   1.00
C20    C     0.02391   0.25351   0.16645   0.00000  Uiso   1.00
C21    C     0.47532   0.25373   0.16704   0.00000  Uiso   1.00
C22    C     0.29968   0.12754   0.27610   0.00000  Uiso   1.00
C23    C     0.25139   0.10272   0.21015   0.00000  Uiso   1.00
C24    C     0.14975   0.37578   0.10512   0.00000  Uiso   1.00
C25    C     0.20490   0.12261   0.05152   0.00000  Uiso   1.00
C26    C     0.35052   0.37542   0.22705   0.00000  Uiso   1.00
C27    C     0.13141   0.29247   0.27670   0.00000  Uiso   1.00
C28    C     0.39641   0.19629   0.28656   0.00000  Uiso   1.00
C29    C     0.37085   0.31330   0.06445   0.00000  Uiso   1.00
C30    C     0.12214   0.21952   0.05382   0.00000  Uiso   1.00
C31    C     0.22389   0.39538   0.13343   0.00000  Uiso   1.00
C32    C     0.24893   0.10279   0.12318   0.00000  Uiso   1.00
C33    C     0.27614   0.39532   0.19984   0.00000  Uiso   1.00
C34    C     0.25057   0.05212   0.21021   0.00000  Uiso   1.00
C35    C     0.22438   0.44589   0.13233   0.00000  Uiso   1.00
C36    C     0.24941   0.05219   0.12317   0.00000  Uiso   1.00
Cu37   Cu    0.25000   0.29822   0.16667   0.00000  Uiso   1.00
Cu38   Cu    0.25000   0.20179   0.16667   0.00000  Uiso   1.00
F39    F     0.02687   0.31763   0.22462   0.00000  Uiso   1.00
F40    F     0.47771   0.24146   0.25394   0.00000  Uiso   1.00
F41    F     0.47204   0.26889   0.08022   0.00000  Uiso   1.00
F42    F     0.02243   0.19047   0.10703   0.00000  Uiso   1.00
H43    H     0.25093   0.03332   0.24513   0.00000  Uiso   1.00
H44    H     0.13911   0.41229   0.09410   0.00000  Uiso   1.00
H45    H     0.14076   0.36936   0.14405   0.00000  Uiso   1.00
H46    H     0.13179   0.34951   0.08154   0.00000  Uiso   1.00
H47    H     0.27288   0.11395   0.05398   0.00000  Uiso   1.00
H48    H     0.19835   0.08591   0.03771   0.00000  Uiso   1.00
H49    H     0.20448   0.14767   0.01986   0.00000  Uiso   1.00
H50    H     0.17836   0.13308   0.07700   0.00000  Uiso   1.00
H51    H     0.29487   0.37629   0.27012   0.00000  Uiso   1.00
H52    H     0.36132   0.41214   0.23694   0.00000  Uiso   1.00
H53    H     0.35908   0.36807   0.18817   0.00000  Uiso   1.00
H54    H     0.20395   0.46455   0.10531   0.00000  Uiso   1.00
H55    H     0.36874   0.34968   0.25110   0.00000  Uiso   1.00
H56    H     0.10457   0.34732   0.23461   0.00000  Uiso   1.00
H57    H     0.14998   0.25880   0.27077   0.00000  Uiso   1.00
H58    H     0.15310   0.31731   0.29798   0.00000  Uiso   1.00
H59    H     0.10146   0.28484   0.29845   0.00000  Uiso   1.00
H60    H     0.35202   0.24696   0.25860   0.00000  Uiso   1.00
H61    H     0.37139   0.19043   0.31535   0.00000  Uiso   1.00
H62    H     0.42881   0.20047   0.30588   0.00000  Uiso   1.00
H63    H     0.39724   0.16446   0.26221   0.00000  Uiso   1.00
H64    H     0.39343   0.24543   0.04956   0.00000  Uiso   1.00
H65    H     0.24959   0.03343   0.08828   0.00000  Uiso   1.00
H66    H     0.40210   0.33240   0.05627   0.00000  Uiso   1.00
H67    H     0.35354   0.33220   0.09438   0.00000  Uiso   1.00
H68    H     0.34912   0.31383   0.03095   0.00000  Uiso   1.00
H69    H     0.09877   0.16081   0.09161   0.00000  Uiso   1.00
H70    H     0.13873   0.19615   0.02692   0.00000  Uiso   1.00
H71    H     0.14397   0.25062   0.06163   0.00000  Uiso   1.00
H72    H     0.09041   0.23211   0.03691   0.00000  Uiso   1.00
H73    H     0.29597   0.46443   0.22796   0.00000  Uiso   1.00
H74    H     0.23362   0.11018   0.28223   0.00000  Uiso   1.00
H75    H     0.31276   0.09133   0.28475   0.00000  Uiso   1.00
H76    H     0.30018   0.14919   0.31031   0.00000  Uiso   1.00
H77    H     0.32116   0.14510   0.24878   0.00000  Uiso   1.00
H78    H     0.20601   0.37607   0.06300   0.00000  Uiso   1.00
N79    N     0.25000   0.12935   0.16667   0.00000  Uiso   1.00
N80    N     0.11378   0.19323   0.09864   0.00000  Uiso   1.00
N81    N     0.25000   0.37066   0.16667   0.00000  Uiso   1.00
N82    N     0.25480   0.12462   0.25690   0.00000  Uiso   1.00
N83    N     0.19694   0.37008   0.09892   0.00000  Uiso   1.00
N84    N     0.24762   0.12488   0.07637   0.00000  Uiso   1.00
N85    N     0.30341   0.36999   0.23410   0.00000  Uiso   1.00
N86    N     0.11875   0.31414   0.23014   0.00000  Uiso   1.00
N87    N     0.38528   0.23880   0.25845   0.00000  Uiso   1.00
N88    N     0.38015   0.26437   0.07825   0.00000  Uiso   1.00
O89    O     0.18573   0.29072   0.16667   0.00000  Uiso   1.00
O90    O     0.31427   0.20929   0.16666   0.00000  Uiso   1.00
O91    O     0.31427   0.29072   0.16666   0.00000  Uiso   1.00
O92    O     0.18573   0.20929   0.16667   0.00000  Uiso   1.00
O93    O     0.25000   0.29071   0.09613   0.00000  Uiso   1.00
O94    O     0.25000   0.20929   0.23720   0.00000  Uiso   1.00
O95    O     0.25000   0.29071   0.23720   0.00000  Uiso   1.00
O96    O     0.25000   0.20929   0.09613   0.00000  Uiso   1.00
C97    C     0.66507   0.25015   0.16660   0.00000  Uiso   1.00
C98    C     0.77550   0.44582   0.20100   0.00000  Uiso   1.00
C99    C     0.74999   0.25002   0.07363   0.00000  Uiso   1.00
C100   C     0.75013   0.24999   0.25971   0.00000  Uiso   1.00
C101   C     0.74983   0.02598   0.16670   0.00000  Uiso   1.00
C102   C     0.74988   0.47198   0.16670   0.00000  Uiso   1.00
C103   C     0.75007   0.25003   0.02188   0.00000  Uiso   1.00
C104   C     0.75013   0.24998   0.31146   0.00000  Uiso   1.00
C105   C     0.54820   0.28521   0.19639   0.00000  Uiso   1.00
C106   C     0.95352   0.24644   0.21154   0.00000  Uiso   1.00
C107   C     0.95093   0.26028   0.12309   0.00000  Uiso   1.00
C108   C     0.83475   0.25010   0.16715   0.00000  Uiso   1.00
C109   C     0.54593   0.22116   0.13617   0.00000  Uiso   1.00
C110   C     0.59448   0.28337   0.19775   0.00000  Uiso   1.00
C111   C     0.90714   0.24461   0.21250   0.00000  Uiso   1.00
C112   C     0.90473   0.25910   0.12326   0.00000  Uiso   1.00
C113   C     0.59216   0.22096   0.13483   0.00000  Uiso   1.00
C114   C     0.61662   0.25102   0.16683   0.00000  Uiso   1.00
C115   C     0.88288   0.25088   0.16779   0.00000  Uiso   1.00
C116   C     0.52391   0.25351   0.16645   0.00000  Uiso   1.00
C117   C     0.97532   0.25373   0.16704   0.00000  Uiso   1.00
C118   C     0.79968   0.12754   0.27610   0.00000  Uiso   1.00
C119   C     0.75139   0.10272   0.21015   0.00000  Uiso   1.00
C120   C     0.64975   0.37578   0.10512   0.00000  Uiso   1.00
C121   C     0.70490   0.12261   0.05152   0.00000  Uiso   1.00
C122   C     0.85052   0.37542   0.22705   0.00000  Uiso   1.00
C123   C     0.63141   0.29247   0.27670   0.00000  Uiso   1.00
C124   C     0.89641   0.19629   0.28656   0.00000  Uiso   1.00
C125   C     0.87085   0.31330   0.06445   0.00000  Uiso   1.00
C126   C     0.62214   0.21952   0.05382   0.00000  Uiso   1.00
C127   C     0.72389   0.39538   0.13343   0.00000  Uiso   1.00
C128   C     0.74893   0.10279   0.12318   0.00000  Uiso   1.00
C129   C     0.77614   0.39532   0.19984   0.00000  Uiso   1.00
C130   C     0.75057   0.05212   0.21021   0.00000  Uiso   1.00
C131   C     0.72438   0.44589   0.13233   0.00000  Uiso   1.00
C132   C     0.74941   0.05219   0.12317   0.00000  Uiso   1.00
Cu133  Cu    0.75000   0.29822   0.16667   0.00000  Uiso   1.00
Cu134  Cu    0.75000   0.20179   0.16667   0.00000  Uiso   1.00
F135   F     0.52687   0.31763   0.22462   0.00000  Uiso   1.00
F136   F     0.97771   0.24146   0.25394   0.00000  Uiso   1.00
F137   F     0.97204   0.26889   0.08022   0.00000  Uiso   1.00
F138   F     0.52243   0.19047   0.10703   0.00000  Uiso   1.00
H139   H     0.75093   0.03332   0.24513   0.00000  Uiso   1.00
H140   H     0.63911   0.41229   0.09410   0.00000  Uiso   1.00
H141   H     0.64076   0.36936   0.14405   0.00000  Uiso   1.00
H142   H     0.63179   0.34951   0.08154   0.00000  Uiso   1.00
H143   H     0.77288   0.11395   0.05398   0.00000  Uiso   1.00
H144   H     0.69835   0.08591   0.03771   0.00000  Uiso   1.00
H145   H     0.70448   0.14767   0.01986   0.00000  Uiso   1.00
H146   H     0.67836   0.13308   0.07700   0.00000  Uiso   1.00
H147   H     0.79487   0.37629   0.27012   0.00000  Uiso   1.00
H148   H     0.86132   0.41214   0.23694   0.00000  Uiso   1.00
H149   H     0.85908   0.36807   0.18817   0.00000  Uiso   1.00
H150   H     0.70395   0.46455   0.10531   0.00000  Uiso   1.00
H151   H     0.86874   0.34968   0.25110   0.00000  Uiso   1.00
H152   H     0.60457   0.34732   0.23461   0.00000  Uiso   1.00
H153   H     0.64998   0.25880   0.27077   0.00000  Uiso   1.00
H154   H     0.65310   0.31731   0.29798   0.00000  Uiso   1.00
H155   H     0.60146   0.28484   0.29845   0.00000  Uiso   1.00
H156   H     0.85202   0.24696   0.25860   0.00000  Uiso   1.00
H157   H     0.87139   0.19043   0.31535   0.00000  Uiso   1.00
H158   H     0.92881   0.20047   0.30588   0.00000  Uiso   1.00
H159   H     0.89724   0.16446   0.26221   0.00000  Uiso   1.00
H160   H     0.89343   0.24543   0.04956   0.00000  Uiso   1.00
H161   H     0.74959   0.03343   0.08828   0.00000  Uiso   1.00
H162   H     0.90210   0.33240   0.05627   0.00000  Uiso   1.00
H163   H     0.85354   0.33220   0.09438   0.00000  Uiso   1.00
H164   H     0.84912   0.31383   0.03095   0.00000  Uiso   1.00
H165   H     0.59877   0.16081   0.09161   0.00000  Uiso   1.00
H166   H     0.63873   0.19615   0.02692   0.00000  Uiso   1.00
H167   H     0.64397   0.25062   0.06163   0.00000  Uiso   1.00
H168   H     0.59041   0.23211   0.03691   0.00000  Uiso   1.00
H169   H     0.79597   0.46443   0.22796   0.00000  Uiso   1.00
H170   H     0.73362   0.11018   0.28223   0.00000  Uiso   1.00
H171   H     0.81276   0.09133   0.28475   0.00000  Uiso   1.00
H172   H     0.80018   0.14919   0.31031   0.00000  Uiso   1.00
H173   H     0.82116   0.14510   0.24878   0.00000  Uiso   1.00
H174   H     0.70601   0.37607   0.06300   0.00000  Uiso   1.00
N175   N     0.75000   0.12935   0.16667   0.00000  Uiso   1.00
N176   N     0.61378   0.19323   0.09864   0.00000  Uiso   1.00
N177   N     0.75000   0.37066   0.16667   0.00000  Uiso   1.00
N178   N     0.75480   0.12462   0.25690   0.00000  Uiso   1.00
N179   N     0.69694   0.37008   0.09892   0.00000  Uiso   1.00
N180   N     0.74762   0.12488   0.07637   0.00000  Uiso   1.00
N181   N     0.80341   0.36999   0.23410   0.00000  Uiso   1.00
N182   N     0.61875   0.31414   0.23014   0.00000  Uiso   1.00
N183   N     0.88528   0.23880   0.25845   0.00000  Uiso   1.00
N184   N     0.88015   0.26437   0.07825   0.00000  Uiso   1.00
O185   O     0.68573   0.29072   0.16667   0.00000  Uiso   1.00
O186   O     0.81427   0.20929   0.16666   0.00000  Uiso   1.00
O187   O     0.81427   0.29072   0.16666   0.00000  Uiso   1.00
O188   O     0.68573   0.20929   0.16667   0.00000  Uiso   1.00
O189   O     0.75000   0.29071   0.09613   0.00000  Uiso   1.00
O190   O     0.75000   0.20929   0.23720   0.00000  Uiso   1.00
O191   O     0.75000   0.29071   0.23720   0.00000  Uiso   1.00
O192   O     0.75000   0.20929   0.09613   0.00000  Uiso   1.00
C193   C     0.16507   0.75015   0.16660   0.00000  Uiso   1.00
C194   C     0.27550   0.94582   0.20100   0.00000  Uiso   1.00
C195   C     0.24999   0.75002   0.07363   0.00000  Uiso   1.00
C196   C     0.25013   0.74999   0.25971   0.00000  Uiso   1.00
C197   C     0.24983   0.52598   0.16670   0.00000  Uiso   1.00
C198   C     0.24988   0.97198   0.16670   0.00000  Uiso   1.00
C199   C     0.25007   0.75003   0.02188   0.00000  Uiso   1.00
C200   C     0.25013   0.74998   0.31146   0.00000  Uiso   1.00
C201   C     0.04820   0.78521   0.19639   0.00000  Uiso   1.00
C202   C     0.45352   0.74644   0.21154   0.00000  Uiso   1.00
C203   C     0.45093   0.76028   0.12309   0.00000  Uiso   1.00
C204   C     0.33475   0.75010   0.16715   0.00000  Uiso   1.00
C205   C     0.04593   0.72116   0.13617   0.00000  Uiso   1.00
C206   C     0.09448   0.78337   0.19775   0.00000  Uiso   1.00
C207   C     0.40714   0.74461   0.21250   0.00000  Uiso   1.00
C208   C     0.40473   0.75910   0.12326   0.00000  Uiso   1.00
C209   C     0.09216   0.72096   0.13483   0.00000  Uiso   1.00
C210   C     0.11662   0.75102   0.16683   0.00000  Uiso   1.00
C211   C     0.38288   0.75088   0.16779   0.00000  Uiso   1.00
C212   C     0.02391   0.75351   0.16645   0.00000  Uiso   1.00
C213   C     0.47532   0.75373   0.16704   0.00000  Uiso   1.00
C214   C     0.29968   0.62754   0.27610   0.00000  Uiso   1.00
C215   C     0.25139   0.60272   0.21015   0.00000  Uiso   1.00
C216   C     0.14975   0.87578   0.10512   0.00000  Uiso   1.00
C217   C     0.20490   0.62261   0.05152   0.00000  Uiso   1.00
C218   C     0.35052   0.87542   0.22705   0.00000  Uiso   1.00
C219   C     0.13141   0.79247   0.27670   0.00000  Uiso   1.00
C220   C     0.39641   0.69629   0.28656   0.00000  Uiso   1.00
C221   C     0.37085   0.81330   0.06445   0.00000  Uiso   1.00
C222   C     0.12214   0.71952   0.05382   0.00000  Uiso   1.00
C223   C     0.22389   0.89538   0.13343   0.00000  Uiso   1.00
C224   C     0.24893   0.60279   0.12318   0.00000  Uiso   1.00
C225   C     0.27614   0.89532   0.19984   0.00000  Uiso   1.00
C226   C     0.25057   0.55212   0.21021   0.00000  Uiso   1.00
C227   C     0.22438   0.94589   0.13233   0.00000  Uiso   1.00
C228   C     0.24941   0.55219   0.12317   0.00000  Uiso   1.00
Cu229  Cu    0.25000   0.79822   0.16667   0.00000  Uiso   1.00
Cu230  Cu    0.25000   0.70179   0.16667   0.00000  Uiso   1.00
F231   F     0.02687   0.81763   0.22462   0.00000  Uiso   1.00
F232   F     0.47771   0.74146   0.25394   0.00000  Uiso   1.00
F233   F     0.47204   0.76889   0.08022   0.00000  Uiso   1.00
F234   F     0.02243   0.69047   0.10703   0.00000  Uiso   1.00
H235   H     0.25093   0.53332   0.24513   0.00000  Uiso   1.00
H236   H     0.13911   0.91229   0.09410   0.00000  Uiso   1.00
H237   H     0.14076   0.86936   0.14405   0.00000  Uiso   1.00
H238   H     0.13179   0.84951   0.08154   0.00000  Uiso   1.00
H239   H     0.27288   0.61395   0.05398   0.00000  Uiso   1.00
H240   H     0.19835   0.58591   0.03771   0.00000  Uiso   1.00
H241   H     0.20448   0.64767   0.01986   0.00000  Uiso   1.00
H242   H     0.17836   0.63308   0.07700   0.00000  Uiso   1.00
H243   H     0.29487   0.87629   0.27012   0.00000  Uiso   1.00
H244   H     0.36132   0.91214   0.23694   0.00000  Uiso   1.00
H245   H     0.35908   0.86807   0.18817   0.00000  Uiso   1.00
H246   H     0.20395   0.96455   0.10531   0.00000  Uiso   1.00
H247   H     0.36874   0.84968   0.25110   0.00000  Uiso   1.00
H248   H     0.10457   0.84732   0.23461   0.00000  Uiso   1.00
H249   H     0.14998   0.75880   0.27077   0.00000  Uiso   1.00
H250   H     0.15310   0.81731   0.29798   0.00000  Uiso   1.00
H251   H     0.10146   0.78484   0.29845   0.00000  Uiso   1.00
H252   H     0.35202   0.74696   0.25860   0.00000  Uiso   1.00
H253   H     0.37139   0.69043   0.31535   0.00000  Uiso   1.00
H254   H     0.42881   0.70047   0.30588   0.00000  Uiso   1.00
H255   H     0.39724   0.66446   0.26221   0.00000  Uiso   1.00
H256   H     0.39343   0.74543   0.04956   0.00000  Uiso   1.00
H257   H     0.24959   0.53343   0.08828   0.00000  Uiso   1.00
H258   H     0.40210   0.83240   0.05627   0.00000  Uiso   1.00
H259   H     0.35354   0.83220   0.09438   0.00000  Uiso   1.00
H260   H     0.34912   0.81383   0.03095   0.00000  Uiso   1.00
H261   H     0.09877   0.66081   0.09161   0.00000  Uiso   1.00
H262   H     0.13873   0.69615   0.02692   0.00000  Uiso   1.00
H263   H     0.14397   0.75062   0.06163   0.00000  Uiso   1.00
H264   H     0.09041   0.73211   0.03691   0.00000  Uiso   1.00
H265   H     0.29597   0.96443   0.22796   0.00000  Uiso   1.00
H266   H     0.23362   0.61018   0.28223   0.00000  Uiso   1.00
H267   H     0.31276   0.59133   0.28475   0.00000  Uiso   1.00
H268   H     0.30018   0.64919   0.31031   0.00000  Uiso   1.00
H269   H     0.32116   0.64510   0.24878   0.00000  Uiso   1.00
H270   H     0.20601   0.87607   0.06300   0.00000  Uiso   1.00
N271   N     0.25000   0.62935   0.16667   0.00000  Uiso   1.00
N272   N     0.11378   0.69323   0.09864   0.00000  Uiso   1.00
N273   N     0.25000   0.87066   0.16667   0.00000  Uiso   1.00
N274   N     0.25480   0.62462   0.25690   0.00000  Uiso   1.00
N275   N     0.19694   0.87008   0.09892   0.00000  Uiso   1.00
N276   N     0.24762   0.62488   0.07637   0.00000  Uiso   1.00
N277   N     0.30341   0.86999   0.23410   0.00000  Uiso   1.00
N278   N     0.11875   0.81414   0.23014   0.00000  Uiso   1.00
N279   N     0.38528   0.73880   0.25845   0.00000  Uiso   1.00
N280   N     0.38015   0.76437   0.07825   0.00000  Uiso   1.00
O281   O     0.18573   0.79072   0.16667   0.00000  Uiso   1.00
O282   O     0.31427   0.70929   0.16666   0.00000  Uiso   1.00
O283   O     0.31427   0.79072   0.16666   0.00000  Uiso   1.00
O284   O     0.18573   0.70929   0.16667   0.00000  Uiso   1.00
O285   O     0.25000   0.79071   0.09613   0.00000  Uiso   1.00
O286   O     0.25000   0.70929   0.23720   0.00000  Uiso   1.00
O287   O     0.25000   0.79071   0.23720   0.00000  Uiso   1.00
O288   O     0.25000   0.70929   0.09613   0.00000  Uiso   1.00
C289   C     0.66507   0.75015   0.16660   0.00000  Uiso   1.00
C290   C     0.77550   0.94582   0.20100   0.00000  Uiso   1.00
C291   C     0.74999   0.75002   0.07363   0.00000  Uiso   1.00
C292   C     0.75013   0.74999   0.25971   0.00000  Uiso   1.00
C293   C     0.74983   0.52598   0.16670   0.00000  Uiso   1.00
C294   C     0.74988   0.97198   0.16670   0.00000  Uiso   1.00
C295   C     0.75007   0.75003   0.02188   0.00000  Uiso   1.00
C296   C     0.75013   0.74998   0.31146   0.00000  Uiso   1.00
C297   C     0.54820   0.78521   0.19639   0.00000  Uiso   1.00
C298   C     0.95352   0.74644   0.21154   0.00000  Uiso   1.00
C299   C     0.95093   0.76028   0.12309   0.00000  Uiso   1.00
C300   C     0.83475   0.75010   0.16715   0.00000  Uiso   1.00
C301   C     0.54593   0.72116   0.13617   0.00000  Uiso   1.00
C302   C     0.59448   0.78337   0.19775   0.00000  Uiso   1.00
C303   C     0.90714   0.74461   0.21250   0.00000  Uiso   1.00
C304   C     0.90473   0.75910   0.12326   0.00000  Uiso   1.00
C305   C     0.59216   0.72096   0.13483   0.00000  Uiso   1.00
C306   C     0.61662   0.75102   0.16683   0.00000  Uiso   1.00
C307   C     0.88288   0.75088   0.16779   0.00000  Uiso   1.00
C308   C     0.52391   0.75351   0.16645   0.00000  Uiso   1.00
C309   C     0.97532   0.75373   0.16704   0.00000  Uiso   1.00
C310   C     0.79968   0.62754   0.27610   0.00000  Uiso   1.00
C311   C     0.75139   0.60272   0.21015   0.00000  Uiso   1.00
C312   C     0.64975   0.87578   0.10512   0.00000  Uiso   1.00
C313   C     0.70490   0.62261   0.05152   0.00000  Uiso   1.00
C314   C     0.85052   0.87542   0.22705   0.00000  Uiso   1.00
C315   C     0.63141   0.79247   0.27670   0.00000  Uiso   1.00
C316   C     0.89641   0.69629   0.28656   0.00000  Uiso   1.00
C317   C     0.87085   0.81330   0.06445   0.00000  Uiso   1.00
C318   C     0.62214   0.71952   0.05382   0.00000  Uiso   1.00
C319   C     0.72389   0.89538   0.13343   0.00000  Uiso   1.00
C320   C     0.74893   0.60279   0.12318   0.00000  Uiso   1.00
C321   C     0.77614   0.89532   0.19984   0.00000  Uiso   1.00
C322   C     0.75057   0.55212   0.21021   0.00000  Uiso   1.00
C323   C     0.72438   0.94589   0.13233   0.00000  Uiso   1.00
C324   C     0.74941   0.55219   0.12317   0.00000  Uiso   1.00
Cu325  Cu    0.75000   0.79822   0.16667   0.00000  Uiso   1.00
Cu326  Cu    0.75000   0.70179   0.16667   0.00000  Uiso   1.00
F327   F     0.52687   0.81763   0.22462   0.00000  Uiso   1.00
F328   F     0.97771   0.74146   0.25394   0.00000  Uiso   1.00
F329   F     0.97204   0.76889   0.08022   0.00000  Uiso   1.00
F330   F     0.52243   0.69047   0.10703   0.00000  Uiso   1.00
H331   H     0.75093   0.53332   0.24513   0.00000  Uiso   1.00
H332   H     0.63911   0.91229   0.09410   0.00000  Uiso   1.00
H333   H     0.64076   0.86936   0.14405   0.00000  Uiso   1.00
H334   H     0.63179   0.84951   0.08154   0.00000  Uiso   1.00
H335   H     0.77288   0.61395   0.05398   0.00000  Uiso   1.00
H336   H     0.69835   0.58591   0.03771   0.00000  Uiso   1.00
H337   H     0.70448   0.64767   0.01986   0.00000  Uiso   1.00
H338   H     0.67836   0.63308   0.07700   0.00000  Uiso   1.00
H339   H     0.79487   0.87629   0.27012   0.00000  Uiso   1.00
H340   H     0.86132   0.91214   0.23694   0.00000  Uiso   1.00
H341   H     0.85908   0.86807   0.18817   0.00000  Uiso   1.00
H342   H     0.70395   0.96455   0.10531   0.00000  Uiso   1.00
H343   H     0.86874   0.84968   0.25110   0.00000  Uiso   1.00
H344   H     0.60457   0.84732   0.23461   0.00000  Uiso   1.00
H345   H     0.64998   0.75880   0.27077   0.00000  Uiso   1.00
H346   H     0.65310   0.81731   0.29798   0.00000  Uiso   1.00
H347   H     0.60146   0.78484   0.29845   0.00000  Uiso   1.00
H348   H     0.85202   0.74696   0.25860   0.00000  Uiso   1.00
H349   H     0.87139   0.69043   0.31535   0.00000  Uiso   1.00
H350   H     0.92881   0.70047   0.30588   0.00000  Uiso   1.00
H351   H     0.89724   0.66446   0.26221   0.00000  Uiso   1.00
H352   H     0.89343   0.74543   0.04956   0.00000  Uiso   1.00
H353   H     0.74959   0.53343   0.08828   0.00000  Uiso   1.00
H354   H     0.90210   0.83240   0.05627   0.00000  Uiso   1.00
H355   H     0.85354   0.83220   0.09438   0.00000  Uiso   1.00
H356   H     0.84912   0.81383   0.03095   0.00000  Uiso   1.00
H357   H     0.59877   0.66081   0.09161   0.00000  Uiso   1.00
H358   H     0.63873   0.69615   0.02692   0.00000  Uiso   1.00
H359   H     0.64397   0.75062   0.06163   0.00000  Uiso   1.00
H360   H     0.59041   0.73211   0.03691   0.00000  Uiso   1.00
H361   H     0.79597   0.96443   0.22796   0.00000  Uiso   1.00
H362   H     0.73362   0.61018   0.28223   0.00000  Uiso   1.00
H363   H     0.81276   0.59133   0.28475   0.00000  Uiso   1.00
H364   H     0.80018   0.64919   0.31031   0.00000  Uiso   1.00
H365   H     0.82116   0.64510   0.24878   0.00000  Uiso   1.00
H366   H     0.70601   0.87607   0.06300   0.00000  Uiso   1.00
N367   N     0.75000   0.62935   0.16667   0.00000  Uiso   1.00
N368   N     0.61378   0.69323   0.09864   0.00000  Uiso   1.00
N369   N     0.75000   0.87066   0.16667   0.00000  Uiso   1.00
N370   N     0.75480   0.62462   0.25690   0.00000  Uiso   1.00
N371   N     0.69694   0.87008   0.09892   0.00000  Uiso   1.00
N372   N     0.74762   0.62488   0.07637   0.00000  Uiso   1.00
N373   N     0.80341   0.86999   0.23410   0.00000  Uiso   1.00
N374   N     0.61875   0.81414   0.23014   0.00000  Uiso   1.00
N375   N     0.88528   0.73880   0.25845   0.00000  Uiso   1.00
N376   N     0.88015   0.76437   0.07825   0.00000  Uiso   1.00
O377   O     0.68573   0.79072   0.16667   0.00000  Uiso   1.00
O378   O     0.81427   0.70929   0.16666   0.00000  Uiso   1.00
O379   O     0.81427   0.79072   0.16666   0.00000  Uiso   1.00
O380   O     0.68573   0.70929   0.16667   0.00000  Uiso   1.00
O381   O     0.75000   0.79071   0.09613   0.00000  Uiso   1.00
O382   O     0.75000   0.70929   0.23720   0.00000  Uiso   1.00
O383   O     0.75000   0.79071   0.23720   0.00000  Uiso   1.00
O384   O     0.75000   0.70929   0.09613   0.00000  Uiso   1.00
C385   C     0.16507   0.25015   0.49994   0.00000  Uiso   1.00
C386   C     0.27550   0.44582   0.53434   0.00000  Uiso   1.00
C387   C     0.24999   0.25002   0.40696   0.00000  Uiso   1.00
C388   C     0.25013   0.24999   0.59304   0.00000  Uiso   1.00
C389   C     0.24983   0.02598   0.50003   0.00000  Uiso   1.00
C390   C     0.24988   0.47198   0.50004   0.00000  Uiso   1.00
C391   C     0.25007   0.25003   0.35522   0.00000  Uiso   1.00
C392   C     0.25013   0.24998   0.64479   0.00000  Uiso   1.00
C393   C     0.04820   0.28521   0.52972   0.00000  Uiso   1.00
C394   C     0.45352   0.24644   0.54487   0.00000  Uiso   1.00
C395   C     0.45093   0.26028   0.45643   0.00000  Uiso   1.00
C396   C     0.33475   0.25010   0.50048   0.00000  Uiso   1.00
C397   C     0.04593   0.22116   0.46950   0.00000  Uiso   1.00
C398   C     0.09448   0.28337   0.53108   0.00000  Uiso   1.00
C399   C     0.40714   0.24461   0.54583   0.00000  Uiso   1.00
C400   C     0.40473   0.25910   0.45659   0.00000  Uiso   1.00
C401   C     0.09216   0.22096   0.46817   0.00000  Uiso   1.00
C402   C     0.11662   0.25102   0.50017   0.00000  Uiso   1.00
C403   C     0.38288   0.25088   0.50113   0.00000  Uiso   1.00
C404   C     0.02391   0.25351   0.49979   0.00000  Uiso   1.00
C405   C     0.47532   0.25373   0.50037   0.00000  Uiso   1.00
C406   C     0.29968   0.12754   0.60944   0.00000  Uiso   1.00
C407   C     0.25139   0.10272   0.54348   0.00000  Uiso   1.00
C408   C     0.14975   0.37578   0.43846   0.00000  Uiso   1.00
C409   C     0.20490   0.12261   0.38486   0.00000  Uiso   1.00
C410   C     0.35052   0.37542   0.56039   0.00000  Uiso   1.00
C411   C     0.13141   0.29247   0.61004   0.00000  Uiso   1.00
C412   C     0.39641   0.19629   0.61989   0.00000  Uiso   1.00
C413   C     0.37085   0.31330   0.39778   0.00000  Uiso   1.00
C414   C     0.12214   0.21952   0.38715   0.00000  Uiso   1.00
C415   C     0.22389   0.39538   0.46676   0.00000  Uiso   1.00
C416   C     0.24893   0.10279   0.45652   0.00000  Uiso   1.00
C417   C     0.27614   0.39532   0.53317   0.00000  Uiso   1.00
C418   C     0.25057   0.05212   0.54355   0.00000  Uiso   1.00
C419   C     0.22438   0.44589   0.46566   0.00000  Uiso   1.00
C420   C     0.24941   0.05219   0.45650   0.00000  Uiso   1.00
Cu421  Cu    0.25000   0.29822   0.50000   0.00000  Uiso   1.00
Cu422  Cu    0.25000   0.20179   0.50000   0.00000  Uiso   1.00
F423   F     0.02687   0.31763   0.55795   0.00000  Uiso   1.00
F424   F     0.47771   0.24146   0.58728   0.00000  Uiso   1.00
F425   F     0.47204   0.26889   0.41355   0.00000  Uiso   1.00
F426   F     0.02243   0.19047   0.44037   0.00000  Uiso   1.00
H427   H     0.25093   0.03332   0.57847   0.00000  Uiso   1.00
H428   H     0.13911   0.41229   0.42743   0.00000  Uiso   1.00
H429   H     0.14076   0.36936   0.47738   0.00000  Uiso   1.00
H430   H     0.13179   0.34951   0.41488   0.00000  Uiso   1.00
H431   H     0.27288   0.11395   0.38731   0.00000  Uiso   1.00
H432   H     0.19835   0.08591   0.37105   0.00000  Uiso   1.00
H433   H     0.20448   0.14767   0.35319   0.00000  Uiso   1.00
H434   H     0.17836   0.13308   0.41033   0.00000  Uiso   1.00
H435   H     0.29487   0.37629   0.60346   0.00000  Uiso   1.00
H436   H     0.36132   0.41214   0.57028   0.00000  Uiso   1.00
H437   H     0.35908   0.36807   0.52150   0.00000  Uiso   1.00
H438   H     0.20395   0.46455   0.43865   0.00000  Uiso   1.00
H439   H     0.36874   0.34968   0.58443   0.00000  Uiso   1.00
H440   H     0.10457   0.34732   0.56794   0.00000  Uiso   1.00
H441   H     0.14998   0.25880   0.60410   0.00000  Uiso   1.00
H442   H     0.15310   0.31731   0.63131   0.00000  Uiso   1.00
H443   H     0.10146   0.28484   0.63178   0.00000  Uiso   1.00
H444   H     0.35202   0.24696   0.59193   0.00000  Uiso   1.00
H445   H     0.37139   0.19043   0.64868   0.00000  Uiso   1.00
H446   H     0.42881   0.20047   0.63922   0.00000  Uiso   1.00
H447   H     0.39724   0.16446   0.59554   0.00000  Uiso   1.00
H448   H     0.39343   0.24543   0.38290   0.00000  Uiso   1.00
H449   H     0.24959   0.03343   0.42162   0.00000  Uiso   1.00
H450   H     0.40210   0.33240   0.38961   0.00000  Uiso   1.00
H451   H     0.35354   0.33220   0.42771   0.00000  Uiso   1.00
H452   H     0.34912   0.31383   0.36429   0.00000  Uiso   1.00
H453   H     0.09877   0.16081   0.42494   0.00000  Uiso   1.00
H454   H     0.13873   0.19615   0.36025   0.00000  Uiso   1.00
H455   H     0.14397   0.25062   0.39496   0.00000  Uiso   1.00
H456   H     0.09041   0.23211   0.37024   0.00000  Uiso   1.00
H457   H     0.29597   0.46443   0.56130   0.00000  Uiso   1.00
H458   H     0.23362   0.11018   0.61556   0.00000  Uiso   1.00
H459   H     0.31276   0.09133   0.61808   0.00000  Uiso   1.00
H460   H     0.30018   0.14919   0.64364   0.00000  Uiso   1.00
H461   H     0.32116   0.14510   0.58211   0.00000  Uiso   1.00
H462   H     0.20601   0.37607   0.39634   0.00000  Uiso   1.00
N463   N     0.25000   0.12935   0.50000   0.00000  Uiso   1.00
N464   N     0.11378   0.19323   0.43197   0.00000  Uiso   1.00
N465   N     0.25000   0.37066   0.50000   0.00000  Uiso   1.00
N466   N     0.25480   0.12462   0.59024   0.00000  Uiso   1.00
N467   N     0.19694   0.37008   0.43225   0.00000  Uiso   1.00
N468   N     0.24762   0.12488   0.40970   0.00000  Uiso   1.00
N469   N     0.30341   0.36999   0.56744   0.00000  Uiso   1.00
N470   N     0.11875   0.31414   0.56347   0.00000  Uiso   1.00
N471   N     0.38528   0.23880   0.59178   0.00000  Uiso   1.00
N472   N     0.38015   0.26437   0.41158   0.00000  Uiso   1.00
O473   O     0.18573   0.29072   0.50000   0.00000  Uiso   1.00
O474   O     0.31427   0.20929   0.50000   0.00000  Uiso   1.00
O475   O     0.31427   0.29072   0.50000   0.00000  Uiso   1.00
O476   O     0.18573   0.20929   0.50000   0.00000  Uiso   1.00
O477   O     0.25000   0.29071   0.42946   0.00000  Uiso   1.00
O478   O     0.25000   0.20929   0.57054   0.00000  Uiso   1.00
O479   O     0.25000   0.29071   0.57054   0.00000  Uiso   1.00
O480   O     0.25000   0.20929   0.42946   0.00000  Uiso   1.00
C481   C     0.66507   0.25015   0.49994   0.00000  Uiso   1.00
C482   C     0.77550   0.44582   0.53434   0.00000  Uiso   1.00
C483   C     0.74999   0.25002   0.40696   0.00000  Uiso   1.00
C484   C     0.75013   0.24999   0.59304   0.00000  Uiso   1.00
C485   C     0.74983   0.02598   0.50003   0.00000  Uiso   1.00
C486   C     0.74988   0.47198   0.50004   0.00000  Uiso   1.00
C487   C     0.75007   0.25003   0.35522   0.00000  Uiso   1.00
C488   C     0.75013   0.24998   0.64479   0.00000  Uiso   1.00
C489   C     0.54820   0.28521   0.52972   0.00000  Uiso   1.00
C490   C     0.95352   0.24644   0.54487   0.00000  Uiso   1.00
C491   C     0.95093   0.26028   0.45643   0.00000  Uiso   1.00
C492   C     0.83475   0.25010   0.50048   0.00000  Uiso   1.00
C493   C     0.54593   0.22116   0.46950   0.00000  Uiso   1.00
C494   C     0.59448   0.28337   0.53108   0.00000  Uiso   1.00
C495   C     0.90714   0.24461   0.54583   0.00000  Uiso   1.00
C496   C     0.90473   0.25910   0.45659   0.00000  Uiso   1.00
C497   C     0.59216   0.22096   0.46817   0.00000  Uiso   1.00
C498   C     0.61662   0.25102   0.50017   0.00000  Uiso   1.00
C499   C     0.88288   0.25088   0.50113   0.00000  Uiso   1.00
C500   C     0.52391   0.25351   0.49979   0.00000  Uiso   1.00
C501   C     0.97532   0.25373   0.50037   0.00000  Uiso   1.00
C502   C     0.79968   0.12754   0.60944   0.00000  Uiso   1.00
C503   C     0.75139   0.10272   0.54348   0.00000  Uiso   1.00
C504   C     0.64975   0.37578   0.43846   0.00000  Uiso   1.00
C505   C     0.70490   0.12261   0.38486   0.00000  Uiso   1.00
C506   C     0.85052   0.37542   0.56039   0.00000  Uiso   1.00
C507   C     0.63141   0.29247   0.61004   0.00000  Uiso   1.00
C508   C     0.89641   0.19629   0.61989   0.00000  Uiso   1.00
C509   C     0.87085   0.31330   0.39778   0.00000  Uiso   1.00
C510   C     0.62214   0.21952   0.38715   0.00000  Uiso   1.00
C511   C     0.72389   0.39538   0.46676   0.00000  Uiso   1.00
C512   C     0.74893   0.10279   0.45652   0.00000  Uiso   1.00
C513   C     0.77614   0.39532   0.53317   0.00000  Uiso   1.00
C514   C     0.75057   0.05212   0.54355   0.00000  Uiso   1.00
C515   C     0.72438   0.44589   0.46566   0.00000  Uiso   1.00
C516   C     0.74941   0.05219   0.45650   0.00000  Uiso   1.00
Cu517  Cu    0.75000   0.29822   0.50000   0.00000  Uiso   1.00
Cu518  Cu    0.75000   0.20179   0.50000   0.00000  Uiso   1.00
F519   F     0.52687   0.31763   0.55795   0.00000  Uiso   1.00
F520   F     0.97771   0.24146   0.58728   0.00000  Uiso   1.00
F521   F     0.97204   0.26889   0.41355   0.00000  Uiso   1.00
F522   F     0.52243   0.19047   0.44037   0.00000  Uiso   1.00
H523   H     0.75093   0.03332   0.57847   0.00000  Uiso   1.00
H524   H     0.63911   0.41229   0.42743   0.00000  Uiso   1.00
H525   H     0.64076   0.36936   0.47738   0.00000  Uiso   1.00
H526   H     0.63179   0.34951   0.41488   0.00000  Uiso   1.00
H527   H     0.77288   0.11395   0.38731   0.00000  Uiso   1.00
H528   H     0.69835   0.08591   0.37105   0.00000  Uiso   1.00
H529   H     0.70448   0.14767   0.35319   0.00000  Uiso   1.00
H530   H     0.67836   0.13308   0.41033   0.00000  Uiso   1.00
H531   H     0.79487   0.37629   0.60346   0.00000  Uiso   1.00
H532   H     0.86132   0.41214   0.57028   0.00000  Uiso   1.00
H533   H     0.85908   0.36807   0.52150   0.00000  Uiso   1.00
H534   H     0.70395   0.46455   0.43865   0.00000  Uiso   1.00
H535   H     0.86874   0.34968   0.58443   0.00000  Uiso   1.00
H536   H     0.60457   0.34732   0.56794   0.00000  Uiso   1.00
H537   H     0.64998   0.25880   0.60410   0.00000  Uiso   1.00
H538   H     0.65310   0.31731   0.63131   0.00000  Uiso   1.00
H539   H     0.60146   0.28484   0.63178   0.00000  Uiso   1.00
H540   H     0.85202   0.24696   0.59193   0.00000  Uiso   1.00
H541   H     0.87139   0.19043   0.64868   0.00000  Uiso   1.00
H542   H     0.92881   0.20047   0.63922   0.00000  Uiso   1.00
H543   H     0.89724   0.16446   0.59554   0.00000  Uiso   1.00
H544   H     0.89343   0.24543   0.38290   0.00000  Uiso   1.00
H545   H     0.74959   0.03343   0.42162   0.00000  Uiso   1.00
H546   H     0.90210   0.33240   0.38961   0.00000  Uiso   1.00
H547   H     0.85354   0.33220   0.42771   0.00000  Uiso   1.00
H548   H     0.84912   0.31383   0.36429   0.00000  Uiso   1.00
H549   H     0.59877   0.16081   0.42494   0.00000  Uiso   1.00
H550   H     0.63873   0.19615   0.36025   0.00000  Uiso   1.00
H551   H     0.64397   0.25062   0.39496   0.00000  Uiso   1.00
H552   H     0.59041   0.23211   0.37024   0.00000  Uiso   1.00
H553   H     0.79597   0.46443   0.56130   0.00000  Uiso   1.00
H554   H     0.73362   0.11018   0.61556   0.00000  Uiso   1.00
H555   H     0.81276   0.09133   0.61808   0.00000  Uiso   1.00
H556   H     0.80018   0.14919   0.64364   0.00000  Uiso   1.00
H557   H     0.82116   0.14510   0.58211   0.00000  Uiso   1.00
H558   H     0.70601   0.37607   0.39634   0.00000  Uiso   1.00
N559   N     0.75000   0.12935   0.50000   0.00000  Uiso   1.00
N560   N     0.61378   0.19323   0.43197   0.00000  Uiso   1.00
N561   N     0.75000   0.37066   0.50000   0.00000  Uiso   1.00
N562   N     0.75480   0.12462   0.59024   0.00000  Uiso   1.00
N563   N     0.69694   0.37008   0.43225   0.00000  Uiso   1.00
N564   N     0.74762   0.12488   0.40970   0.00000  Uiso   1.00
N565   N     0.80341   0.36999   0.56744   0.00000  Uiso   1.00
N566   N     0.61875   0.31414   0.56347   0.00000  Uiso   1.00
N567   N     0.88528   0.23880   0.59178   0.00000  Uiso   1.00
N568   N     0.88015   0.26437   0.41158   0.00000  Uiso   1.00
O569   O     0.68573   0.29072   0.50000   0.00000  Uiso   1.00
O570   O     0.81427   0.20929   0.50000   0.00000  Uiso   1.00
O571   O     0.81427   0.29072   0.50000   0.00000  Uiso   1.00
O572   O     0.68573   0.20929   0.50000   0.00000  Uiso   1.00
O573   O     0.75000   0.29071   0.42946   0.00000  Uiso   1.00
O574   O     0.75000   0.20929   0.57054   0.00000  Uiso   1.00
O575   O     0.75000   0.29071   0.57054   0.00000  Uiso   1.00
O576   O     0.75000   0.20929   0.42946   0.00000  Uiso   1.00
C577   C     0.16507   0.75015   0.49994   0.00000  Uiso   1.00
C578   C     0.27550   0.94582   0.53434   0.00000  Uiso   1.00
C579   C     0.24999   0.75002   0.40696   0.00000  Uiso   1.00
C580   C     0.25013   0.74999   0.59304   0.00000  Uiso   1.00
C581   C     0.24983   0.52598   0.50003   0.00000  Uiso   1.00
C582   C     0.24988   0.97198   0.50004   0.00000  Uiso   1.00
C583   C     0.25007   0.75003   0.35522   0.00000  Uiso   1.00
C584   C     0.25013   0.74998   0.64479   0.00000  Uiso   1.00
C585   C     0.04820   0.78521   0.52972   0.00000  Uiso   1.00
C586   C     0.45352   0.74644   0.54487   0.00000  Uiso   1.00
C587   C     0.45093   0.76028   0.45643   0.00000  Uiso   1.00
C588   C     0.33475   0.75010   0.50048   0.00000  Uiso   1.00
C589   C     0.04593   0.72116   0.46950   0.00000  Uiso   1.00
C590   C     0.09448   0.78337   0.53108   0.00000  Uiso   1.00
C591   C     0.40714   0.74461   0.54583   0.00000  Uiso   1.00
C592   C     0.40473   0.75910   0.45659   0.00000  Uiso   1.00
C593   C     0.09216   0.72096   0.46817   0.00000  Uiso   1.00
C594   C     0.11662   0.75102   0.50017   0.00000  Uiso   1.00
C595   C     0.38288   0.75088   0.50113   0.00000  Uiso   1.00
C596   C     0.02391   0.75351   0.49979   0.00000  Uiso   1.00
C597   C     0.47532   0.75373   0.50037   0.00000  Uiso   1.00
C598   C     0.29968   0.62754   0.60944   0.00000  Uiso   1.00
C599   C     0.25139   0.60272   0.54348   0.00000  Uiso   1.00
C600   C     0.14975   0.87578   0.43846   0.00000  Uiso   1.00
C601   C     0.20490   0.62261   0.38486   0.00000  Uiso   1.00
C602   C     0.35052   0.87542   0.56039   0.00000  Uiso   1.00
C603   C     0.13141   0.79247   0.61004   0.00000  Uiso   1.00
C604   C     0.39641   0.69629   0.61989   0.00000  Uiso   1.00
C605   C     0.37085   0.81330   0.39778   0.00000  Uiso   1.00
C606   C     0.12214   0.71952   0.38715   0.00000  Uiso   1.00
C607   C     0.22389   0.89538   0.46676   0.00000  Uiso   1.00
C608   C     0.24893   0.60279   0.45652   0.00000  Uiso   1.00
C609   C     0.27614   0.89532   0.53317   0.00000  Uiso   1.00
C610   C     0.25057   0.55212   0.54355   0.00000  Uiso   1.00
C611   C     0.22438   0.94589   0.46566   0.00000  Uiso   1.00
C612   C     0.24941   0.55219   0.45650   0.00000  Uiso   1.00
Cu613  Cu    0.25000   0.79822   0.50000   0.00000  Uiso   1.00
Cu614  Cu    0.25000   0.70179   0.50000   0.00000  Uiso   1.00
F615   F     0.02687   0.81763   0.55795   0.00000  Uiso   1.00
F616   F     0.47771   0.74146   0.58728   0.00000  Uiso   1.00
F617   F     0.47204   0.76889   0.41355   0.00000  Uiso   1.00
F618   F     0.02243   0.69047   0.44037   0.00000  Uiso   1.00
H619   H     0.25093   0.53332   0.57847   0.00000  Uiso   1.00
H620   H     0.13911   0.91229   0.42743   0.00000  Uiso   1.00
H621   H     0.14076   0.86936   0.47738   0.00000  Uiso   1.00
H622   H     0.13179   0.84951   0.41488   0.00000  Uiso   1.00
H623   H     0.27288   0.61395   0.38731   0.00000  Uiso   1.00
H624   H     0.19835   0.58591   0.37105   0.00000  Uiso   1.00
H625   H     0.20448   0.64767   0.35319   0.00000  Uiso   1.00
H626   H     0.17836   0.63308   0.41033   0.00000  Uiso   1.00
H627   H     0.29487   0.87629   0.60346   0.00000  Uiso   1.00
H628   H     0.36132   0.91214   0.57028   0.00000  Uiso   1.00
H629   H     0.35908   0.86807   0.52150   0.00000  Uiso   1.00
H630   H     0.20395   0.96455   0.43865   0.00000  Uiso   1.00
H631   H     0.36874   0.84968   0.58443   0.00000  Uiso   1.00
H632   H     0.10457   0.84732   0.56794   0.00000  Uiso   1.00
H633   H     0.14998   0.75880   0.60410   0.00000  Uiso   1.00
H634   H     0.15310   0.81731   0.63131   0.00000  Uiso   1.00
H635   H     0.10146   0.78484   0.63178   0.00000  Uiso   1.00
H636   H     0.35202   0.74696   0.59193   0.00000  Uiso   1.00
H637   H     0.37139   0.69043   0.64868   0.00000  Uiso   1.00
H638   H     0.42881   0.70047   0.63922   0.00000  Uiso   1.00
H639   H     0.39724   0.66446   0.59554   0.00000  Uiso   1.00
H640   H     0.39343   0.74543   0.38290   0.00000  Uiso   1.00
H641   H     0.24959   0.53343   0.42162   0.00000  Uiso   1.00
H642   H     0.40210   0.83240   0.38961   0.00000  Uiso   1.00
H643   H     0.35354   0.83220   0.42771   0.00000  Uiso   1.00
H644   H     0.34912   0.81383   0.36429   0.00000  Uiso   1.00
H645   H     0.09877   0.66081   0.42494   0.00000  Uiso   1.00
H646   H     0.13873   0.69615   0.36025   0.00000  Uiso   1.00
H647   H     0.14397   0.75062   0.39496   0.00000  Uiso   1.00
H648   H     0.09041   0.73211   0.37024   0.00000  Uiso   1.00
H649   H     0.29597   0.96443   0.56130   0.00000  Uiso   1.00
H650   H     0.23362   0.61018   0.61556   0.00000  Uiso   1.00
H651   H     0.31276   0.59133   0.61808   0.00000  Uiso   1.00
H652   H     0.30018   0.64919   0.64364   0.00000  Uiso   1.00
H653   H     0.32116   0.64510   0.58211   0.00000  Uiso   1.00
H654   H     0.20601   0.87607   0.39634   0.00000  Uiso   1.00
N655   N     0.25000   0.62935   0.50000   0.00000  Uiso   1.00
N656   N     0.11378   0.69323   0.43197   0.00000  Uiso   1.00
N657   N     0.25000   0.87066   0.50000   0.00000  Uiso   1.00
N658   N     0.25480   0.62462   0.59024   0.00000  Uiso   1.00
N659   N     0.19694   0.87008   0.43225   0.00000  Uiso   1.00
N660   N     0.24762   0.62488   0.40970   0.00000  Uiso   1.00
N661   N     0.30341   0.86999   0.56744   0.00000  Uiso   1.00
N662   N     0.11875   0.81414   0.56347   0.00000  Uiso   1.00
N663   N     0.38528   0.73880   0.59178   0.00000  Uiso   1.00
N664   N     0.38015   0.76437   0.41158   0.00000  Uiso   1.00
O665   O     0.18573   0.79072   0.50000   0.00000  Uiso   1.00
O666   O     0.31427   0.70929   0.50000   0.00000  Uiso   1.00
O667   O     0.31427   0.79072   0.50000   0.00000  Uiso   1.00
O668   O     0.18573   0.70929   0.50000   0.00000  Uiso   1.00
O669   O     0.25000   0.79071   0.42946   0.00000  Uiso   1.00
O670   O     0.25000   0.70929   0.57054   0.00000  Uiso   1.00
O671   O     0.25000   0.79071   0.57054   0.00000  Uiso   1.00
O672   O     0.25000   0.70929   0.42946   0.00000  Uiso   1.00
C673   C     0.66507   0.75015   0.49994   0.00000  Uiso   1.00
C674   C     0.77550   0.94582   0.53434   0.00000  Uiso   1.00
C675   C     0.74999   0.75002   0.40696   0.00000  Uiso   1.00
C676   C     0.75013   0.74999   0.59304   0.00000  Uiso   1.00
C677   C     0.74983   0.52598   0.50003   0.00000  Uiso   1.00
C678   C     0.74988   0.97198   0.50004   0.00000  Uiso   1.00
C679   C     0.75007   0.75003   0.35522   0.00000  Uiso   1.00
C680   C     0.75013   0.74998   0.64479   0.00000  Uiso   1.00
C681   C     0.54820   0.78521   0.52972   0.00000  Uiso   1.00
C682   C     0.95352   0.74644   0.54487   0.00000  Uiso   1.00
C683   C     0.95093   0.76028   0.45643   0.00000  Uiso   1.00
C684   C     0.83475   0.75010   0.50048   0.00000  Uiso   1.00
C685   C     0.54593   0.72116   0.46950   0.00000  Uiso   1.00
C686   C     0.59448   0.78337   0.53108   0.00000  Uiso   1.00
C687   C     0.90714   0.74461   0.54583   0.00000  Uiso   1.00
C688   C     0.90473   0.75910   0.45659   0.00000  Uiso   1.00
C689   C     0.59216   0.72096   0.46817   0.00000  Uiso   1.00
C690   C     0.61662   0.75102   0.50017   0.00000  Uiso   1.00
C691   C     0.88288   0.75088   0.50113   0.00000  Uiso   1.00
C692   C     0.52391   0.75351   0.49979   0.00000  Uiso   1.00
C693   C     0.97532   0.75373   0.50037   0.00000  Uiso   1.00
C694   C     0.79968   0.62754   0.60944   0.00000  Uiso   1.00
C695   C     0.75139   0.60272   0.54348   0.00000  Uiso   1.00
C696   C     0.64975   0.87578   0.43846   0.00000  Uiso   1.00
C697   C     0.70490   0.62261   0.38486   0.00000  Uiso   1.00
C698   C     0.85052   0.87542   0.56039   0.00000  Uiso   1.00
C699   C     0.63141   0.79247   0.61004   0.00000  Uiso   1.00
C700   C     0.89641   0.69629   0.61989   0.00000  Uiso   1.00
C701   C     0.87085   0.81330   0.39778   0.00000  Uiso   1.00
C702   C     0.62214   0.71952   0.38715   0.00000  Uiso   1.00
C703   C     0.72389   0.89538   0.46676   0.00000  Uiso   1.00
C704   C     0.74893   0.60279   0.45652   0.00000  Uiso   1.00
C705   C     0.77614   0.89532   0.53317   0.00000  Uiso   1.00
C706   C     0.75057   0.55212   0.54355   0.00000  Uiso   1.00
C707   C     0.72438   0.94589   0.46566   0.00000  Uiso   1.00
C708   C     0.74941   0.55219   0.45650   0.00000  Uiso   1.00
Cu709  Cu    0.75000   0.79822   0.50000   0.00000  Uiso   1.00
Cu710  Cu    0.75000   0.70179   0.50000   0.00000  Uiso   1.00
F711   F     0.52687   0.81763   0.55795   0.00000  Uiso   1.00
F712   F     0.97771   0.74146   0.58728   0.00000  Uiso   1.00
F713   F     0.97204   0.76889   0.41355   0.00000  Uiso   1.00
F714   F     0.52243   0.69047   0.44037   0.00000  Uiso   1.00
H715   H     0.75093   0.53332   0.57847   0.00000  Uiso   1.00
H716   H     0.63911   0.91229   0.42743   0.00000  Uiso   1.00
H717   H     0.64076   0.86936   0.47738   0.00000  Uiso   1.00
H718   H     0.63179   0.84951   0.41488   0.00000  Uiso   1.00
H719   H     0.77288   0.61395   0.38731   0.00000  Uiso   1.00
H720   H     0.69835   0.58591   0.37105   0.00000  Uiso   1.00
H721   H     0.70448   0.64767   0.35319   0.00000  Uiso   1.00
H722   H     0.67836   0.63308   0.41033   0.00000  Uiso   1.00
H723   H     0.79487   0.87629   0.60346   0.00000  Uiso   1.00
H724   H     0.86132   0.91214   0.57028   0.00000  Uiso   1.00
H725   H     0.85908   0.86807   0.52150   0.00000  Uiso   1.00
H726   H     0.70395   0.96455   0.43865   0.00000  Uiso   1.00
H727   H     0.86874   0.84968   0.58443   0.00000  Uiso   1.00
H728   H     0.60457   0.84732   0.56794   0.00000  Uiso   1.00
H729   H     0.64998   0.75880   0.60410   0.00000  Uiso   1.00
H730   H     0.65310   0.81731   0.63131   0.00000  Uiso   1.00
H731   H     0.60146   0.78484   0.63178   0.00000  Uiso   1.00
H732   H     0.85202   0.74696   0.59193   0.00000  Uiso   1.00
H733   H     0.87139   0.69043   0.64868   0.00000  Uiso   1.00
H734   H     0.92881   0.70047   0.63922   0.00000  Uiso   1.00
H735   H     0.89724   0.66446   0.59554   0.00000  Uiso   1.00
H736   H     0.89343   0.74543   0.38290   0.00000  Uiso   1.00
H737   H     0.74959   0.53343   0.42162   0.00000  Uiso   1.00
H738   H     0.90210   0.83240   0.38961   0.00000  Uiso   1.00
H739   H     0.85354   0.83220   0.42771   0.00000  Uiso   1.00
H740   H     0.84912   0.81383   0.36429   0.00000  Uiso   1.00
H741   H     0.59877   0.66081   0.42494   0.00000  Uiso   1.00
H742   H     0.63873   0.69615   0.36025   0.00000  Uiso   1.00
H743   H     0.64397   0.75062   0.39496   0.00000  Uiso   1.00
H744   H     0.59041   0.73211   0.37024   0.00000  Uiso   1.00
H745   H     0.79597   0.96443   0.56130   0.00000  Uiso   1.00
H746   H     0.73362   0.61018   0.61556   0.00000  Uiso   1.00
H747   H     0.81276   0.59133   0.61808   0.00000  Uiso   1.00
H748   H     0.80018   0.64919   0.64364   0.00000  Uiso   1.00
H749   H     0.82116   0.64510   0.58211   0.00000  Uiso   1.00
H750   H     0.70601   0.87607   0.39634   0.00000  Uiso   1.00
N751   N     0.75000   0.62935   0.50000   0.00000  Uiso   1.00
N752   N     0.61378   0.69323   0.43197   0.00000  Uiso   1.00
N753   N     0.75000   0.87066   0.50000   0.00000  Uiso   1.00
N754   N     0.75480   0.62462   0.59024   0.00000  Uiso   1.00
N755   N     0.69694   0.87008   0.43225   0.00000  Uiso   1.00
N756   N     0.74762   0.62488   0.40970   0.00000  Uiso   1.00
N757   N     0.80341   0.86999   0.56744   0.00000  Uiso   1.00
N758   N     0.61875   0.81414   0.56347   0.00000  Uiso   1.00
N759   N     0.88528   0.73880   0.59178   0.00000  Uiso   1.00
N760   N     0.88015   0.76437   0.41158   0.00000  Uiso   1.00
O761   O     0.68573   0.79072   0.50000   0.00000  Uiso   1.00
O762   O     0.81427   0.70929   0.50000   0.00000  Uiso   1.00
O763   O     0.81427   0.79072   0.50000   0.00000  Uiso   1.00
O764   O     0.68573   0.70929   0.50000   0.00000  Uiso   1.00
O765   O     0.75000   0.79071   0.42946   0.00000  Uiso   1.00
O766   O     0.75000   0.70929   0.57054   0.00000  Uiso   1.00
O767   O     0.75000   0.79071   0.57054   0.00000  Uiso   1.00
O768   O     0.75000   0.70929   0.42946   0.00000  Uiso   1.00
C769   C     0.16507   0.25015   0.83327   0.00000  Uiso   1.00
C770   C     0.27550   0.44582   0.86767   0.00000  Uiso   1.00
C771   C     0.24999   0.25002   0.74030   0.00000  Uiso   1.00
C772   C     0.25013   0.24999   0.92637   0.00000  Uiso   1.00
C773   C     0.24983   0.02598   0.83337   0.00000  Uiso   1.00
C774   C     0.24988   0.47198   0.83337   0.00000  Uiso   1.00
C775   C     0.25007   0.25003   0.68855   0.00000  Uiso   1.00
C776   C     0.25013   0.24998   0.97812   0.00000  Uiso   1.00
C777   C     0.04820   0.28521   0.86305   0.00000  Uiso   1.00
C778   C     0.45352   0.24644   0.87820   0.00000  Uiso   1.00
C779   C     0.45093   0.26028   0.78976   0.00000  Uiso   1.00
C780   C     0.33475   0.25010   0.83381   0.00000  Uiso   1.00
C781   C     0.04593   0.22116   0.80283   0.00000  Uiso   1.00
C782   C     0.09448   0.28337   0.86441   0.00000  Uiso   1.00
C783   C     0.40714   0.24461   0.87917   0.00000  Uiso   1.00
C784   C     0.40473   0.25910   0.78992   0.00000  Uiso   1.00
C785   C     0.09216   0.22096   0.80150   0.00000  Uiso   1.00
C786   C     0.11662   0.25102   0.83350   0.00000  Uiso   1.00
C787   C     0.38288   0.25088   0.83446   0.00000  Uiso   1.00
C788   C     0.02391   0.25351   0.83312   0.00000  Uiso   1.00
C789   C     0.47532   0.25373   0.83370   0.00000  Uiso   1.00
C790   C     0.29968   0.12754   0.94277   0.00000  Uiso   1.00
C791   C     0.25139   0.10272   0.87681   0.00000  Uiso   1.00
C792   C     0.14975   0.37578   0.77179   0.00000  Uiso   1.00
C793   C     0.20490   0.12261   0.71819   0.00000  Uiso   1.00
C794   C     0.35052   0.37542   0.89372   0.00000  Uiso   1.00
C795   C     0.13141   0.29247   0.94337   0.00000  Uiso   1.00
C796   C     0.39641   0.19629   0.95322   0.00000  Uiso   1.00
C797   C     0.37085   0.31330   0.73111   0.00000  Uiso   1.00
C798   C     0.12214   0.21952   0.72049   0.00000  Uiso   1.00
C799   C     0.22389   0.39538   0.80009   0.00000  Uiso   1.00
C800   C     0.24893   0.10279   0.78985   0.00000  Uiso   1.00
C801   C     0.27614   0.39532   0.86651   0.00000  Uiso   1.00
C802   C     0.25057   0.05212   0.87688   0.00000  Uiso   1.00
C803   C     0.22438   0.44589   0.79899   0.00000  Uiso   1.00
C804   C     0.24941   0.05219   0.78983   0.00000  Uiso   1.00
Cu805  Cu    0.25000   0.29822   0.83333   0.00000  Uiso   1.00
Cu806  Cu    0.25000   0.20179   0.83333   0.00000  Uiso   1.00
F807   F     0.02687   0.31763   0.89129   0.00000  Uiso   1.00
F808   F     0.47771   0.24146   0.92061   0.00000  Uiso   1.00
F809   F     0.47204   0.26889   0.74688   0.00000  Uiso   1.00
F810   F     0.02243   0.19047   0.77370   0.00000  Uiso   1.00
H811   H     0.25093   0.03332   0.91180   0.00000  Uiso   1.00
H812   H     0.13911   0.41229   0.76077   0.00000  Uiso   1.00
H813   H     0.14076   0.36936   0.81071   0.00000  Uiso   1.00
H814   H     0.13179   0.34951   0.74821   0.00000  Uiso   1.00
H815   H     0.27288   0.11395   0.72065   0.00000  Uiso   1.00
H816   H     0.19835   0.08591   0.70438   0.00000  Uiso   1.00
H817   H     0.20448   0.14767   0.68653   0.00000  Uiso   1.00
H818   H     0.17836   0.13308   0.74367   0.00000  Uiso   1.00
H819   H     0.29487   0.37629   0.93679   0.00000  Uiso   1.00
H820   H     0.36132   0.41214   0.90361   0.00000  Uiso   1.00
H821   H     0.35908   0.36807   0.85483   0.00000  Uiso   1.00
H822   H     0.20395   0.46455   0.77198   0.00000  Uiso   1.00
H823   H     0.36874   0.34968   0.91777   0.00000  Uiso   1.00
H824   H     0.10457   0.34732   0.90128   0.00000  Uiso   1.00
H825   H     0.14998   0.25880   0.93744   0.00000  Uiso   1.00
H826   H     0.15310   0.31731   0.96465   0.00000  Uiso   1.00
H827   H     0.10146   0.28484   0.96512   0.00000  Uiso   1.00
H828   H     0.35202   0.24696   0.92527   0.00000  Uiso   1.00
H829   H     0.37139   0.19043   0.98201   0.00000  Uiso   1.00
H830   H     0.42881   0.20047   0.97255   0.00000  Uiso   1.00
H831   H     0.39724   0.16446   0.92888   0.00000  Uiso   1.00
H832   H     0.39343   0.24543   0.71623   0.00000  Uiso   1.00
H833   H     0.24959   0.03343   0.75495   0.00000  Uiso   1.00
H834   H     0.40210   0.33240   0.72294   0.00000  Uiso   1.00
H835   H     0.35354   0.33220   0.76104   0.00000  Uiso   1.00
H836   H     0.34912   0.31383   0.69762   0.00000  Uiso   1.00
H837   H     0.09877   0.16081   0.75828   0.00000  Uiso   1.00
H838   H     0.13873   0.19615   0.69359   0.00000  Uiso   1.00
H839   H     0.14397   0.25062   0.72830   0.00000  Uiso   1.00
H840   H     0.09041   0.23211   0.70357   0.00000  Uiso   1.00
H841   H     0.29597   0.46443   0.89463   0.00000  Uiso   1.00
H842   H     0.23362   0.11018   0.94890   0.00000  Uiso   1.00
H843   H     0.31276   0.09133   0.95142   0.00000  Uiso   1.00
H844   H     0.30018   0.14919   0.97698   0.00000  Uiso   1.00
H845   H     0.32116   0.14510   0.91544   0.00000  Uiso   1.00
H846   H     0.20601   0.37607   0.72967   0.00000  Uiso   1.00
N847   N     0.25000   0.12935   0.83333   0.00000  Uiso   1.00
N848   N     0.11378   0.19323   0.76530   0.00000  Uiso   1.00
N849   N     0.25000   0.37066   0.83333   0.00000  Uiso   1.00
N850   N     0.25480   0.12462   0.92357   0.00000  Uiso   1.00
N851   N     0.19694   0.37008   0.76558   0.00000  Uiso   1.00
N852   N     0.24762   0.12488   0.74304   0.00000  Uiso   1.00
N853   N     0.30341   0.36999   0.90077   0.00000  Uiso   1.00
N854   N     0.11875   0.31414   0.89680   0.00000  Uiso   1.00
N855   N     0.38528   0.23880   0.92512   0.00000  Uiso   1.00
N856   N     0.38015   0.26437   0.74492   0.00000  Uiso   1.00
O857   O     0.18573   0.29072   0.83334   0.00000  Uiso   1.00
O858   O     0.31427   0.20929   0.83333   0.00000  Uiso   1.00
O859   O     0.31427   0.29072   0.83333   0.00000  Uiso   1.00
O860   O     0.18573   0.20929   0.83334   0.00000  Uiso   1.00
O861   O     0.25000   0.29071   0.76280   0.00000  Uiso   1.00
O862   O     0.25000   0.20929   0.90387   0.00000  Uiso   1.00
O863   O     0.25000   0.29071   0.90387   0.00000  Uiso   1.00
O864   O     0.25000   0.20929   0.76280   0.00000  Uiso   1.00
C865   C     0.66507   0.25015   0.83327   0.00000  Uiso   1.00
C866   C     0.77550   0.44582   0.86767   0.00000  Uiso   1.00
C867   C     0.74999   0.25002   0.74030   0.00000  Uiso   1.00
C868   C     0.75013   0.24999   0.92637   0.00000  Uiso   1.00
C869   C     0.74983   0.02598   0.83337   0.00000  Uiso   1.00
C870   C     0.74988   0.47198   0.83337   0.00000  Uiso   1.00
C871   C     0.75007   0.25003   0.68855   0.00000  Uiso   1.00
C872   C     0.75013   0.24998   0.97812   0.00000  Uiso   1.00
C873   C     0.54820   0.28521   0.86305   0.00000  Uiso   1.00
C874   C     0.95352   0.24644   0.87820   0.00000  Uiso   1.00
C875   C     0.95093   0.26028   0.78976   0.00000  Uiso   1.00
C876   C     0.83475   0.25010   0.83381   0.00000  Uiso   1.00
C877   C     0.54593   0.22116   0.80283   0.00000  Uiso   1.00
C878   C     0.59448   0.28337   0.86441   0.00000  Uiso   1.00
C879   C     0.90714   0.24461   0.87917   0.00000  Uiso   1.00
C880   C     0.90473   0.25910   0.78992   0.00000  Uiso   1.00
C881   C     0.59216   0.22096   0.80150   0.00000  Uiso   1.00
C882   C     0.61662   0.25102   0.83350   0.00000  Uiso   1.00
C883   C     0.88288   0.25088   0.83446   0.00000  Uiso   1.00
C884   C     0.52391   0.25351   0.83312   0.00000  Uiso   1.00
C885   C     0.97532   0.25373   0.83370   0.00000  Uiso   1.00
C886   C     0.79968   0.12754   0.94277   0.00000  Uiso   1.00
C887   C     0.75139   0.10272   0.87681   0.00000  Uiso   1.00
C888   C     0.64975   0.37578   0.77179   0.00000  Uiso   1.00
C889   C     0.70490   0.12261   0.71819   0.00000  Uiso   1.00
C890   C     0.85052   0.37542   0.89372   0.00000  Uiso   1.00
C891   C     0.63141   0.29247   0.94337   0.00000  Uiso   1.00
C892   C     0.89641   0.19629   0.95322   0.00000  Uiso   1.00
C893   C     0.87085   0.31330   0.73111   0.00000  Uiso   1.00
C894   C     0.62214   0.21952   0.72049   0.00000  Uiso   1.00
C895   C     0.72389   0.39538   0.80009   0.00000  Uiso   1.00
C896   C     0.74893   0.10279   0.78985   0.00000  Uiso   1.00
C897   C     0.77614   0.39532   0.86651   0.00000  Uiso   1.00
C898   C     0.75057   0.05212   0.87688   0.00000  Uiso   1.00
C899   C     0.72438   0.44589   0.79899   0.00000  Uiso   1.00
C900   C     0.74941   0.05219   0.78983   0.00000  Uiso   1.00
Cu901  Cu    0.75000   0.29822   0.83333   0.00000  Uiso   1.00
Cu902  Cu    0.75000   0.20179   0.83333   0.00000  Uiso   1.00
F903   F     0.52687   0.31763   0.89129   0.00000  Uiso   1.00
F904   F     0.97771   0.24146   0.92061   0.00000  Uiso   1.00
F905   F     0.97204   0.26889   0.74688   0.00000  Uiso   1.00
F906   F     0.52243   0.19047   0.77370   0.00000  Uiso   1.00
H907   H     0.75093   0.03332   0.91180   0.00000  Uiso   1.00
H908   H     0.63911   0.41229   0.76077   0.00000  Uiso   1.00
H909   H     0.64076   0.36936   0.81071   0.00000  Uiso   1.00
H910   H     0.63179   0.34951   0.74821   0.00000  Uiso   1.00
H911   H     0.77288   0.11395   0.72065   0.00000  Uiso   1.00
H912   H     0.69835   0.08591   0.70438   0.00000  Uiso   1.00
H913   H     0.70448   0.14767   0.68653   0.00000  Uiso   1.00
H914   H     0.67836   0.13308   0.74367   0.00000  Uiso   1.00
H915   H     0.79487   0.37629   0.93679   0.00000  Uiso   1.00
H916   H     0.86132   0.41214   0.90361   0.00000  Uiso   1.00
H917   H     0.85908   0.36807   0.85483   0.00000  Uiso   1.00
H918   H     0.70395   0.46455   0.77198   0.00000  Uiso   1.00
H919   H     0.86874   0.34968   0.91777   0.00000  Uiso   1.00
H920   H     0.60457   0.34732   0.90128   0.00000  Uiso   1.00
H921   H     0.64998   0.25880   0.93744   0.00000  Uiso   1.00
H922   H     0.65310   0.31731   0.96465   0.00000  Uiso   1.00
H923   H     0.60146   0.28484   0.96512   0.00000  Uiso   1.00
H924   H     0.85202   0.24696   0.92527   0.00000  Uiso   1.00
H925   H     0.87139   0.19043   0.98201   0.00000  Uiso   1.00
H926   H     0.92881   0.20047   0.97255   0.00000  Uiso   1.00
H927   H     0.89724   0.16446   0.92888   0.00000  Uiso   1.00
H928   H     0.89343   0.24543   0.71623   0.00000  Uiso   1.00
H929   H     0.74959   0.03343   0.75495   0.00000  Uiso   1.00
H930   H     0.90210   0.33240   0.72294   0.00000  Uiso   1.00
H931   H     0.85354   0.33220   0.76104   0.00000  Uiso   1.00
H932   H     0.84912   0.31383   0.69762   0.00000  Uiso   1.00
H933   H     0.59877   0.16081   0.75828   0.00000  Uiso   1.00
H934   H     0.63873   0.19615   0.69359   0.00000  Uiso   1.00
H935   H     0.64397   0.25062   0.72830   0.00000  Uiso   1.00
H936   H     0.59041   0.23211   0.70357   0.00000  Uiso   1.00
H937   H     0.79597   0.46443   0.89463   0.00000  Uiso   1.00
H938   H     0.73362   0.11018   0.94890   0.00000  Uiso   1.00
H939   H     0.81276   0.09133   0.95142   0.00000  Uiso   1.00
H940   H     0.80018   0.14919   0.97698   0.00000  Uiso   1.00
H941   H     0.82116   0.14510   0.91544   0.00000  Uiso   1.00
H942   H     0.70601   0.37607   0.72967   0.00000  Uiso   1.00
N943   N     0.75000   0.12935   0.83333   0.00000  Uiso   1.00
N944   N     0.61378   0.19323   0.76530   0.00000  Uiso   1.00
N945   N     0.75000   0.37066   0.83333   0.00000  Uiso   1.00
N946   N     0.75480   0.12462   0.92357   0.00000  Uiso   1.00
N947   N     0.69694   0.37008   0.76558   0.00000  Uiso   1.00
N948   N     0.74762   0.12488   0.74304   0.00000  Uiso   1.00
N949   N     0.80341   0.36999   0.90077   0.00000  Uiso   1.00
N950   N     0.61875   0.31414   0.89680   0.00000  Uiso   1.00
N951   N     0.88528   0.23880   0.92512   0.00000  Uiso   1.00
N952   N     0.88015   0.26437   0.74492   0.00000  Uiso   1.00
O953   O     0.68573   0.29072   0.83334   0.00000  Uiso   1.00
O954   O     0.81427   0.20929   0.83333   0.00000  Uiso   1.00
O955   O     0.81427   0.29072   0.83333   0.00000  Uiso   1.00
O956   O     0.68573   0.20929   0.83334   0.00000  Uiso   1.00
O957   O     0.75000   0.29071   0.76280   0.00000  Uiso   1.00
O958   O     0.75000   0.20929   0.90387   0.00000  Uiso   1.00
O959   O     0.75000   0.29071   0.90387   0.00000  Uiso   1.00
O960   O     0.75000   0.20929   0.76280   0.00000  Uiso   1.00
C961   C     0.16507   0.75015   0.83327   0.00000  Uiso   1.00
C962   C     0.27550   0.94582   0.86767   0.00000  Uiso   1.00
C963   C     0.24999   0.75002   0.74030   0.00000  Uiso   1.00
C964   C     0.25013   0.74999   0.92637   0.00000  Uiso   1.00
C965   C     0.24983   0.52598   0.83337   0.00000  Uiso   1.00
C966   C     0.24988   0.97198   0.83337   0.00000  Uiso   1.00
C967   C     0.25007   0.75003   0.68855   0.00000  Uiso   1.00
C968   C     0.25013   0.74998   0.97812   0.00000  Uiso   1.00
C969   C     0.04820   0.78521   0.86305   0.00000  Uiso   1.00
C970   C     0.45352   0.74644   0.87820   0.00000  Uiso   1.00
C971   C     0.45093   0.76028   0.78976   0.00000  Uiso   1.00
C972   C     0.33475   0.75010   0.83381   0.00000  Uiso   1.00
C973   C     0.04593   0.72116   0.80283   0.00000  Uiso   1.00
C974   C     0.09448   0.78337   0.86441   0.00000  Uiso   1.00
C975   C     0.40714   0.74461   0.87917   0.00000  Uiso   1.00
C976   C     0.40473   0.75910   0.78992   0.00000  Uiso   1.00
C977   C     0.09216   0.72096   0.80150   0.00000  Uiso   1.00
C978   C     0.11662   0.75102   0.83350   0.00000  Uiso   1.00
C979   C     0.38288   0.75088   0.83446   0.00000  Uiso   1.00
C980   C     0.02391   0.75351   0.83312   0.00000  Uiso   1.00
C981   C     0.47532   0.75373   0.83370   0.00000  Uiso   1.00
C982   C     0.29968   0.62754   0.94277   0.00000  Uiso   1.00
C983   C     0.25139   0.60272   0.87681   0.00000  Uiso   1.00
C984   C     0.14975   0.87578   0.77179   0.00000  Uiso   1.00
C985   C     0.20490   0.62261   0.71819   0.00000  Uiso   1.00
C986   C     0.35052   0.87542   0.89372   0.00000  Uiso   1.00
C987   C     0.13141   0.79247   0.94337   0.00000  Uiso   1.00
C988   C     0.39641   0.69629   0.95322   0.00000  Uiso   1.00
C989   C     0.37085   0.81330   0.73111   0.00000  Uiso   1.00
C990   C     0.12214   0.71952   0.72049   0.00000  Uiso   1.00
C991   C     0.22389   0.89538   0.80009   0.00000  Uiso   1.00
C992   C     0.24893   0.60279   0.78985   0.00000  Uiso   1.00
C993   C     0.27614   0.89532   0.86651   0.00000  Uiso   1.00
C994   C     0.25057   0.55212   0.87688   0.00000  Uiso   1.00
C995   C     0.22438   0.94589   0.79899   0.00000  Uiso   1.00
C996   C     0.24941   0.55219   0.78983   0.00000  Uiso   1.00
Cu997  Cu    0.25000   0.79822   0.83333   0.00000  Uiso   1.00
Cu998  Cu    0.25000   0.70179   0.83333   0.00000  Uiso   1.00
F999   F     0.02687   0.81763   0.89129   0.00000  Uiso   1.00
F1000  F     0.47771   0.74146   0.92061   0.00000  Uiso   1.00
F1001  F     0.47204   0.76889   0.74688   0.00000  Uiso   1.00
F1002  F     0.02243   0.69047   0.77370   0.00000  Uiso   1.00
H1003  H     0.25093   0.53332   0.91180   0.00000  Uiso   1.00
H1004  H     0.13911   0.91229   0.76077   0.00000  Uiso   1.00
H1005  H     0.14076   0.86936   0.81071   0.00000  Uiso   1.00
H1006  H     0.13179   0.84951   0.74821   0.00000  Uiso   1.00
H1007  H     0.27288   0.61395   0.72065   0.00000  Uiso   1.00
H1008  H     0.19835   0.58591   0.70438   0.00000  Uiso   1.00
H1009  H     0.20448   0.64767   0.68653   0.00000  Uiso   1.00
H1010  H     0.17836   0.63308   0.74367   0.00000  Uiso   1.00
H1011  H     0.29487   0.87629   0.93679   0.00000  Uiso   1.00
H1012  H     0.36132   0.91214   0.90361   0.00000  Uiso   1.00
H1013  H     0.35908   0.86807   0.85483   0.00000  Uiso   1.00
H1014  H     0.20395   0.96455   0.77198   0.00000  Uiso   1.00
H1015  H     0.36874   0.84968   0.91777   0.00000  Uiso   1.00
H1016  H     0.10457   0.84732   0.90128   0.00000  Uiso   1.00
H1017  H     0.14998   0.75880   0.93744   0.00000  Uiso   1.00
H1018  H     0.15310   0.81731   0.96465   0.00000  Uiso   1.00
H1019  H     0.10146   0.78484   0.96512   0.00000  Uiso   1.00
H1020  H     0.35202   0.74696   0.92527   0.00000  Uiso   1.00
H1021  H     0.37139   0.69043   0.98201   0.00000  Uiso   1.00
H1022  H     0.42881   0.70047   0.97255   0.00000  Uiso   1.00
H1023  H     0.39724   0.66446   0.92888   0.00000  Uiso   1.00
H1024  H     0.39343   0.74543   0.71623   0.00000  Uiso   1.00
H1025  H     0.24959   0.53343   0.75495   0.00000  Uiso   1.00
H1026  H     0.40210   0.83240   0.72294   0.00000  Uiso   1.00
H1027  H     0.35354   0.83220   0.76104   0.00000  Uiso   1.00
H1028  H     0.34912   0.81383   0.69762   0.00000  Uiso   1.00
H1029  H     0.09877   0.66081   0.75828   0.00000  Uiso   1.00
H1030  H     0.13873   0.69615   0.69359   0.00000  Uiso   1.00
H1031  H     0.14397   0.75062   0.72830   0.00000  Uiso   1.00
H1032  H     0.09041   0.73211   0.70357   0.00000  Uiso   1.00
H1033  H     0.29597   0.96443   0.89463   0.00000  Uiso   1.00
H1034  H     0.23362   0.61018   0.94890   0.00000  Uiso   1.00
H1035  H     0.31276   0.59133   0.95142   0.00000  Uiso   1.00
H1036  H     0.30018   0.64919   0.97698   0.00000  Uiso   1.00
H1037  H     0.32116   0.64510   0.91544   0.00000  Uiso   1.00
H1038  H     0.20601   0.87607   0.72967   0.00000  Uiso   1.00
N1039  N     0.25000   0.62935   0.83333   0.00000  Uiso   1.00
N1040  N     0.11378   0.69323   0.76530   0.00000  Uiso   1.00
N1041  N     0.25000   0.87066   0.83333   0.00000  Uiso   1.00
N1042  N     0.25480   0.62462   0.92357   0.00000  Uiso   1.00
N1043  N     0.19694   0.87008   0.76558   0.00000  Uiso   1.00
N1044  N     0.24762   0.62488   0.74304   0.00000  Uiso   1.00
N1045  N     0.30341   0.86999   0.90077   0.00000  Uiso   1.00
N1046  N     0.11875   0.81414   0.89680   0.00000  Uiso   1.00
N1047  N     0.38528   0.73880   0.92512   0.00000  Uiso   1.00
N1048  N     0.38015   0.76437   0.74492   0.00000  Uiso   1.00
O1049  O     0.18573   0.79072   0.83334   0.00000  Uiso   1.00
O1050  O     0.31427   0.70929   0.83333   0.00000  Uiso   1.00
O1051  O     0.31427   0.79072   0.83333   0.00000  Uiso   1.00
O1052  O     0.18573   0.70929   0.83334   0.00000  Uiso   1.00
O1053  O     0.25000   0.79071   0.76280   0.00000  Uiso   1.00
O1054  O     0.25000   0.70929   0.90387   0.00000  Uiso   1.00
O1055  O     0.25000   0.79071   0.90387   0.00000  Uiso   1.00
O1056  O     0.25000   0.70929   0.76280   0.00000  Uiso   1.00
C1057  C     0.66507   0.75015   0.83327   0.00000  Uiso   1.00
C1058  C     0.77550   0.94582   0.86767   0.00000  Uiso   1.00
C1059  C     0.74999   0.75002   0.74030   0.00000  Uiso   1.00
C1060  C     0.75013   0.74999   0.92637   0.00000  Uiso   1.00
C1061  C     0.74983   0.52598   0.83337   0.00000  Uiso   1.00
C1062  C     0.74988   0.97198   0.83337   0.00000  Uiso   1.00
C1063  C     0.75007   0.75003   0.68855   0.00000  Uiso   1.00
C1064  C     0.75013   0.74998   0.97812   0.00000  Uiso   1.00
C1065  C     0.54820   0.78521   0.86305   0.00000  Uiso   1.00
C1066  C     0.95352   0.74644   0.87820   0.00000  Uiso   1.00
C1067  C     0.95093   0.76028   0.78976   0.00000  Uiso   1.00
C1068  C     0.83475   0.75010   0.83381   0.00000  Uiso   1.00
C1069  C     0.54593   0.72116   0.80283   0.00000  Uiso   1.00
C1070  C     0.59448   0.78337   0.86441   0.00000  Uiso   1.00
C1071  C     0.90714   0.74461   0.87917   0.00000  Uiso   1.00
C1072  C     0.90473   0.75910   0.78992   0.00000  Uiso   1.00
C1073  C     0.59216   0.72096   0.80150   0.00000  Uiso   1.00
C1074  C     0.61662   0.75102   0.83350   0.00000  Uiso   1.00
C1075  C     0.88288   0.75088   0.83446   0.00000  Uiso   1.00
C1076  C     0.52391   0.75351   0.83312   0.00000  Uiso   1.00
C1077  C     0.97532   0.75373   0.83370   0.00000  Uiso   1.00
C1078  C     0.79968   0.62754   0.94277   0.00000  Uiso   1.00
C1079  C     0.75139   0.60272   0.87681   0.00000  Uiso   1.00
C1080  C     0.64975   0.87578   0.77179   0.00000  Uiso   1.00
C1081  C     0.70490   0.62261   0.71819   0.00000  Uiso   1.00
C1082  C     0.85052   0.87542   0.89372   0.00000  Uiso   1.00
C1083  C     0.63141   0.79247   0.94337   0.00000  Uiso   1.00
C1084  C     0.89641   0.69629   0.95322   0.00000  Uiso   1.00
C1085  C     0.87085   0.81330   0.73111   0.00000  Uiso   1.00
C1086  C     0.62214   0.71952   0.72049   0.00000  Uiso   1.00
C1087  C     0.72389   0.89538   0.80009   0.00000  Uiso   1.00
C1088  C     0.74893   0.60279   0.78985   0.00000  Uiso   1.00
C1089  C     0.77614   0.89532   0.86651   0.00000  Uiso   1.00
C1090  C     0.75057   0.55212   0.87688   0.00000  Uiso   1.00
C1091  C     0.72438   0.94589   0.79899   0.00000  Uiso   1.00
C1092  C     0.74941   0.55219   0.78983   0.00000  Uiso   1.00
Cu1093 Cu    0.75000   0.79822   0.83333   0.00000  Uiso   1.00
Cu1094 Cu    0.75000   0.70179   0.83333   0.00000  Uiso   1.00
F1095  F     0.52687   0.81763   0.89129   0.00000  Uiso   1.00
F1096  F     0.97771   0.74146   0.92061   0.00000  Uiso   1.00
F1097  F     0.97204   0.76889   0.74688   0.00000  Uiso   1.00
F1098  F     0.52243   0.69047   0.77370   0.00000  Uiso   1.00
H1099  H     0.75093   0.53332   0.91180   0.00000  Uiso   1.00
H1100  H     0.63911   0.91229   0.76077   0.00000  Uiso   1.00
H1101  H     0.64076   0.86936   0.81071   0.00000  Uiso   1.00
H1102  H     0.63179   0.84951   0.74821   0.00000  Uiso   1.00
H1103  H     0.77288   0.61395   0.72065   0.00000  Uiso   1.00
H1104  H     0.69835   0.58591   0.70438   0.00000  Uiso   1.00
H1105  H     0.70448   0.64767   0.68653   0.00000  Uiso   1.00
H1106  H     0.67836   0.63308   0.74367   0.00000  Uiso   1.00
H1107  H     0.79487   0.87629   0.93679   0.00000  Uiso   1.00
H1108  H     0.86132   0.91214   0.90361   0.00000  Uiso   1.00
H1109  H     0.85908   0.86807   0.85483   0.00000  Uiso   1.00
H1110  H     0.70395   0.96455   0.77198   0.00000  Uiso   1.00
H1111  H     0.86874   0.84968   0.91777   0.00000  Uiso   1.00
H1112  H     0.60457   0.84732   0.90128   0.00000  Uiso   1.00
H1113  H     0.64998   0.75880   0.93744   0.00000  Uiso   1.00
H1114  H     0.65310   0.81731   0.96465   0.00000  Uiso   1.00
H1115  H     0.60146   0.78484   0.96512   0.00000  Uiso   1.00
H1116  H     0.85202   0.74696   0.92527   0.00000  Uiso   1.00
H1117  H     0.87139   0.69043   0.98201   0.00000  Uiso   1.00
H1118  H     0.92881   0.70047   0.97255   0.00000  Uiso   1.00
H1119  H     0.89724   0.66446   0.92888   0.00000  Uiso   1.00
H1120  H     0.89343   0.74543   0.71623   0.00000  Uiso   1.00
H1121  H     0.74959   0.53343   0.75495   0.00000  Uiso   1.00
H1122  H     0.90210   0.83240   0.72294   0.00000  Uiso   1.00
H1123  H     0.85354   0.83220   0.76104   0.00000  Uiso   1.00
H1124  H     0.84912   0.81383   0.69762   0.00000  Uiso   1.00
H1125  H     0.59877   0.66081   0.75828   0.00000  Uiso   1.00
H1126  H     0.63873   0.69615   0.69359   0.00000  Uiso   1.00
H1127  H     0.64397   0.75062   0.72830   0.00000  Uiso   1.00
H1128  H     0.59041   0.73211   0.70357   0.00000  Uiso   1.00
H1129  H     0.79597   0.96443   0.89463   0.00000  Uiso   1.00
H1130  H     0.73362   0.61018   0.94890   0.00000  Uiso   1.00
H1131  H     0.81276   0.59133   0.95142   0.00000  Uiso   1.00
H1132  H     0.80018   0.64919   0.97698   0.00000  Uiso   1.00
H1133  H     0.82116   0.64510   0.91544   0.00000  Uiso   1.00
H1134  H     0.70601   0.87607   0.72967   0.00000  Uiso   1.00
N1135  N     0.75000   0.62935   0.83333   0.00000  Uiso   1.00
N1136  N     0.61378   0.69323   0.76530   0.00000  Uiso   1.00
N1137  N     0.75000   0.87066   0.83333   0.00000  Uiso   1.00
N1138  N     0.75480   0.62462   0.92357   0.00000  Uiso   1.00
N1139  N     0.69694   0.87008   0.76558   0.00000  Uiso   1.00
N1140  N     0.74762   0.62488   0.74304   0.00000  Uiso   1.00
N1141  N     0.80341   0.86999   0.90077   0.00000  Uiso   1.00
N1142  N     0.61875   0.81414   0.89680   0.00000  Uiso   1.00
N1143  N     0.88528   0.73880   0.92512   0.00000  Uiso   1.00
N1144  N     0.88015   0.76437   0.74492   0.00000  Uiso   1.00
O1145  O     0.68573   0.79072   0.83334   0.00000  Uiso   1.00
O1146  O     0.81427   0.70929   0.83333   0.00000  Uiso   1.00
O1147  O     0.81427   0.79072   0.83333   0.00000  Uiso   1.00
O1148  O     0.68573   0.70929   0.83334   0.00000  Uiso   1.00
O1149  O     0.75000   0.79071   0.76280   0.00000  Uiso   1.00
O1150  O     0.75000   0.70929   0.90387   0.00000  Uiso   1.00
O1151  O     0.75000   0.79071   0.90387   0.00000  Uiso   1.00
O1152  O     0.75000   0.70929   0.76280   0.00000  Uiso   1.00
loop_
_geom_bond_atom_site_label_1
_geom_bond_atom_site_label_2
_geom_bond_distance
_geom_bond_site_symmetry_2
_ccdc_geom_bond_type
C1     C18     1.464   .     S
C1     O92     1.304   .     A
C1     O89     1.297   .     A
C2     C6      1.404   .     A
C2     H73     1.083   .     S
C2     C33     1.415   .     A
C3     C7      1.405   .     S
C3     O96     1.294   .     A
C3     O93     1.294   .     A
C4     C8      1.405   .     S
C4     O95     1.293   .     A
C4     O94     1.294   .     A
C5     C36     1.390   .     A
C5     C34     1.390   .     A
C5     C198    1.513   1_545 S
C6     C35     1.404   .     A
C6     C197    1.513   .     S
C7     C776    1.188   1_554 S
C8     C391    1.188   .     S
C9     F39     1.359   .     S
C9     C14     1.398   .     A
C9     C20     1.402   .     A
C10    C15     1.402   .     A
C10    F40     1.358   .     S
C10    C21     1.402   .     A
C11    C21     1.401   .     A
C11    C16     1.396   .     A
C11    F41     1.359   .     S
C12    O91     1.295   .     A
C12    O90     1.300   .     A
C12    C19     1.454   .     S
C13    F42     1.360   .     S
C13    C20     1.401   .     A
C13    C17     1.397   .     A
C14    C18     1.413   .     A
C14    N86     1.425   .     S
C15    C19     1.416   .     A
C15    N87     1.432   .     S
C16    C19     1.408   .     A
C16    N88     1.424   .     S
C17    N80     1.422   .     S
C17    C18     1.409   .     A
C20    C117    1.468   1_455 S
C21    C116    1.468   .     S
C22    H76     1.109   .     S
C22    N82     1.445   .     S
C22    H75     1.112   .     S
C22    H77     1.110   .     S
C23    N82     1.412   .     S
C23    C34     1.418   .     A
C23    N79     1.395   .     A
C24    H45     1.110   .     S
C24    N83     1.447   .     S
C24    H44     1.111   .     S
C24    H46     1.110   .     S
C25    H50     1.109   .     S
C25    N84     1.446   .     S
C25    H48     1.111   .     S
C25    H49     1.109   .     S
C26    H55     1.110   .     S
C26    N85     1.448   .     S
C26    H52     1.111   .     S
C26    H53     1.111   .     S
C27    H57     1.111   .     S
C27    N86     1.446   .     S
C27    H58     1.110   .     S
C27    H59     1.111   .     S
C28    H61     1.110   .     S
C28    N87     1.449   .     S
C28    H63     1.111   .     S
C28    H62     1.107   .     S
C29    H68     1.111   .     S
C29    N88     1.446   .     S
C29    H67     1.110   .     S
C29    H66     1.111   .     S
C30    H71     1.111   .     S
C30    N80     1.448   .     S
C30    H70     1.108   .     S
C30    H72     1.111   .     S
C31    N83     1.419   .     S
C31    C35     1.415   .     A
C31    N81     1.373   .     A
C32    N84     1.412   .     S
C32    C36     1.418   .     A
C32    N79     1.396   .     A
C33    N85     1.419   .     S
C33    N81     1.373   .     A
C34    H43     1.084   .     S
C35    H54     1.083   .     S
C36    H65     1.084   .     S
Cu37   O95     1.926   .     S
Cu37   N81     2.029   .     S
Cu37   O91     1.952   .     S
Cu37   Cu38    2.701   .     S
Cu37   O93     1.926   .     S
Cu37   O89     1.953   .     S
Cu38   N79     2.029   .     S
Cu38   O92     1.952   .     S
Cu38   O94     1.926   .     S
Cu38   O90     1.953   .     S
Cu38   O96     1.926   .     S
H47    N84     1.031   .     S
H51    N85     1.031   .     S
H56    N86     1.032   .     S
H60    N87     1.030   .     S
H64    N88     1.031   .     S
H69    N80     1.032   .     S
H74    N82     1.031   .     S
H78    N83     1.031   .     S
C97    C114    1.464   .     S
C97    O188    1.304   .     A
C97    O185    1.297   .     A
C98    C102    1.404   .     A
C98    H169    1.083   .     S
C98    C129    1.415   .     A
C99    C103    1.405   .     S
C99    O192    1.294   .     A
C99    O189    1.294   .     A
C100   C104    1.405   .     S
C100   O191    1.293   .     A
C100   O190    1.294   .     A
C101   C132    1.390   .     A
C101   C130    1.390   .     A
C101   C294    1.513   1_545 S
C102   C131    1.404   .     A
C102   C293    1.513   .     S
C103   C872    1.188   1_554 S
C104   C487    1.188   .     S
C105   F135    1.359   .     S
C105   C110    1.398   .     A
C105   C116    1.402   .     A
C106   C111    1.402   .     A
C106   F136    1.358   .     S
C106   C117    1.402   .     A
C107   C117    1.401   .     A
C107   C112    1.396   .     A
C107   F137    1.359   .     S
C108   O187    1.295   .     A
C108   O186    1.300   .     A
C108   C115    1.454   .     S
C109   F138    1.360   .     S
C109   C116    1.401   .     A
C109   C113    1.397   .     A
C110   C114    1.413   .     A
C110   N182    1.425   .     S
C111   C115    1.416   .     A
C111   N183    1.432   .     S
C112   C115    1.408   .     A
C112   N184    1.424   .     S
C113   N176    1.422   .     S
C113   C114    1.409   .     A
C117   C20     1.468   1_655 S
C118   H172    1.109   .     S
C118   N178    1.445   .     S
C118   H171    1.112   .     S
C118   H173    1.110   .     S
C119   N178    1.412   .     S
C119   C130    1.418   .     A
C119   N175    1.395   .     A
C120   H141    1.110   .     S
C120   N179    1.447   .     S
C120   H140    1.111   .     S
C120   H142    1.110   .     S
C121   H146    1.109   .     S
C121   N180    1.446   .     S
C121   H144    1.111   .     S
C121   H145    1.109   .     S
C122   H151    1.110   .     S
C122   N181    1.448   .     S
C122   H148    1.111   .     S
C122   H149    1.111   .     S
C123   H153    1.111   .     S
C123   N182    1.446   .     S
C123   H154    1.110   .     S
C123   H155    1.111   .     S
C124   H157    1.110   .     S
C124   N183    1.449   .     S
C124   H159    1.111   .     S
C124   H158    1.107   .     S
C125   H164    1.111   .     S
C125   N184    1.446   .     S
C125   H163    1.110   .     S
C125   H162    1.111   .     S
C126   H167    1.111   .     S
C126   N176    1.448   .     S
C126   H166    1.108   .     S
C126   H168    1.111   .     S
C127   N179    1.419   .     S
C127   C131    1.415   .     A
C127   N177    1.373   .     A
C128   N180    1.412   .     S
C128   C132    1.418   .     A
C128   N175    1.396   .     A
C129   N181    1.419   .     S
C129   N177    1.373   .     A
C130   H139    1.084   .     S
C131   H150    1.083   .     S
C132   H161    1.084   .     S
Cu133  O191    1.926   .     S
Cu133  N177    2.029   .     S
Cu133  O187    1.952   .     S
Cu133  Cu134   2.701   .     S
Cu133  O189    1.926   .     S
Cu133  O185    1.953   .     S
Cu134  N175    2.029   .     S
Cu134  O188    1.952   .     S
Cu134  O190    1.926   .     S
Cu134  O186    1.953   .     S
Cu134  O192    1.926   .     S
H143   N180    1.031   .     S
H147   N181    1.031   .     S
H152   N182    1.032   .     S
H156   N183    1.030   .     S
H160   N184    1.031   .     S
H165   N176    1.032   .     S
H170   N178    1.031   .     S
H174   N179    1.031   .     S
C193   C210    1.464   .     S
C193   O284    1.304   .     A
C193   O281    1.297   .     A
C194   C198    1.404   .     A
C194   H265    1.083   .     S
C194   C225    1.415   .     A
C195   C199    1.405   .     S
C195   O288    1.294   .     A
C195   O285    1.294   .     A
C196   C200    1.405   .     S
C196   O287    1.293   .     A
C196   O286    1.294   .     A
C197   C228    1.390   .     A
C197   C226    1.390   .     A
C198   C227    1.404   .     A
C198   C5      1.513   1_565 S
C199   C968    1.188   1_554 S
C200   C583    1.188   .     S
C201   F231    1.359   .     S
C201   C206    1.398   .     A
C201   C212    1.402   .     A
C202   C207    1.402   .     A
C202   F232    1.358   .     S
C202   C213    1.402   .     A
C203   C213    1.401   .     A
C203   C208    1.396   .     A
C203   F233    1.359   .     S
C204   O283    1.295   .     A
C204   O282    1.300   .     A
C204   C211    1.454   .     S
C205   F234    1.360   .     S
C205   C212    1.401   .     A
C205   C209    1.397   .     A
C206   C210    1.413   .     A
C206   N278    1.425   .     S
C207   C211    1.416   .     A
C207   N279    1.432   .     S
C208   C211    1.408   .     A
C208   N280    1.424   .     S
C209   N272    1.422   .     S
C209   C210    1.409   .     A
C212   C309    1.468   1_455 S
C213   C308    1.468   .     S
C214   H268    1.109   .     S
C214   N274    1.445   .     S
C214   H267    1.112   .     S
C214   H269    1.110   .     S
C215   N274    1.412   .     S
C215   C226    1.418   .     A
C215   N271    1.395   .     A
C216   H237    1.110   .     S
C216   N275    1.447   .     S
C216   H236    1.111   .     S
C216   H238    1.110   .     S
C217   H242    1.109   .     S
C217   N276    1.446   .     S
C217   H240    1.111   .     S
C217   H241    1.109   .     S
C218   H247    1.110   .     S
C218   N277    1.448   .     S
C218   H244    1.111   .     S
C218   H245    1.111   .     S
C219   H249    1.111   .     S
C219   N278    1.446   .     S
C219   H250    1.110   .     S
C219   H251    1.111   .     S
C220   H253    1.110   .     S
C220   N279    1.449   .     S
C220   H255    1.111   .     S
C220   H254    1.107   .     S
C221   H260    1.111   .     S
C221   N280    1.446   .     S
C221   H259    1.110   .     S
C221   H258    1.111   .     S
C222   H263    1.111   .     S
C222   N272    1.448   .     S
C222   H262    1.108   .     S
C222   H264    1.111   .     S
C223   N275    1.419   .     S
C223   C227    1.415   .     A
C223   N273    1.373   .     A
C224   N276    1.412   .     S
C224   C228    1.418   .     A
C224   N271    1.396   .     A
C225   N277    1.419   .     S
C225   N273    1.373   .     A
C226   H235    1.084   .     S
C227   H246    1.083   .     S
C228   H257    1.084   .     S
Cu229  O287    1.926   .     S
Cu229  N273    2.029   .     S
Cu229  O283    1.952   .     S
Cu229  Cu230   2.701   .     S
Cu229  O285    1.926   .     S
Cu229  O281    1.953   .     S
Cu230  N271    2.029   .     S
Cu230  O284    1.952   .     S
Cu230  O286    1.926   .     S
Cu230  O282    1.953   .     S
Cu230  O288    1.926   .     S
H239   N276    1.031   .     S
H243   N277    1.031   .     S
H248   N278    1.032   .     S
H252   N279    1.030   .     S
H256   N280    1.031   .     S
H261   N272    1.032   .     S
H266   N274    1.031   .     S
H270   N275    1.031   .     S
C289   C306    1.464   .     S
C289   O380    1.304   .     A
C289   O377    1.297   .     A
C290   C294    1.404   .     A
C290   H361    1.083   .     S
C290   C321    1.415   .     A
C291   C295    1.405   .     S
C291   O384    1.294   .     A
C291   O381    1.294   .     A
C292   C296    1.405   .     S
C292   O383    1.293   .     A
C292   O382    1.294   .     A
C293   C324    1.390   .     A
C293   C322    1.390   .     A
C294   C323    1.404   .     A
C294   C101    1.513   1_565 S
C295   C1064   1.188   1_554 S
C296   C679    1.188   .     S
C297   F327    1.359   .     S
C297   C302    1.398   .     A
C297   C308    1.402   .     A
C298   C303    1.402   .     A
C298   F328    1.358   .     S
C298   C309    1.402   .     A
C299   C309    1.401   .     A
C299   C304    1.396   .     A
C299   F329    1.359   .     S
C300   O379    1.295   .     A
C300   O378    1.300   .     A
C300   C307    1.454   .     S
C301   F330    1.360   .     S
C301   C308    1.401   .     A
C301   C305    1.397   .     A
C302   C306    1.413   .     A
C302   N374    1.425   .     S
C303   C307    1.416   .     A
C303   N375    1.432   .     S
C304   C307    1.408   .     A
C304   N376    1.424   .     S
C305   N368    1.422   .     S
C305   C306    1.409   .     A
C309   C212    1.468   1_655 S
C310   H364    1.109   .     S
C310   N370    1.445   .     S
C310   H363    1.112   .     S
C310   H365    1.110   .     S
C311   N370    1.412   .     S
C311   C322    1.418   .     A
C311   N367    1.395   .     A
C312   H333    1.110   .     S
C312   N371    1.447   .     S
C312   H332    1.111   .     S
C312   H334    1.110   .     S
C313   H338    1.109   .     S
C313   N372    1.446   .     S
C313   H336    1.111   .     S
C313   H337    1.109   .     S
C314   H343    1.110   .     S
C314   N373    1.448   .     S
C314   H340    1.111   .     S
C314   H341    1.111   .     S
C315   H345    1.111   .     S
C315   N374    1.446   .     S
C315   H346    1.110   .     S
C315   H347    1.111   .     S
C316   H349    1.110   .     S
C316   N375    1.449   .     S
C316   H351    1.111   .     S
C316   H350    1.107   .     S
C317   H356    1.111   .     S
C317   N376    1.446   .     S
C317   H355    1.110   .     S
C317   H354    1.111   .     S
C318   H359    1.111   .     S
C318   N368    1.448   .     S
C318   H358    1.108   .     S
C318   H360    1.111   .     S
C319   N371    1.419   .     S
C319   C323    1.415   .     A
C319   N369    1.373   .     A
C320   N372    1.412   .     S
C320   C324    1.418   .     A
C320   N367    1.396   .     A
C321   N373    1.419   .     S
C321   N369    1.373   .     A
C322   H331    1.084   .     S
C323   H342    1.083   .     S
C324   H353    1.084   .     S
Cu325  O383    1.926   .     S
Cu325  N369    2.029   .     S
Cu325  O379    1.952   .     S
Cu325  Cu326   2.701   .     S
Cu325  O381    1.926   .     S
Cu325  O377    1.953   .     S
Cu326  N367    2.029   .     S
Cu326  O380    1.952   .     S
Cu326  O382    1.926   .     S
Cu326  O378    1.953   .     S
Cu326  O384    1.926   .     S
H335   N372    1.031   .     S
H339   N373    1.031   .     S
H344   N374    1.032   .     S
H348   N375    1.030   .     S
H352   N376    1.031   .     S
H357   N368    1.032   .     S
H362   N370    1.031   .     S
H366   N371    1.031   .     S
C385   C402    1.464   .     S
C385   O476    1.304   .     A
C385   O473    1.297   .     A
C386   C390    1.404   .     A
C386   H457    1.083   .     S
C386   C417    1.415   .     A
C387   C391    1.405   .     S
C387   O480    1.294   .     A
C387   O477    1.294   .     A
C388   C392    1.405   .     S
C388   O479    1.293   .     A
C388   O478    1.294   .     A
C389   C420    1.390   .     A
C389   C418    1.390   .     A
C389   C582    1.513   1_545 S
C390   C419    1.404   .     A
C390   C581    1.513   .     S
C392   C775    1.188   .     S
C393   F423    1.359   .     S
C393   C398    1.398   .     A
C393   C404    1.402   .     A
C394   C399    1.402   .     A
C394   F424    1.358   .     S
C394   C405    1.402   .     A
C395   C405    1.401   .     A
C395   C400    1.396   .     A
C395   F425    1.359   .     S
C396   O475    1.295   .     A
C396   O474    1.300   .     A
C396   C403    1.454   .     S
C397   F426    1.360   .     S
C397   C404    1.401   .     A
C397   C401    1.397   .     A
C398   C402    1.413   .     A
C398   N470    1.425   .     S
C399   C403    1.416   .     A
C399   N471    1.432   .     S
C400   C403    1.408   .     A
C400   N472    1.424   .     S
C401   N464    1.422   .     S
C401   C402    1.409   .     A
C404   C501    1.468   1_455 S
C405   C500    1.468   .     S
C406   H460    1.109   .     S
C406   N466    1.445   .     S
C406   H459    1.112   .     S
C406   H461    1.110   .     S
C407   N466    1.412   .     S
C407   C418    1.418   .     A
C407   N463    1.395   .     A
C408   H429    1.110   .     S
C408   N467    1.447   .     S
C408   H428    1.111   .     S
C408   H430    1.110   .     S
C409   H434    1.109   .     S
C409   N468    1.446   .     S
C409   H432    1.111   .     S
C409   H433    1.109   .     S
C410   H439    1.110   .     S
C410   N469    1.448   .     S
C410   H436    1.111   .     S
C410   H437    1.111   .     S
C411   H441    1.111   .     S
C411   N470    1.446   .     S
C411   H442    1.110   .     S
C411   H443    1.111   .     S
C412   H445    1.110   .     S
C412   N471    1.449   .     S
C412   H447    1.111   .     S
C412   H446    1.107   .     S
C413   H452    1.111   .     S
C413   N472    1.446   .     S
C413   H451    1.110   .     S
C413   H450    1.111   .     S
C414   H455    1.111   .     S
C414   N464    1.448   .     S
C414   H454    1.108   .     S
C414   H456    1.111   .     S
C415   N467    1.419   .     S
C415   C419    1.415   .     A
C415   N465    1.373   .     A
C416   N468    1.412   .     S
C416   C420    1.418   .     A
C416   N463    1.396   .     A
C417   N469    1.419   .     S
C417   N465    1.373   .     A
C418   H427    1.084   .     S
C419   H438    1.083   .     S
C420   H449    1.084   .     S
Cu421  O479    1.926   .     S
Cu421  N465    2.029   .     S
Cu421  O475    1.952   .     S
Cu421  Cu422   2.701   .     S
Cu421  O477    1.926   .     S
Cu421  O473    1.953   .     S
Cu422  N463    2.029   .     S
Cu422  O476    1.952   .     S
Cu422  O478    1.926   .     S
Cu422  O474    1.953   .     S
Cu422  O480    1.926   .     S
H431   N468    1.031   .     S
H435   N469    1.031   .     S
H440   N470    1.032   .     S
H444   N471    1.030   .     S
H448   N472    1.031   .     S
H453   N464    1.032   .     S
H458   N466    1.031   .     S
H462   N467    1.031   .     S
C481   C498    1.464   .     S
C481   O572    1.304   .     A
C481   O569    1.297   .     A
C482   C486    1.404   .     A
C482   H553    1.083   .     S
C482   C513    1.415   .     A
C483   C487    1.405   .     S
C483   O576    1.294   .     A
C483   O573    1.294   .     A
C484   C488    1.405   .     S
C484   O575    1.293   .     A
C484   O574    1.294   .     A
C485   C516    1.390   .     A
C485   C514    1.390   .     A
C485   C678    1.513   1_545 S
C486   C515    1.404   .     A
C486   C677    1.513   .     S
C488   C871    1.188   .     S
C489   F519    1.359   .     S
C489   C494    1.398   .     A
C489   C500    1.402   .     A
C490   C495    1.402   .     A
C490   F520    1.358   .     S
C490   C501    1.402   .     A
C491   C501    1.401   .     A
C491   C496    1.396   .     A
C491   F521    1.359   .     S
C492   O571    1.295   .     A
C492   O570    1.300   .     A
C492   C499    1.454   .     S
C493   F522    1.360   .     S
C493   C500    1.401   .     A
C493   C497    1.397   .     A
C494   C498    1.413   .     A
C494   N566    1.425   .     S
C495   C499    1.416   .     A
C495   N567    1.432   .     S
C496   C499    1.408   .     A
C496   N568    1.424   .     S
C497   N560    1.422   .     S
C497   C498    1.409   .     A
C501   C404    1.468   1_655 S
C502   H556    1.109   .     S
C502   N562    1.445   .     S
C502   H555    1.112   .     S
C502   H557    1.110   .     S
C503   N562    1.412   .     S
C503   C514    1.418   .     A
C503   N559    1.395   .     A
C504   H525    1.110   .     S
C504   N563    1.447   .     S
C504   H524    1.111   .     S
C504   H526    1.110   .     S
C505   H530    1.109   .     S
C505   N564    1.446   .     S
C505   H528    1.111   .     S
C505   H529    1.109   .     S
C506   H535    1.110   .     S
C506   N565    1.448   .     S
C506   H532    1.111   .     S
C506   H533    1.111   .     S
C507   H537    1.111   .     S
C507   N566    1.446   .     S
C507   H538    1.110   .     S
C507   H539    1.111   .     S
C508   H541    1.110   .     S
C508   N567    1.449   .     S
C508   H543    1.111   .     S
C508   H542    1.107   .     S
C509   H548    1.111   .     S
C509   N568    1.446   .     S
C509   H547    1.110   .     S
C509   H546    1.111   .     S
C510   H551    1.111   .     S
C510   N560    1.448   .     S
C510   H550    1.108   .     S
C510   H552    1.111   .     S
C511   N563    1.419   .     S
C511   C515    1.415   .     A
C511   N561    1.373   .     A
C512   N564    1.412   .     S
C512   C516    1.418   .     A
C512   N559    1.396   .     A
C513   N565    1.419   .     S
C513   N561    1.373   .     A
C514   H523    1.084   .     S
C515   H534    1.083   .     S
C516   H545    1.084   .     S
Cu517  O575    1.926   .     S
Cu517  N561    2.029   .     S
Cu517  O571    1.952   .     S
Cu517  Cu518   2.701   .     S
Cu517  O573    1.926   .     S
Cu517  O569    1.953   .     S
Cu518  N559    2.029   .     S
Cu518  O572    1.952   .     S
Cu518  O574    1.926   .     S
Cu518  O570    1.953   .     S
Cu518  O576    1.926   .     S
H527   N564    1.031   .     S
H531   N565    1.031   .     S
H536   N566    1.032   .     S
H540   N567    1.030   .     S
H544   N568    1.031   .     S
H549   N560    1.032   .     S
H554   N562    1.031   .     S
H558   N563    1.031   .     S
C577   C594    1.464   .     S
C577   O668    1.304   .     A
C577   O665    1.297   .     A
C578   C582    1.404   .     A
C578   H649    1.083   .     S
C578   C609    1.415   .     A
C579   C583    1.405   .     S
C579   O672    1.294   .     A
C579   O669    1.294   .     A
C580   C584    1.405   .     S
C580   O671    1.293   .     A
C580   O670    1.294   .     A
C581   C612    1.390   .     A
C581   C610    1.390   .     A
C582   C611    1.404   .     A
C582   C389    1.513   1_565 S
C584   C967    1.188   .     S
C585   F615    1.359   .     S
C585   C590    1.398   .     A
C585   C596    1.402   .     A
C586   C591    1.402   .     A
C586   F616    1.358   .     S
C586   C597    1.402   .     A
C587   C597    1.401   .     A
C587   C592    1.396   .     A
C587   F617    1.359   .     S
C588   O667    1.295   .     A
C588   O666    1.300   .     A
C588   C595    1.454   .     S
C589   F618    1.360   .     S
C589   C596    1.401   .     A
C589   C593    1.397   .     A
C590   C594    1.413   .     A
C590   N662    1.425   .     S
C591   C595    1.416   .     A
C591   N663    1.432   .     S
C592   C595    1.408   .     A
C592   N664    1.424   .     S
C593   N656    1.422   .     S
C593   C594    1.409   .     A
C596   C693    1.468   1_455 S
C597   C692    1.468   .     S
C598   H652    1.109   .     S
C598   N658    1.445   .     S
C598   H651    1.112   .     S
C598   H653    1.110   .     S
C599   N658    1.412   .     S
C599   C610    1.418   .     A
C599   N655    1.395   .     A
C600   H621    1.110   .     S
C600   N659    1.447   .     S
C600   H620    1.111   .     S
C600   H622    1.110   .     S
C601   H626    1.109   .     S
C601   N660    1.446   .     S
C601   H624    1.111   .     S
C601   H625    1.109   .     S
C602   H631    1.110   .     S
C602   N661    1.448   .     S
C602   H628    1.111   .     S
C602   H629    1.111   .     S
C603   H633    1.111   .     S
C603   N662    1.446   .     S
C603   H634    1.110   .     S
C603   H635    1.111   .     S
C604   H637    1.110   .     S
C604   N663    1.449   .     S
C604   H639    1.111   .     S
C604   H638    1.107   .     S
C605   H644    1.111   .     S
C605   N664    1.446   .     S
C605   H643    1.110   .     S
C605   H642    1.111   .     S
C606   H647    1.111   .     S
C606   N656    1.448   .     S
C606   H646    1.108   .     S
C606   H648    1.111   .     S
C607   N659    1.419   .     S
C607   C611    1.415   .     A
C607   N657    1.373   .     A
C608   N660    1.412   .     S
C608   C612    1.418   .     A
C608   N655    1.396   .     A
C609   N661    1.419   .     S
C609   N657    1.373   .     A
C610   H619    1.084   .     S
C611   H630    1.083   .     S
C612   H641    1.084   .     S
Cu613  O671    1.926   .     S
Cu613  N657    2.029   .     S
Cu613  O667    1.952   .     S
Cu613  Cu614   2.701   .     S
Cu613  O669    1.926   .     S
Cu613  O665    1.953   .     S
Cu614  N655    2.029   .     S
Cu614  O668    1.952   .     S
Cu614  O670    1.926   .     S
Cu614  O666    1.953   .     S
Cu614  O672    1.926   .     S
H623   N660    1.031   .     S
H627   N661    1.031   .     S
H632   N662    1.032   .     S
H636   N663    1.030   .     S
H640   N664    1.031   .     S
H645   N656    1.032   .     S
H650   N658    1.031   .     S
H654   N659    1.031   .     S
C673   C690    1.464   .     S
C673   O764    1.304   .     A
C673   O761    1.297   .     A
C674   C678    1.404   .     A
C674   H745    1.083   .     S
C674   C705    1.415   .     A
C675   C679    1.405   .     S
C675   O768    1.294   .     A
C675   O765    1.294   .     A
C676   C680    1.405   .     S
C676   O767    1.293   .     A
C676   O766    1.294   .     A
C677   C708    1.390   .     A
C677   C706    1.390   .     A
C678   C707    1.404   .     A
C678   C485    1.513   1_565 S
C680   C1063   1.188   .     S
C681   F711    1.359   .     S
C681   C686    1.398   .     A
C681   C692    1.402   .     A
C682   C687    1.402   .     A
C682   F712    1.358   .     S
C682   C693    1.402   .     A
C683   C693    1.401   .     A
C683   C688    1.396   .     A
C683   F713    1.359   .     S
C684   O763    1.295   .     A
C684   O762    1.300   .     A
C684   C691    1.454   .     S
C685   F714    1.360   .     S
C685   C692    1.401   .     A
C685   C689    1.397   .     A
C686   C690    1.413   .     A
C686   N758    1.425   .     S
C687   C691    1.416   .     A
C687   N759    1.432   .     S
C688   C691    1.408   .     A
C688   N760    1.424   .     S
C689   N752    1.422   .     S
C689   C690    1.409   .     A
C693   C596    1.468   1_655 S
C694   H748    1.109   .     S
C694   N754    1.445   .     S
C694   H747    1.112   .     S
C694   H749    1.110   .     S
C695   N754    1.412   .     S
C695   C706    1.418   .     A
C695   N751    1.395   .     A
C696   H717    1.110   .     S
C696   N755    1.447   .     S
C696   H716    1.111   .     S
C696   H718    1.110   .     S
C697   H722    1.109   .     S
C697   N756    1.446   .     S
C697   H720    1.111   .     S
C697   H721    1.109   .     S
C698   H727    1.110   .     S
C698   N757    1.448   .     S
C698   H724    1.111   .     S
C698   H725    1.111   .     S
C699   H729    1.111   .     S
C699   N758    1.446   .     S
C699   H730    1.110   .     S
C699   H731    1.111   .     S
C700   H733    1.110   .     S
C700   N759    1.449   .     S
C700   H735    1.111   .     S
C700   H734    1.107   .     S
C701   H740    1.111   .     S
C701   N760    1.446   .     S
C701   H739    1.110   .     S
C701   H738    1.111   .     S
C702   H743    1.111   .     S
C702   N752    1.448   .     S
C702   H742    1.108   .     S
C702   H744    1.111   .     S
C703   N755    1.419   .     S
C703   C707    1.415   .     A
C703   N753    1.373   .     A
C704   N756    1.412   .     S
C704   C708    1.418   .     A
C704   N751    1.396   .     A
C705   N757    1.419   .     S
C705   N753    1.373   .     A
C706   H715    1.084   .     S
C707   H726    1.083   .     S
C708   H737    1.084   .     S
Cu709  O767    1.926   .     S
Cu709  N753    2.029   .     S
Cu709  O763    1.952   .     S
Cu709  Cu710   2.701   .     S
Cu709  O765    1.926   .     S
Cu709  O761    1.953   .     S
Cu710  N751    2.029   .     S
Cu710  O764    1.952   .     S
Cu710  O766    1.926   .     S
Cu710  O762    1.953   .     S
Cu710  O768    1.926   .     S
H719   N756    1.031   .     S
H723   N757    1.031   .     S
H728   N758    1.032   .     S
H732   N759    1.030   .     S
H736   N760    1.031   .     S
H741   N752    1.032   .     S
H746   N754    1.031   .     S
H750   N755    1.031   .     S
C769   C786    1.464   .     S
C769   O860    1.304   .     A
C769   O857    1.297   .     A
C770   C774    1.404   .     A
C770   H841    1.083   .     S
C770   C801    1.415   .     A
C771   C775    1.405   .     S
C771   O864    1.294   .     A
C771   O861    1.294   .     A
C772   C776    1.405   .     S
C772   O863    1.293   .     A
C772   O862    1.294   .     A
C773   C804    1.390   .     A
C773   C802    1.390   .     A
C773   C966    1.513   1_545 S
C774   C803    1.404   .     A
C774   C965    1.513   .     S
C776   C7      1.188   1_556 S
C777   F807    1.359   .     S
C777   C782    1.398   .     A
C777   C788    1.402   .     A
C778   C783    1.402   .     A
C778   F808    1.358   .     S
C778   C789    1.402   .     A
C779   C789    1.401   .     A
C779   C784    1.396   .     A
C779   F809    1.359   .     S
C780   O859    1.295   .     A
C780   O858    1.300   .     A
C780   C787    1.454   .     S
C781   F810    1.360   .     S
C781   C788    1.401   .     A
C781   C785    1.397   .     A
C782   C786    1.413   .     A
C782   N854    1.425   .     S
C783   C787    1.416   .     A
C783   N855    1.432   .     S
C784   C787    1.408   .     A
C784   N856    1.424   .     S
C785   N848    1.422   .     S
C785   C786    1.409   .     A
C788   C885    1.468   1_455 S
C789   C884    1.468   .     S
C790   H844    1.109   .     S
C790   N850    1.445   .     S
C790   H843    1.112   .     S
C790   H845    1.110   .     S
C791   N850    1.412   .     S
C791   C802    1.418   .     A
C791   N847    1.395   .     A
C792   H813    1.110   .     S
C792   N851    1.447   .     S
C792   H812    1.111   .     S
C792   H814    1.110   .     S
C793   H818    1.109   .     S
C793   N852    1.446   .     S
C793   H816    1.111   .     S
C793   H817    1.109   .     S
C794   H823    1.110   .     S
C794   N853    1.448   .     S
C794   H820    1.111   .     S
C794   H821    1.111   .     S
C795   H825    1.111   .     S
C795   N854    1.446   .     S
C795   H826    1.110   .     S
C795   H827    1.111   .     S
C796   H829    1.110   .     S
C796   N855    1.449   .     S
C796   H831    1.111   .     S
C796   H830    1.107   .     S
C797   H836    1.111   .     S
C797   N856    1.446   .     S
C797   H835    1.110   .     S
C797   H834    1.111   .     S
C798   H839    1.111   .     S
C798   N848    1.448   .     S
C798   H838    1.108   .     S
C798   H840    1.111   .     S
C799   N851    1.419   .     S
C799   C803    1.415   .     A
C799   N849    1.373   .     A
C800   N852    1.412   .     S
C800   C804    1.418   .     A
C800   N847    1.396   .     A
C801   N853    1.419   .     S
C801   N849    1.373   .     A
C802   H811    1.084   .     S
C803   H822    1.083   .     S
C804   H833    1.084   .     S
Cu805  O863    1.926   .     S
Cu805  N849    2.029   .     S
Cu805  O859    1.952   .     S
Cu805  Cu806   2.701   .     S
Cu805  O861    1.926   .     S
Cu805  O857    1.953   .     S
Cu806  N847    2.029   .     S
Cu806  O860    1.952   .     S
Cu806  O862    1.926   .     S
Cu806  O858    1.953   .     S
Cu806  O864    1.926   .     S
H815   N852    1.031   .     S
H819   N853    1.031   .     S
H824   N854    1.032   .     S
H828   N855    1.030   .     S
H832   N856    1.031   .     S
H837   N848    1.032   .     S
H842   N850    1.031   .     S
H846   N851    1.031   .     S
C865   C882    1.464   .     S
C865   O956    1.304   .     A
C865   O953    1.297   .     A
C866   C870    1.404   .     A
C866   H937    1.083   .     S
C866   C897    1.415   .     A
C867   C871    1.405   .     S
C867   O960    1.294   .     A
C867   O957    1.294   .     A
C868   C872    1.405   .     S
C868   O959    1.293   .     A
C868   O958    1.294   .     A
C869   C900    1.390   .     A
C869   C898    1.390   .     A
C869   C1062   1.513   1_545 S
C870   C899    1.404   .     A
C870   C1061   1.513   .     S
C872   C103    1.188   1_556 S
C873   F903    1.359   .     S
C873   C878    1.398   .     A
C873   C884    1.402   .     A
C874   C879    1.402   .     A
C874   F904    1.358   .     S
C874   C885    1.402   .     A
C875   C885    1.401   .     A
C875   C880    1.396   .     A
C875   F905    1.359   .     S
C876   O955    1.295   .     A
C876   O954    1.300   .     A
C876   C883    1.454   .     S
C877   F906    1.360   .     S
C877   C884    1.401   .     A
C877   C881    1.397   .     A
C878   C882    1.413   .     A
C878   N950    1.425   .     S
C879   C883    1.416   .     A
C879   N951    1.432   .     S
C880   C883    1.408   .     A
C880   N952    1.424   .     S
C881   N944    1.422   .     S
C881   C882    1.409   .     A
C885   C788    1.468   1_655 S
C886   H940    1.109   .     S
C886   N946    1.445   .     S
C886   H939    1.112   .     S
C886   H941    1.110   .     S
C887   N946    1.412   .     S
C887   C898    1.418   .     A
C887   N943    1.395   .     A
C888   H909    1.110   .     S
C888   N947    1.447   .     S
C888   H908    1.111   .     S
C888   H910    1.110   .     S
C889   H914    1.109   .     S
C889   N948    1.446   .     S
C889   H912    1.111   .     S
C889   H913    1.109   .     S
C890   H919    1.110   .     S
C890   N949    1.448   .     S
C890   H916    1.111   .     S
C890   H917    1.111   .     S
C891   H921    1.111   .     S
C891   N950    1.446   .     S
C891   H922    1.110   .     S
C891   H923    1.111   .     S
C892   H925    1.110   .     S
C892   N951    1.449   .     S
C892   H927    1.111   .     S
C892   H926    1.107   .     S
C893   H932    1.111   .     S
C893   N952    1.446   .     S
C893   H931    1.110   .     S
C893   H930    1.111   .     S
C894   H935    1.111   .     S
C894   N944    1.448   .     S
C894   H934    1.108   .     S
C894   H936    1.111   .     S
C895   N947    1.419   .     S
C895   C899    1.415   .     A
C895   N945    1.373   .     A
C896   N948    1.412   .     S
C896   C900    1.418   .     A
C896   N943    1.396   .     A
C897   N949    1.419   .     S
C897   N945    1.373   .     A
C898   H907    1.084   .     S
C899   H918    1.083   .     S
C900   H929    1.084   .     S
Cu901  O959    1.926   .     S
Cu901  N945    2.029   .     S
Cu901  O955    1.952   .     S
Cu901  Cu902   2.701   .     S
Cu901  O957    1.926   .     S
Cu901  O953    1.953   .     S
Cu902  N943    2.029   .     S
Cu902  O956    1.952   .     S
Cu902  O958    1.926   .     S
Cu902  O954    1.953   .     S
Cu902  O960    1.926   .     S
H911   N948    1.031   .     S
H915   N949    1.031   .     S
H920   N950    1.032   .     S
H924   N951    1.030   .     S
H928   N952    1.031   .     S
H933   N944    1.032   .     S
H938   N946    1.031   .     S
H942   N947    1.031   .     S
C961   C978    1.464   .     S
C961   O1052   1.304   .     A
C961   O1049   1.297   .     A
C962   C966    1.404   .     A
C962   H1033   1.083   .     S
C962   C993    1.415   .     A
C963   C967    1.405   .     S
C963   O1056   1.294   .     A
C963   O1053   1.294   .     A
C964   C968    1.405   .     S
C964   O1055   1.293   .     A
C964   O1054   1.294   .     A
C965   C996    1.390   .     A
C965   C994    1.390   .     A
C966   C995    1.404   .     A
C966   C773    1.513   1_565 S
C968   C199    1.188   1_556 S
C969   F999    1.359   .     S
C969   C974    1.398   .     A
C969   C980    1.402   .     A
C970   C975    1.402   .     A
C970   F1000   1.358   .     S
C970   C981    1.402   .     A
C971   C981    1.401   .     A
C971   C976    1.396   .     A
C971   F1001   1.359   .     S
C972   O1051   1.295   .     A
C972   O1050   1.300   .     A
C972   C979    1.454   .     S
C973   F1002   1.360   .     S
C973   C980    1.401   .     A
C973   C977    1.397   .     A
C974   C978    1.413   .     A
C974   N1046   1.425   .     S
C975   C979    1.416   .     A
C975   N1047   1.432   .     S
C976   C979    1.408   .     A
C976   N1048   1.424   .     S
C977   N1040   1.422   .     S
C977   C978    1.409   .     A
C980   C1077   1.468   1_455 S
C981   C1076   1.468   .     S
C982   H1036   1.109   .     S
C982   N1042   1.445   .     S
C982   H1035   1.112   .     S
C982   H1037   1.110   .     S
C983   N1042   1.412   .     S
C983   C994    1.418   .     A
C983   N1039   1.395   .     A
C984   H1005   1.110   .     S
C984   N1043   1.447   .     S
C984   H1004   1.111   .     S
C984   H1006   1.110   .     S
C985   H1010   1.109   .     S
C985   N1044   1.446   .     S
C985   H1008   1.111   .     S
C985   H1009   1.109   .     S
C986   H1015   1.110   .     S
C986   N1045   1.448   .     S
C986   H1012   1.111   .     S
C986   H1013   1.111   .     S
C987   H1017   1.111   .     S
C987   N1046   1.446   .     S
C987   H1018   1.110   .     S
C987   H1019   1.111   .     S
C988   H1021   1.110   .     S
C988   N1047   1.449   .     S
C988   H1023   1.111   .     S
C988   H1022   1.107   .     S
C989   H1028   1.111   .     S
C989   N1048   1.446   .     S
C989   H1027   1.110   .     S
C989   H1026   1.111   .     S
C990   H1031   1.111   .     S
C990   N1040   1.448   .     S
C990   H1030   1.108   .     S
C990   H1032   1.111   .     S
C991   N1043   1.419   .     S
C991   C995    1.415   .     A
C991   N1041   1.373   .     A
C992   N1044   1.412   .     S
C992   C996    1.418   .     A
C992   N1039   1.396   .     A
C993   N1045   1.419   .     S
C993   N1041   1.373   .     A
C994   H1003   1.084   .     S
C995   H1014   1.083   .     S
C996   H1025   1.084   .     S
Cu997  O1055   1.926   .     S
Cu997  N1041   2.029   .     S
Cu997  O1051   1.952   .     S
Cu997  Cu998   2.701   .     S
Cu997  O1053   1.926   .     S
Cu997  O1049   1.953   .     S
Cu998  N1039   2.029   .     S
Cu998  O1052   1.952   .     S
Cu998  O1054   1.926   .     S
Cu998  O1050   1.953   .     S
Cu998  O1056   1.926   .     S
H1007  N1044   1.031   .     S
H1011  N1045   1.031   .     S
H1016  N1046   1.032   .     S
H1020  N1047   1.030   .     S
H1024  N1048   1.031   .     S
H1029  N1040   1.032   .     S
H1034  N1042   1.031   .     S
H1038  N1043   1.031   .     S
C1057  C1074   1.464   .     S
C1057  O1148   1.304   .     A
C1057  O1145   1.297   .     A
C1058  C1062   1.404   .     A
C1058  H1129   1.083   .     S
C1058  C1089   1.415   .     A
C1059  C1063   1.405   .     S
C1059  O1152   1.294   .     A
C1059  O1149   1.294   .     A
C1060  C1064   1.405   .     S
C1060  O1151   1.293   .     A
C1060  O1150   1.294   .     A
C1061  C1092   1.390   .     A
C1061  C1090   1.390   .     A
C1062  C1091   1.404   .     A
C1062  C869    1.513   1_565 S
C1064  C295    1.188   1_556 S
C1065  F1095   1.359   .     S
C1065  C1070   1.398   .     A
C1065  C1076   1.402   .     A
C1066  C1071   1.402   .     A
C1066  F1096   1.358   .     S
C1066  C1077   1.402   .     A
C1067  C1077   1.401   .     A
C1067  C1072   1.396   .     A
C1067  F1097   1.359   .     S
C1068  O1147   1.295   .     A
C1068  O1146   1.300   .     A
C1068  C1075   1.454   .     S
C1069  F1098   1.360   .     S
C1069  C1076   1.401   .     A
C1069  C1073   1.397   .     A
C1070  C1074   1.413   .     A
C1070  N1142   1.425   .     S
C1071  C1075   1.416   .     A
C1071  N1143   1.432   .     S
C1072  C1075   1.408   .     A
C1072  N1144   1.424   .     S
C1073  N1136   1.422   .     S
C1073  C1074   1.409   .     A
C1077  C980    1.468   1_655 S
C1078  H1132   1.109   .     S
C1078  N1138   1.445   .     S
C1078  H1131   1.112   .     S
C1078  H1133   1.110   .     S
C1079  N1138   1.412   .     S
C1079  C1090   1.418   .     A
C1079  N1135   1.395   .     A
C1080  H1101   1.110   .     S
C1080  N1139   1.447   .     S
C1080  H1100   1.111   .     S
C1080  H1102   1.110   .     S
C1081  H1106   1.109   .     S
C1081  N1140   1.446   .     S
C1081  H1104   1.111   .     S
C1081  H1105   1.109   .     S
C1082  H1111   1.110   .     S
C1082  N1141   1.448   .     S
C1082  H1108   1.111   .     S
C1082  H1109   1.111   .     S
C1083  H1113   1.111   .     S
C1083  N1142   1.446   .     S
C1083  H1114   1.110   .     S
C1083  H1115   1.111   .     S
C1084  H1117   1.110   .     S
C1084  N1143   1.449   .     S
C1084  H1119   1.111   .     S
C1084  H1118   1.107   .     S
C1085  H1124   1.111   .     S
C1085  N1144   1.446   .     S
C1085  H1123   1.110   .     S
C1085  H1122   1.111   .     S
C1086  H1127   1.111   .     S
C1086  N1136   1.448   .     S
C1086  H1126   1.108   .     S
C1086  H1128   1.111   .     S
C1087  N1139   1.419   .     S
C1087  C1091   1.415   .     A
C1087  N1137   1.373   .     A
C1088  N1140   1.412   .     S
C1088  C1092   1.418   .     A
C1088  N1135   1.396   .     A
C1089  N1141   1.419   .     S
C1089  N1137   1.373   .     A
C1090  H1099   1.084   .     S
C1091  H1110   1.083   .     S
C1092  H1121   1.084   .     S
Cu1093 O1151   1.926   .     S
Cu1093 N1137   2.029   .     S
Cu1093 O1147   1.952   .     S
Cu1093 Cu1094  2.701   .     S
Cu1093 O1149   1.926   .     S
Cu1093 O1145   1.953   .     S
Cu1094 N1135   2.029   .     S
Cu1094 O1148   1.952   .     S
Cu1094 O1150   1.926   .     S
Cu1094 O1146   1.953   .     S
Cu1094 O1152   1.926   .     S
H1103  N1140   1.031   .     S
H1107  N1141   1.031   .     S
H1112  N1142   1.032   .     S
H1116  N1143   1.030   .     S
H1120  N1144   1.031   .     S
H1125  N1136   1.032   .     S
H1130  N1138   1.031   .     S
H1134  N1139   1.031   .     S
