data_str_m2_o2_o10_pcu_sym.254
_audit_creation_date              2020-01-03
_audit_creation_method            'Materials Studio'
_symmetry_space_group_name_H-M    'P1'
_symmetry_Int_Tables_number       1
_symmetry_cell_setting            triclinic
loop_
_symmetry_equiv_pos_as_xyz
  x,y,z
_cell_length_a                    26.1952
_cell_length_b                    30.3882
_cell_length_c                    27.7405
_cell_angle_alpha                 89.8412
_cell_angle_beta                  97.9051
_cell_angle_gamma                 90.1320
loop_
_atom_site_label
_atom_site_type_symbol
_atom_site_fract_x
_atom_site_fract_y
_atom_site_fract_z
_atom_site_U_iso_or_equiv
_atom_site_adp_type
_atom_site_occupancy
C1     C     0.16766   0.16501   0.25019   0.00000  Uiso   1.00
C2     C     0.16567   0.33499   0.24978   0.00000  Uiso   1.00
C3     C     0.18448   0.28735   0.05617   0.00000  Uiso   1.00
C4     C     0.12234   0.23638   0.44041   0.00000  Uiso   1.00
C5     C     0.18476   0.28584   0.10714   0.00000  Uiso   1.00
C6     C     0.12408   0.23595   0.38971   0.00000  Uiso   1.00
C7     C     0.14866   0.21451   0.10209   0.00000  Uiso   1.00
C8     C     0.20893   0.26400   0.40110   0.00000  Uiso   1.00
C9     C     0.14880   0.21404   0.05141   0.00000  Uiso   1.00
C10    C     0.20953   0.26390   0.45189   0.00000  Uiso   1.00
C11    C     0.16641   0.25075   0.02728   0.00000  Uiso   1.00
C12    C     0.16590   0.25037   0.47262   0.00000  Uiso   1.00
C13    C     0.06790   0.24999   0.23756   0.00000  Uiso   1.00
C14    C     0.26543   0.25003   0.26244   0.00000  Uiso   1.00
C15    C     0.01264   0.25000   0.23070   0.00000  Uiso   1.00
C16    C     0.32069   0.25006   0.26932   0.00000  Uiso   1.00
C17    C     0.17997   0.04822   0.29567   0.00000  Uiso   1.00
C18    C     0.15403   0.45144   0.20331   0.00000  Uiso   1.00
C19    C     0.17590   0.09396   0.29483   0.00000  Uiso   1.00
C20    C     0.15832   0.40573   0.20469   0.00000  Uiso   1.00
C21    C     0.17094   0.11698   0.25076   0.00000  Uiso   1.00
C22    C     0.16231   0.38301   0.24892   0.00000  Uiso   1.00
C23    C     0.17472   0.09406   0.20791   0.00000  Uiso   1.00
C24    C     0.15743   0.40621   0.29135   0.00000  Uiso   1.00
C25    C     0.17729   0.04849   0.20858   0.00000  Uiso   1.00
C26    C     0.15473   0.45178   0.29020   0.00000  Uiso   1.00
C27    C     0.17198   0.02434   0.25096   0.00000  Uiso   1.00
C28    C     0.16099   0.47564   0.24782   0.00000  Uiso   1.00
Cu29   Cu    0.16667   0.24999   0.29821   0.00000  Uiso   1.00
Cu30   Cu    0.16667   0.25000   0.20178   0.00000  Uiso   1.00
H31    H     0.32601   0.24996   0.19365   0.00000  Uiso   1.00
H32    H     0.00730   0.25012   0.30638   0.00000  Uiso   1.00
H33    H     0.18000   0.11170   0.32896   0.00000  Uiso   1.00
H34    H     0.15509   0.38777   0.17073   0.00000  Uiso   1.00
H35    H     0.17649   0.11123   0.17390   0.00000  Uiso   1.00
H36    H     0.15493   0.38923   0.32534   0.00000  Uiso   1.00
H37    H     0.18549   0.03286   0.17592   0.00000  Uiso   1.00
H38    H     0.14594   0.46778   0.32250   0.00000  Uiso   1.00
H39    H     0.19927   0.31384   0.12881   0.00000  Uiso   1.00
H40    H     0.09074   0.22452   0.36570   0.00000  Uiso   1.00
H41    H     0.13411   0.18614   0.11946   0.00000  Uiso   1.00
H42    H     0.24270   0.27528   0.38628   0.00000  Uiso   1.00
H43    H     0.13540   0.18483   0.03123   0.00000  Uiso   1.00
H44    H     0.24427   0.27417   0.47485   0.00000  Uiso   1.00
N45    N     0.16667   0.25001   0.12934   0.00000  Uiso   1.00
N46    N     0.16667   0.24999   0.37065   0.00000  Uiso   1.00
O47    O     0.16667   0.18572   0.29071   0.00000  Uiso   1.00
O48    O     0.16666   0.31427   0.20928   0.00000  Uiso   1.00
O49    O     0.16667   0.18573   0.20928   0.00000  Uiso   1.00
O50    O     0.16666   0.31427   0.29072   0.00000  Uiso   1.00
O51    O     0.09161   0.24999   0.28132   0.00000  Uiso   1.00
O52    O     0.24172   0.25000   0.21868   0.00000  Uiso   1.00
O53    O     0.09161   0.25000   0.19988   0.00000  Uiso   1.00
O54    O     0.24172   0.25000   0.30011   0.00000  Uiso   1.00
I55    I     0.21751   0.02419   0.36404   0.00000  Uiso   1.00
I56    I     0.11732   0.47445   0.13417   0.00000  Uiso   1.00
N57    N     0.20110   0.32652   0.03405   0.00000  Uiso   1.00
H58    H     0.23906   0.33304   0.04944   0.00000  Uiso   1.00
H59    H     0.17817   0.35257   0.04296   0.00000  Uiso   1.00
N60    N     0.07581   0.22388   0.45861   0.00000  Uiso   1.00
H61    H     0.06663   0.19172   0.44716   0.00000  Uiso   1.00
H62    H     0.04625   0.24446   0.44265   0.00000  Uiso   1.00
C63    C     0.50099   0.16501   0.25019   0.00000  Uiso   1.00
C64    C     0.49901   0.33499   0.24978   0.00000  Uiso   1.00
C65    C     0.51782   0.28735   0.05617   0.00000  Uiso   1.00
C66    C     0.45567   0.23638   0.44041   0.00000  Uiso   1.00
C67    C     0.51809   0.28584   0.10714   0.00000  Uiso   1.00
C68    C     0.45741   0.23595   0.38971   0.00000  Uiso   1.00
C69    C     0.48199   0.21451   0.10209   0.00000  Uiso   1.00
C70    C     0.54226   0.26400   0.40110   0.00000  Uiso   1.00
C71    C     0.48213   0.21404   0.05141   0.00000  Uiso   1.00
C72    C     0.54286   0.26390   0.45189   0.00000  Uiso   1.00
C73    C     0.49974   0.25075   0.02728   0.00000  Uiso   1.00
C74    C     0.49923   0.25037   0.47262   0.00000  Uiso   1.00
C75    C     0.40124   0.24999   0.23756   0.00000  Uiso   1.00
C76    C     0.59876   0.25003   0.26244   0.00000  Uiso   1.00
C77    C     0.34597   0.25000   0.23070   0.00000  Uiso   1.00
C78    C     0.65402   0.25006   0.26932   0.00000  Uiso   1.00
C79    C     0.51330   0.04822   0.29567   0.00000  Uiso   1.00
C80    C     0.48736   0.45144   0.20331   0.00000  Uiso   1.00
C81    C     0.50924   0.09396   0.29483   0.00000  Uiso   1.00
C82    C     0.49165   0.40573   0.20469   0.00000  Uiso   1.00
C83    C     0.50428   0.11698   0.25076   0.00000  Uiso   1.00
C84    C     0.49564   0.38301   0.24892   0.00000  Uiso   1.00
C85    C     0.50806   0.09406   0.20791   0.00000  Uiso   1.00
C86    C     0.49076   0.40621   0.29135   0.00000  Uiso   1.00
C87    C     0.51062   0.04849   0.20858   0.00000  Uiso   1.00
C88    C     0.48807   0.45178   0.29020   0.00000  Uiso   1.00
C89    C     0.50532   0.02434   0.25096   0.00000  Uiso   1.00
C90    C     0.49432   0.47564   0.24782   0.00000  Uiso   1.00
Cu91   Cu    0.50000   0.24999   0.29821   0.00000  Uiso   1.00
Cu92   Cu    0.50000   0.25000   0.20178   0.00000  Uiso   1.00
H93    H     0.65935   0.24996   0.19365   0.00000  Uiso   1.00
H94    H     0.34063   0.25012   0.30638   0.00000  Uiso   1.00
H95    H     0.51333   0.11170   0.32896   0.00000  Uiso   1.00
H96    H     0.48842   0.38777   0.17073   0.00000  Uiso   1.00
H97    H     0.50983   0.11123   0.17390   0.00000  Uiso   1.00
H98    H     0.48826   0.38923   0.32534   0.00000  Uiso   1.00
H99    H     0.51882   0.03286   0.17592   0.00000  Uiso   1.00
H100   H     0.47927   0.46778   0.32250   0.00000  Uiso   1.00
H101   H     0.53260   0.31384   0.12881   0.00000  Uiso   1.00
H102   H     0.42407   0.22452   0.36570   0.00000  Uiso   1.00
H103   H     0.46744   0.18614   0.11946   0.00000  Uiso   1.00
H104   H     0.57604   0.27528   0.38628   0.00000  Uiso   1.00
H105   H     0.46874   0.18483   0.03123   0.00000  Uiso   1.00
H106   H     0.57760   0.27417   0.47485   0.00000  Uiso   1.00
N107   N     0.50000   0.25001   0.12934   0.00000  Uiso   1.00
N108   N     0.50000   0.24999   0.37065   0.00000  Uiso   1.00
O109   O     0.50000   0.18572   0.29071   0.00000  Uiso   1.00
O110   O     0.50000   0.31427   0.20928   0.00000  Uiso   1.00
O111   O     0.50000   0.18573   0.20928   0.00000  Uiso   1.00
O112   O     0.50000   0.31427   0.29072   0.00000  Uiso   1.00
O113   O     0.42495   0.24999   0.28132   0.00000  Uiso   1.00
O114   O     0.57505   0.25000   0.21868   0.00000  Uiso   1.00
O115   O     0.42495   0.25000   0.19988   0.00000  Uiso   1.00
O116   O     0.57505   0.25000   0.30011   0.00000  Uiso   1.00
I117   I     0.55084   0.02419   0.36404   0.00000  Uiso   1.00
I118   I     0.45065   0.47445   0.13417   0.00000  Uiso   1.00
N119   N     0.53444   0.32652   0.03405   0.00000  Uiso   1.00
H120   H     0.57240   0.33304   0.04944   0.00000  Uiso   1.00
H121   H     0.51150   0.35257   0.04296   0.00000  Uiso   1.00
N122   N     0.40915   0.22388   0.45861   0.00000  Uiso   1.00
H123   H     0.39997   0.19172   0.44716   0.00000  Uiso   1.00
H124   H     0.37958   0.24446   0.44265   0.00000  Uiso   1.00
C125   C     0.83433   0.16501   0.25019   0.00000  Uiso   1.00
C126   C     0.83234   0.33499   0.24978   0.00000  Uiso   1.00
C127   C     0.85115   0.28735   0.05617   0.00000  Uiso   1.00
C128   C     0.78900   0.23638   0.44041   0.00000  Uiso   1.00
C129   C     0.85143   0.28584   0.10714   0.00000  Uiso   1.00
C130   C     0.79075   0.23595   0.38971   0.00000  Uiso   1.00
C131   C     0.81532   0.21451   0.10209   0.00000  Uiso   1.00
C132   C     0.87559   0.26400   0.40110   0.00000  Uiso   1.00
C133   C     0.81547   0.21404   0.05141   0.00000  Uiso   1.00
C134   C     0.87620   0.26390   0.45189   0.00000  Uiso   1.00
C135   C     0.83308   0.25075   0.02728   0.00000  Uiso   1.00
C136   C     0.83257   0.25037   0.47262   0.00000  Uiso   1.00
C137   C     0.73457   0.24999   0.23756   0.00000  Uiso   1.00
C138   C     0.93210   0.25003   0.26244   0.00000  Uiso   1.00
C139   C     0.67931   0.25000   0.23070   0.00000  Uiso   1.00
C140   C     0.98736   0.25006   0.26932   0.00000  Uiso   1.00
C141   C     0.84664   0.04822   0.29567   0.00000  Uiso   1.00
C142   C     0.82070   0.45144   0.20331   0.00000  Uiso   1.00
C143   C     0.84257   0.09396   0.29483   0.00000  Uiso   1.00
C144   C     0.82498   0.40573   0.20469   0.00000  Uiso   1.00
C145   C     0.83761   0.11698   0.25076   0.00000  Uiso   1.00
C146   C     0.82898   0.38301   0.24892   0.00000  Uiso   1.00
C147   C     0.84139   0.09406   0.20791   0.00000  Uiso   1.00
C148   C     0.82409   0.40621   0.29135   0.00000  Uiso   1.00
C149   C     0.84395   0.04849   0.20858   0.00000  Uiso   1.00
C150   C     0.82140   0.45178   0.29020   0.00000  Uiso   1.00
C151   C     0.83865   0.02434   0.25096   0.00000  Uiso   1.00
C152   C     0.82765   0.47564   0.24782   0.00000  Uiso   1.00
Cu153  Cu    0.83333   0.24999   0.29821   0.00000  Uiso   1.00
Cu154  Cu    0.83333   0.25000   0.20178   0.00000  Uiso   1.00
H155   H     0.99268   0.24996   0.19365   0.00000  Uiso   1.00
H156   H     0.67396   0.25012   0.30638   0.00000  Uiso   1.00
H157   H     0.84667   0.11170   0.32896   0.00000  Uiso   1.00
H158   H     0.82176   0.38777   0.17073   0.00000  Uiso   1.00
H159   H     0.84316   0.11123   0.17390   0.00000  Uiso   1.00
H160   H     0.82160   0.38923   0.32534   0.00000  Uiso   1.00
H161   H     0.85215   0.03286   0.17592   0.00000  Uiso   1.00
H162   H     0.81261   0.46778   0.32250   0.00000  Uiso   1.00
H163   H     0.86594   0.31384   0.12881   0.00000  Uiso   1.00
H164   H     0.75740   0.22452   0.36570   0.00000  Uiso   1.00
H165   H     0.80078   0.18614   0.11946   0.00000  Uiso   1.00
H166   H     0.90937   0.27528   0.38628   0.00000  Uiso   1.00
H167   H     0.80207   0.18483   0.03123   0.00000  Uiso   1.00
H168   H     0.91094   0.27417   0.47485   0.00000  Uiso   1.00
N169   N     0.83333   0.25001   0.12934   0.00000  Uiso   1.00
N170   N     0.83333   0.24999   0.37065   0.00000  Uiso   1.00
O171   O     0.83334   0.18572   0.29071   0.00000  Uiso   1.00
O172   O     0.83333   0.31427   0.20928   0.00000  Uiso   1.00
O173   O     0.83334   0.18573   0.20928   0.00000  Uiso   1.00
O174   O     0.83333   0.31427   0.29072   0.00000  Uiso   1.00
O175   O     0.75828   0.24999   0.28132   0.00000  Uiso   1.00
O176   O     0.90839   0.25000   0.21868   0.00000  Uiso   1.00
O177   O     0.75828   0.25000   0.19988   0.00000  Uiso   1.00
O178   O     0.90839   0.25000   0.30011   0.00000  Uiso   1.00
I179   I     0.88418   0.02419   0.36404   0.00000  Uiso   1.00
I180   I     0.78398   0.47445   0.13417   0.00000  Uiso   1.00
N181   N     0.86777   0.32652   0.03405   0.00000  Uiso   1.00
H182   H     0.90573   0.33304   0.04944   0.00000  Uiso   1.00
H183   H     0.84483   0.35257   0.04296   0.00000  Uiso   1.00
N184   N     0.74248   0.22388   0.45861   0.00000  Uiso   1.00
H185   H     0.73330   0.19172   0.44716   0.00000  Uiso   1.00
H186   H     0.71291   0.24446   0.44265   0.00000  Uiso   1.00
C187   C     0.16766   0.66501   0.25019   0.00000  Uiso   1.00
C188   C     0.16567   0.83499   0.24978   0.00000  Uiso   1.00
C189   C     0.18448   0.78735   0.05617   0.00000  Uiso   1.00
C190   C     0.12234   0.73638   0.44041   0.00000  Uiso   1.00
C191   C     0.18476   0.78584   0.10714   0.00000  Uiso   1.00
C192   C     0.12408   0.73595   0.38971   0.00000  Uiso   1.00
C193   C     0.14866   0.71451   0.10209   0.00000  Uiso   1.00
C194   C     0.20893   0.76400   0.40110   0.00000  Uiso   1.00
C195   C     0.14880   0.71404   0.05141   0.00000  Uiso   1.00
C196   C     0.20953   0.76390   0.45189   0.00000  Uiso   1.00
C197   C     0.16641   0.75075   0.02728   0.00000  Uiso   1.00
C198   C     0.16590   0.75037   0.47262   0.00000  Uiso   1.00
C199   C     0.06790   0.74999   0.23756   0.00000  Uiso   1.00
C200   C     0.26543   0.75003   0.26244   0.00000  Uiso   1.00
C201   C     0.01264   0.75000   0.23070   0.00000  Uiso   1.00
C202   C     0.32069   0.75006   0.26932   0.00000  Uiso   1.00
C203   C     0.17997   0.54822   0.29567   0.00000  Uiso   1.00
C204   C     0.15403   0.95144   0.20331   0.00000  Uiso   1.00
C205   C     0.17590   0.59396   0.29483   0.00000  Uiso   1.00
C206   C     0.15832   0.90573   0.20469   0.00000  Uiso   1.00
C207   C     0.17094   0.61698   0.25076   0.00000  Uiso   1.00
C208   C     0.16231   0.88301   0.24892   0.00000  Uiso   1.00
C209   C     0.17472   0.59406   0.20791   0.00000  Uiso   1.00
C210   C     0.15743   0.90621   0.29135   0.00000  Uiso   1.00
C211   C     0.17729   0.54849   0.20858   0.00000  Uiso   1.00
C212   C     0.15473   0.95178   0.29020   0.00000  Uiso   1.00
C213   C     0.17198   0.52434   0.25096   0.00000  Uiso   1.00
C214   C     0.16099   0.97564   0.24782   0.00000  Uiso   1.00
Cu215  Cu    0.16667   0.74999   0.29821   0.00000  Uiso   1.00
Cu216  Cu    0.16667   0.75000   0.20178   0.00000  Uiso   1.00
H217   H     0.32601   0.74996   0.19365   0.00000  Uiso   1.00
H218   H     0.00730   0.75012   0.30638   0.00000  Uiso   1.00
H219   H     0.18000   0.61170   0.32896   0.00000  Uiso   1.00
H220   H     0.15509   0.88777   0.17073   0.00000  Uiso   1.00
H221   H     0.17649   0.61123   0.17390   0.00000  Uiso   1.00
H222   H     0.15493   0.88923   0.32534   0.00000  Uiso   1.00
H223   H     0.18549   0.53286   0.17592   0.00000  Uiso   1.00
H224   H     0.14594   0.96778   0.32250   0.00000  Uiso   1.00
H225   H     0.19927   0.81384   0.12881   0.00000  Uiso   1.00
H226   H     0.09074   0.72452   0.36570   0.00000  Uiso   1.00
H227   H     0.13411   0.68614   0.11946   0.00000  Uiso   1.00
H228   H     0.24270   0.77528   0.38628   0.00000  Uiso   1.00
H229   H     0.13540   0.68483   0.03123   0.00000  Uiso   1.00
H230   H     0.24427   0.77417   0.47485   0.00000  Uiso   1.00
N231   N     0.16667   0.75001   0.12934   0.00000  Uiso   1.00
N232   N     0.16667   0.74999   0.37065   0.00000  Uiso   1.00
O233   O     0.16667   0.68572   0.29071   0.00000  Uiso   1.00
O234   O     0.16666   0.81427   0.20928   0.00000  Uiso   1.00
O235   O     0.16667   0.68573   0.20928   0.00000  Uiso   1.00
O236   O     0.16666   0.81427   0.29072   0.00000  Uiso   1.00
O237   O     0.09161   0.74999   0.28132   0.00000  Uiso   1.00
O238   O     0.24172   0.75000   0.21868   0.00000  Uiso   1.00
O239   O     0.09161   0.75000   0.19988   0.00000  Uiso   1.00
O240   O     0.24172   0.75000   0.30011   0.00000  Uiso   1.00
I241   I     0.21751   0.52419   0.36404   0.00000  Uiso   1.00
I242   I     0.11732   0.97445   0.13417   0.00000  Uiso   1.00
N243   N     0.20110   0.82652   0.03405   0.00000  Uiso   1.00
H244   H     0.23906   0.83304   0.04944   0.00000  Uiso   1.00
H245   H     0.17817   0.85257   0.04296   0.00000  Uiso   1.00
N246   N     0.07581   0.72388   0.45861   0.00000  Uiso   1.00
H247   H     0.06663   0.69172   0.44716   0.00000  Uiso   1.00
H248   H     0.04625   0.74446   0.44265   0.00000  Uiso   1.00
C249   C     0.50099   0.66501   0.25019   0.00000  Uiso   1.00
C250   C     0.49901   0.83499   0.24978   0.00000  Uiso   1.00
C251   C     0.51782   0.78735   0.05617   0.00000  Uiso   1.00
C252   C     0.45567   0.73638   0.44041   0.00000  Uiso   1.00
C253   C     0.51809   0.78584   0.10714   0.00000  Uiso   1.00
C254   C     0.45741   0.73595   0.38971   0.00000  Uiso   1.00
C255   C     0.48199   0.71451   0.10209   0.00000  Uiso   1.00
C256   C     0.54226   0.76400   0.40110   0.00000  Uiso   1.00
C257   C     0.48213   0.71404   0.05141   0.00000  Uiso   1.00
C258   C     0.54286   0.76390   0.45189   0.00000  Uiso   1.00
C259   C     0.49974   0.75075   0.02728   0.00000  Uiso   1.00
C260   C     0.49923   0.75037   0.47262   0.00000  Uiso   1.00
C261   C     0.40124   0.74999   0.23756   0.00000  Uiso   1.00
C262   C     0.59876   0.75003   0.26244   0.00000  Uiso   1.00
C263   C     0.34597   0.75000   0.23070   0.00000  Uiso   1.00
C264   C     0.65402   0.75006   0.26932   0.00000  Uiso   1.00
C265   C     0.51330   0.54822   0.29567   0.00000  Uiso   1.00
C266   C     0.48736   0.95144   0.20331   0.00000  Uiso   1.00
C267   C     0.50924   0.59396   0.29483   0.00000  Uiso   1.00
C268   C     0.49165   0.90573   0.20469   0.00000  Uiso   1.00
C269   C     0.50428   0.61698   0.25076   0.00000  Uiso   1.00
C270   C     0.49564   0.88301   0.24892   0.00000  Uiso   1.00
C271   C     0.50806   0.59406   0.20791   0.00000  Uiso   1.00
C272   C     0.49076   0.90621   0.29135   0.00000  Uiso   1.00
C273   C     0.51062   0.54849   0.20858   0.00000  Uiso   1.00
C274   C     0.48807   0.95178   0.29020   0.00000  Uiso   1.00
C275   C     0.50532   0.52434   0.25096   0.00000  Uiso   1.00
C276   C     0.49432   0.97564   0.24782   0.00000  Uiso   1.00
Cu277  Cu    0.50000   0.74999   0.29821   0.00000  Uiso   1.00
Cu278  Cu    0.50000   0.75000   0.20178   0.00000  Uiso   1.00
H279   H     0.65935   0.74996   0.19365   0.00000  Uiso   1.00
H280   H     0.34063   0.75012   0.30638   0.00000  Uiso   1.00
H281   H     0.51333   0.61170   0.32896   0.00000  Uiso   1.00
H282   H     0.48842   0.88777   0.17073   0.00000  Uiso   1.00
H283   H     0.50983   0.61123   0.17390   0.00000  Uiso   1.00
H284   H     0.48826   0.88923   0.32534   0.00000  Uiso   1.00
H285   H     0.51882   0.53286   0.17592   0.00000  Uiso   1.00
H286   H     0.47927   0.96778   0.32250   0.00000  Uiso   1.00
H287   H     0.53260   0.81384   0.12881   0.00000  Uiso   1.00
H288   H     0.42407   0.72452   0.36570   0.00000  Uiso   1.00
H289   H     0.46744   0.68614   0.11946   0.00000  Uiso   1.00
H290   H     0.57604   0.77528   0.38628   0.00000  Uiso   1.00
H291   H     0.46874   0.68483   0.03123   0.00000  Uiso   1.00
H292   H     0.57760   0.77417   0.47485   0.00000  Uiso   1.00
N293   N     0.50000   0.75001   0.12934   0.00000  Uiso   1.00
N294   N     0.50000   0.74999   0.37065   0.00000  Uiso   1.00
O295   O     0.50000   0.68572   0.29071   0.00000  Uiso   1.00
O296   O     0.50000   0.81427   0.20928   0.00000  Uiso   1.00
O297   O     0.50000   0.68573   0.20928   0.00000  Uiso   1.00
O298   O     0.50000   0.81427   0.29072   0.00000  Uiso   1.00
O299   O     0.42495   0.74999   0.28132   0.00000  Uiso   1.00
O300   O     0.57505   0.75000   0.21868   0.00000  Uiso   1.00
O301   O     0.42495   0.75000   0.19988   0.00000  Uiso   1.00
O302   O     0.57505   0.75000   0.30011   0.00000  Uiso   1.00
I303   I     0.55084   0.52419   0.36404   0.00000  Uiso   1.00
I304   I     0.45065   0.97445   0.13417   0.00000  Uiso   1.00
N305   N     0.53444   0.82652   0.03405   0.00000  Uiso   1.00
H306   H     0.57240   0.83304   0.04944   0.00000  Uiso   1.00
H307   H     0.51150   0.85257   0.04296   0.00000  Uiso   1.00
N308   N     0.40915   0.72388   0.45861   0.00000  Uiso   1.00
H309   H     0.39997   0.69172   0.44716   0.00000  Uiso   1.00
H310   H     0.37958   0.74446   0.44265   0.00000  Uiso   1.00
C311   C     0.83433   0.66501   0.25019   0.00000  Uiso   1.00
C312   C     0.83234   0.83499   0.24978   0.00000  Uiso   1.00
C313   C     0.85115   0.78735   0.05617   0.00000  Uiso   1.00
C314   C     0.78900   0.73638   0.44041   0.00000  Uiso   1.00
C315   C     0.85143   0.78584   0.10714   0.00000  Uiso   1.00
C316   C     0.79075   0.73595   0.38971   0.00000  Uiso   1.00
C317   C     0.81532   0.71451   0.10209   0.00000  Uiso   1.00
C318   C     0.87559   0.76400   0.40110   0.00000  Uiso   1.00
C319   C     0.81547   0.71404   0.05141   0.00000  Uiso   1.00
C320   C     0.87620   0.76390   0.45189   0.00000  Uiso   1.00
C321   C     0.83308   0.75075   0.02728   0.00000  Uiso   1.00
C322   C     0.83257   0.75037   0.47262   0.00000  Uiso   1.00
C323   C     0.73457   0.74999   0.23756   0.00000  Uiso   1.00
C324   C     0.93210   0.75003   0.26244   0.00000  Uiso   1.00
C325   C     0.67931   0.75000   0.23070   0.00000  Uiso   1.00
C326   C     0.98736   0.75006   0.26932   0.00000  Uiso   1.00
C327   C     0.84664   0.54822   0.29567   0.00000  Uiso   1.00
C328   C     0.82070   0.95144   0.20331   0.00000  Uiso   1.00
C329   C     0.84257   0.59396   0.29483   0.00000  Uiso   1.00
C330   C     0.82498   0.90573   0.20469   0.00000  Uiso   1.00
C331   C     0.83761   0.61698   0.25076   0.00000  Uiso   1.00
C332   C     0.82898   0.88301   0.24892   0.00000  Uiso   1.00
C333   C     0.84139   0.59406   0.20791   0.00000  Uiso   1.00
C334   C     0.82409   0.90621   0.29135   0.00000  Uiso   1.00
C335   C     0.84395   0.54849   0.20858   0.00000  Uiso   1.00
C336   C     0.82140   0.95178   0.29020   0.00000  Uiso   1.00
C337   C     0.83865   0.52434   0.25096   0.00000  Uiso   1.00
C338   C     0.82765   0.97564   0.24782   0.00000  Uiso   1.00
Cu339  Cu    0.83333   0.74999   0.29821   0.00000  Uiso   1.00
Cu340  Cu    0.83333   0.75000   0.20178   0.00000  Uiso   1.00
H341   H     0.99268   0.74996   0.19365   0.00000  Uiso   1.00
H342   H     0.67396   0.75012   0.30638   0.00000  Uiso   1.00
H343   H     0.84667   0.61170   0.32896   0.00000  Uiso   1.00
H344   H     0.82176   0.88777   0.17073   0.00000  Uiso   1.00
H345   H     0.84316   0.61123   0.17390   0.00000  Uiso   1.00
H346   H     0.82160   0.88923   0.32534   0.00000  Uiso   1.00
H347   H     0.85215   0.53286   0.17592   0.00000  Uiso   1.00
H348   H     0.81261   0.96778   0.32250   0.00000  Uiso   1.00
H349   H     0.86594   0.81384   0.12881   0.00000  Uiso   1.00
H350   H     0.75740   0.72452   0.36570   0.00000  Uiso   1.00
H351   H     0.80078   0.68614   0.11946   0.00000  Uiso   1.00
H352   H     0.90937   0.77528   0.38628   0.00000  Uiso   1.00
H353   H     0.80207   0.68483   0.03123   0.00000  Uiso   1.00
H354   H     0.91094   0.77417   0.47485   0.00000  Uiso   1.00
N355   N     0.83333   0.75001   0.12934   0.00000  Uiso   1.00
N356   N     0.83333   0.74999   0.37065   0.00000  Uiso   1.00
O357   O     0.83334   0.68572   0.29071   0.00000  Uiso   1.00
O358   O     0.83333   0.81427   0.20928   0.00000  Uiso   1.00
O359   O     0.83334   0.68573   0.20928   0.00000  Uiso   1.00
O360   O     0.83333   0.81427   0.29072   0.00000  Uiso   1.00
O361   O     0.75828   0.74999   0.28132   0.00000  Uiso   1.00
O362   O     0.90839   0.75000   0.21868   0.00000  Uiso   1.00
O363   O     0.75828   0.75000   0.19988   0.00000  Uiso   1.00
O364   O     0.90839   0.75000   0.30011   0.00000  Uiso   1.00
I365   I     0.88418   0.52419   0.36404   0.00000  Uiso   1.00
I366   I     0.78398   0.97445   0.13417   0.00000  Uiso   1.00
N367   N     0.86777   0.82652   0.03405   0.00000  Uiso   1.00
H368   H     0.90573   0.83304   0.04944   0.00000  Uiso   1.00
H369   H     0.84483   0.85257   0.04296   0.00000  Uiso   1.00
N370   N     0.74248   0.72388   0.45861   0.00000  Uiso   1.00
H371   H     0.73330   0.69172   0.44716   0.00000  Uiso   1.00
H372   H     0.71291   0.74446   0.44265   0.00000  Uiso   1.00
C373   C     0.16766   0.16501   0.75019   0.00000  Uiso   1.00
C374   C     0.16567   0.33499   0.74978   0.00000  Uiso   1.00
C375   C     0.18448   0.28735   0.55617   0.00000  Uiso   1.00
C376   C     0.12234   0.23638   0.94041   0.00000  Uiso   1.00
C377   C     0.18476   0.28584   0.60714   0.00000  Uiso   1.00
C378   C     0.12408   0.23595   0.88971   0.00000  Uiso   1.00
C379   C     0.14866   0.21451   0.60209   0.00000  Uiso   1.00
C380   C     0.20893   0.26400   0.90110   0.00000  Uiso   1.00
C381   C     0.14880   0.21404   0.55141   0.00000  Uiso   1.00
C382   C     0.20953   0.26390   0.95189   0.00000  Uiso   1.00
C383   C     0.16641   0.25075   0.52728   0.00000  Uiso   1.00
C384   C     0.16590   0.25037   0.97262   0.00000  Uiso   1.00
C385   C     0.06790   0.24999   0.73756   0.00000  Uiso   1.00
C386   C     0.26543   0.25003   0.76244   0.00000  Uiso   1.00
C387   C     0.01264   0.25000   0.73070   0.00000  Uiso   1.00
C388   C     0.32069   0.25006   0.76932   0.00000  Uiso   1.00
C389   C     0.17997   0.04822   0.79567   0.00000  Uiso   1.00
C390   C     0.15403   0.45144   0.70331   0.00000  Uiso   1.00
C391   C     0.17590   0.09396   0.79483   0.00000  Uiso   1.00
C392   C     0.15832   0.40573   0.70469   0.00000  Uiso   1.00
C393   C     0.17094   0.11698   0.75076   0.00000  Uiso   1.00
C394   C     0.16231   0.38301   0.74892   0.00000  Uiso   1.00
C395   C     0.17472   0.09406   0.70791   0.00000  Uiso   1.00
C396   C     0.15743   0.40621   0.79135   0.00000  Uiso   1.00
C397   C     0.17729   0.04849   0.70858   0.00000  Uiso   1.00
C398   C     0.15473   0.45178   0.79020   0.00000  Uiso   1.00
C399   C     0.17198   0.02434   0.75096   0.00000  Uiso   1.00
C400   C     0.16099   0.47564   0.74782   0.00000  Uiso   1.00
Cu401  Cu    0.16667   0.24999   0.79821   0.00000  Uiso   1.00
Cu402  Cu    0.16667   0.25000   0.70178   0.00000  Uiso   1.00
H403   H     0.32601   0.24996   0.69365   0.00000  Uiso   1.00
H404   H     0.00730   0.25012   0.80638   0.00000  Uiso   1.00
H405   H     0.18000   0.11170   0.82896   0.00000  Uiso   1.00
H406   H     0.15509   0.38777   0.67073   0.00000  Uiso   1.00
H407   H     0.17649   0.11123   0.67390   0.00000  Uiso   1.00
H408   H     0.15493   0.38923   0.82534   0.00000  Uiso   1.00
H409   H     0.18549   0.03286   0.67592   0.00000  Uiso   1.00
H410   H     0.14594   0.46778   0.82250   0.00000  Uiso   1.00
H411   H     0.19927   0.31384   0.62881   0.00000  Uiso   1.00
H412   H     0.09074   0.22452   0.86570   0.00000  Uiso   1.00
H413   H     0.13411   0.18614   0.61946   0.00000  Uiso   1.00
H414   H     0.24270   0.27528   0.88628   0.00000  Uiso   1.00
H415   H     0.13540   0.18483   0.53123   0.00000  Uiso   1.00
H416   H     0.24427   0.27417   0.97485   0.00000  Uiso   1.00
N417   N     0.16667   0.25001   0.62934   0.00000  Uiso   1.00
N418   N     0.16667   0.24999   0.87065   0.00000  Uiso   1.00
O419   O     0.16667   0.18572   0.79071   0.00000  Uiso   1.00
O420   O     0.16666   0.31427   0.70928   0.00000  Uiso   1.00
O421   O     0.16667   0.18573   0.70928   0.00000  Uiso   1.00
O422   O     0.16666   0.31427   0.79072   0.00000  Uiso   1.00
O423   O     0.09161   0.24999   0.78132   0.00000  Uiso   1.00
O424   O     0.24172   0.25000   0.71868   0.00000  Uiso   1.00
O425   O     0.09161   0.25000   0.69988   0.00000  Uiso   1.00
O426   O     0.24172   0.25000   0.80011   0.00000  Uiso   1.00
I427   I     0.21751   0.02419   0.86404   0.00000  Uiso   1.00
I428   I     0.11732   0.47445   0.63417   0.00000  Uiso   1.00
N429   N     0.20110   0.32652   0.53405   0.00000  Uiso   1.00
H430   H     0.23906   0.33304   0.54944   0.00000  Uiso   1.00
H431   H     0.17817   0.35257   0.54296   0.00000  Uiso   1.00
N432   N     0.07581   0.22388   0.95861   0.00000  Uiso   1.00
H433   H     0.06663   0.19172   0.94716   0.00000  Uiso   1.00
H434   H     0.04625   0.24446   0.94265   0.00000  Uiso   1.00
C435   C     0.50099   0.16501   0.75019   0.00000  Uiso   1.00
C436   C     0.49901   0.33499   0.74978   0.00000  Uiso   1.00
C437   C     0.51782   0.28735   0.55617   0.00000  Uiso   1.00
C438   C     0.45567   0.23638   0.94041   0.00000  Uiso   1.00
C439   C     0.51809   0.28584   0.60714   0.00000  Uiso   1.00
C440   C     0.45741   0.23595   0.88971   0.00000  Uiso   1.00
C441   C     0.48199   0.21451   0.60209   0.00000  Uiso   1.00
C442   C     0.54226   0.26400   0.90110   0.00000  Uiso   1.00
C443   C     0.48213   0.21404   0.55141   0.00000  Uiso   1.00
C444   C     0.54286   0.26390   0.95189   0.00000  Uiso   1.00
C445   C     0.49974   0.25075   0.52728   0.00000  Uiso   1.00
C446   C     0.49923   0.25037   0.97262   0.00000  Uiso   1.00
C447   C     0.40124   0.24999   0.73756   0.00000  Uiso   1.00
C448   C     0.59876   0.25003   0.76244   0.00000  Uiso   1.00
C449   C     0.34597   0.25000   0.73070   0.00000  Uiso   1.00
C450   C     0.65402   0.25006   0.76932   0.00000  Uiso   1.00
C451   C     0.51330   0.04822   0.79567   0.00000  Uiso   1.00
C452   C     0.48736   0.45144   0.70331   0.00000  Uiso   1.00
C453   C     0.50924   0.09396   0.79483   0.00000  Uiso   1.00
C454   C     0.49165   0.40573   0.70469   0.00000  Uiso   1.00
C455   C     0.50428   0.11698   0.75076   0.00000  Uiso   1.00
C456   C     0.49564   0.38301   0.74892   0.00000  Uiso   1.00
C457   C     0.50806   0.09406   0.70791   0.00000  Uiso   1.00
C458   C     0.49076   0.40621   0.79135   0.00000  Uiso   1.00
C459   C     0.51062   0.04849   0.70858   0.00000  Uiso   1.00
C460   C     0.48807   0.45178   0.79020   0.00000  Uiso   1.00
C461   C     0.50532   0.02434   0.75096   0.00000  Uiso   1.00
C462   C     0.49432   0.47564   0.74782   0.00000  Uiso   1.00
Cu463  Cu    0.50000   0.24999   0.79821   0.00000  Uiso   1.00
Cu464  Cu    0.50000   0.25000   0.70178   0.00000  Uiso   1.00
H465   H     0.65935   0.24996   0.69365   0.00000  Uiso   1.00
H466   H     0.34063   0.25012   0.80638   0.00000  Uiso   1.00
H467   H     0.51333   0.11170   0.82896   0.00000  Uiso   1.00
H468   H     0.48842   0.38777   0.67073   0.00000  Uiso   1.00
H469   H     0.50983   0.11123   0.67390   0.00000  Uiso   1.00
H470   H     0.48826   0.38923   0.82534   0.00000  Uiso   1.00
H471   H     0.51882   0.03286   0.67592   0.00000  Uiso   1.00
H472   H     0.47927   0.46778   0.82250   0.00000  Uiso   1.00
H473   H     0.53260   0.31384   0.62881   0.00000  Uiso   1.00
H474   H     0.42407   0.22452   0.86570   0.00000  Uiso   1.00
H475   H     0.46744   0.18614   0.61946   0.00000  Uiso   1.00
H476   H     0.57604   0.27528   0.88628   0.00000  Uiso   1.00
H477   H     0.46874   0.18483   0.53123   0.00000  Uiso   1.00
H478   H     0.57760   0.27417   0.97485   0.00000  Uiso   1.00
N479   N     0.50000   0.25001   0.62934   0.00000  Uiso   1.00
N480   N     0.50000   0.24999   0.87065   0.00000  Uiso   1.00
O481   O     0.50000   0.18572   0.79071   0.00000  Uiso   1.00
O482   O     0.50000   0.31427   0.70928   0.00000  Uiso   1.00
O483   O     0.50000   0.18573   0.70928   0.00000  Uiso   1.00
O484   O     0.50000   0.31427   0.79072   0.00000  Uiso   1.00
O485   O     0.42495   0.24999   0.78132   0.00000  Uiso   1.00
O486   O     0.57505   0.25000   0.71868   0.00000  Uiso   1.00
O487   O     0.42495   0.25000   0.69988   0.00000  Uiso   1.00
O488   O     0.57505   0.25000   0.80011   0.00000  Uiso   1.00
I489   I     0.55084   0.02419   0.86404   0.00000  Uiso   1.00
I490   I     0.45065   0.47445   0.63417   0.00000  Uiso   1.00
N491   N     0.53444   0.32652   0.53405   0.00000  Uiso   1.00
H492   H     0.57240   0.33304   0.54944   0.00000  Uiso   1.00
H493   H     0.51150   0.35257   0.54296   0.00000  Uiso   1.00
N494   N     0.40915   0.22388   0.95861   0.00000  Uiso   1.00
H495   H     0.39997   0.19172   0.94716   0.00000  Uiso   1.00
H496   H     0.37958   0.24446   0.94265   0.00000  Uiso   1.00
C497   C     0.83433   0.16501   0.75019   0.00000  Uiso   1.00
C498   C     0.83234   0.33499   0.74978   0.00000  Uiso   1.00
C499   C     0.85115   0.28735   0.55617   0.00000  Uiso   1.00
C500   C     0.78900   0.23638   0.94041   0.00000  Uiso   1.00
C501   C     0.85143   0.28584   0.60714   0.00000  Uiso   1.00
C502   C     0.79075   0.23595   0.88971   0.00000  Uiso   1.00
C503   C     0.81532   0.21451   0.60209   0.00000  Uiso   1.00
C504   C     0.87559   0.26400   0.90110   0.00000  Uiso   1.00
C505   C     0.81547   0.21404   0.55141   0.00000  Uiso   1.00
C506   C     0.87620   0.26390   0.95189   0.00000  Uiso   1.00
C507   C     0.83308   0.25075   0.52728   0.00000  Uiso   1.00
C508   C     0.83257   0.25037   0.97262   0.00000  Uiso   1.00
C509   C     0.73457   0.24999   0.73756   0.00000  Uiso   1.00
C510   C     0.93210   0.25003   0.76244   0.00000  Uiso   1.00
C511   C     0.67931   0.25000   0.73070   0.00000  Uiso   1.00
C512   C     0.98736   0.25006   0.76932   0.00000  Uiso   1.00
C513   C     0.84664   0.04822   0.79567   0.00000  Uiso   1.00
C514   C     0.82070   0.45144   0.70331   0.00000  Uiso   1.00
C515   C     0.84257   0.09396   0.79483   0.00000  Uiso   1.00
C516   C     0.82498   0.40573   0.70469   0.00000  Uiso   1.00
C517   C     0.83761   0.11698   0.75076   0.00000  Uiso   1.00
C518   C     0.82898   0.38301   0.74892   0.00000  Uiso   1.00
C519   C     0.84139   0.09406   0.70791   0.00000  Uiso   1.00
C520   C     0.82409   0.40621   0.79135   0.00000  Uiso   1.00
C521   C     0.84395   0.04849   0.70858   0.00000  Uiso   1.00
C522   C     0.82140   0.45178   0.79020   0.00000  Uiso   1.00
C523   C     0.83865   0.02434   0.75096   0.00000  Uiso   1.00
C524   C     0.82765   0.47564   0.74782   0.00000  Uiso   1.00
Cu525  Cu    0.83333   0.24999   0.79821   0.00000  Uiso   1.00
Cu526  Cu    0.83333   0.25000   0.70178   0.00000  Uiso   1.00
H527   H     0.99268   0.24996   0.69365   0.00000  Uiso   1.00
H528   H     0.67396   0.25012   0.80638   0.00000  Uiso   1.00
H529   H     0.84667   0.11170   0.82896   0.00000  Uiso   1.00
H530   H     0.82176   0.38777   0.67073   0.00000  Uiso   1.00
H531   H     0.84316   0.11123   0.67390   0.00000  Uiso   1.00
H532   H     0.82160   0.38923   0.82534   0.00000  Uiso   1.00
H533   H     0.85215   0.03286   0.67592   0.00000  Uiso   1.00
H534   H     0.81261   0.46778   0.82250   0.00000  Uiso   1.00
H535   H     0.86594   0.31384   0.62881   0.00000  Uiso   1.00
H536   H     0.75740   0.22452   0.86570   0.00000  Uiso   1.00
H537   H     0.80078   0.18614   0.61946   0.00000  Uiso   1.00
H538   H     0.90937   0.27528   0.88628   0.00000  Uiso   1.00
H539   H     0.80207   0.18483   0.53123   0.00000  Uiso   1.00
H540   H     0.91094   0.27417   0.97485   0.00000  Uiso   1.00
N541   N     0.83333   0.25001   0.62934   0.00000  Uiso   1.00
N542   N     0.83333   0.24999   0.87065   0.00000  Uiso   1.00
O543   O     0.83334   0.18572   0.79071   0.00000  Uiso   1.00
O544   O     0.83333   0.31427   0.70928   0.00000  Uiso   1.00
O545   O     0.83334   0.18573   0.70928   0.00000  Uiso   1.00
O546   O     0.83333   0.31427   0.79072   0.00000  Uiso   1.00
O547   O     0.75828   0.24999   0.78132   0.00000  Uiso   1.00
O548   O     0.90839   0.25000   0.71868   0.00000  Uiso   1.00
O549   O     0.75828   0.25000   0.69988   0.00000  Uiso   1.00
O550   O     0.90839   0.25000   0.80011   0.00000  Uiso   1.00
I551   I     0.88418   0.02419   0.86404   0.00000  Uiso   1.00
I552   I     0.78398   0.47445   0.63417   0.00000  Uiso   1.00
N553   N     0.86777   0.32652   0.53405   0.00000  Uiso   1.00
H554   H     0.90573   0.33304   0.54944   0.00000  Uiso   1.00
H555   H     0.84483   0.35257   0.54296   0.00000  Uiso   1.00
N556   N     0.74248   0.22388   0.95861   0.00000  Uiso   1.00
H557   H     0.73330   0.19172   0.94716   0.00000  Uiso   1.00
H558   H     0.71291   0.24446   0.94265   0.00000  Uiso   1.00
C559   C     0.16766   0.66501   0.75019   0.00000  Uiso   1.00
C560   C     0.16567   0.83499   0.74978   0.00000  Uiso   1.00
C561   C     0.18448   0.78735   0.55617   0.00000  Uiso   1.00
C562   C     0.12234   0.73638   0.94041   0.00000  Uiso   1.00
C563   C     0.18476   0.78584   0.60714   0.00000  Uiso   1.00
C564   C     0.12408   0.73595   0.88971   0.00000  Uiso   1.00
C565   C     0.14866   0.71451   0.60209   0.00000  Uiso   1.00
C566   C     0.20893   0.76400   0.90110   0.00000  Uiso   1.00
C567   C     0.14880   0.71404   0.55141   0.00000  Uiso   1.00
C568   C     0.20953   0.76390   0.95189   0.00000  Uiso   1.00
C569   C     0.16641   0.75075   0.52728   0.00000  Uiso   1.00
C570   C     0.16590   0.75037   0.97262   0.00000  Uiso   1.00
C571   C     0.06790   0.74999   0.73756   0.00000  Uiso   1.00
C572   C     0.26543   0.75003   0.76244   0.00000  Uiso   1.00
C573   C     0.01264   0.75000   0.73070   0.00000  Uiso   1.00
C574   C     0.32069   0.75006   0.76932   0.00000  Uiso   1.00
C575   C     0.17997   0.54822   0.79567   0.00000  Uiso   1.00
C576   C     0.15403   0.95144   0.70331   0.00000  Uiso   1.00
C577   C     0.17590   0.59396   0.79483   0.00000  Uiso   1.00
C578   C     0.15832   0.90573   0.70469   0.00000  Uiso   1.00
C579   C     0.17094   0.61698   0.75076   0.00000  Uiso   1.00
C580   C     0.16231   0.88301   0.74892   0.00000  Uiso   1.00
C581   C     0.17472   0.59406   0.70791   0.00000  Uiso   1.00
C582   C     0.15743   0.90621   0.79135   0.00000  Uiso   1.00
C583   C     0.17729   0.54849   0.70858   0.00000  Uiso   1.00
C584   C     0.15473   0.95178   0.79020   0.00000  Uiso   1.00
C585   C     0.17198   0.52434   0.75096   0.00000  Uiso   1.00
C586   C     0.16099   0.97564   0.74782   0.00000  Uiso   1.00
Cu587  Cu    0.16667   0.74999   0.79821   0.00000  Uiso   1.00
Cu588  Cu    0.16667   0.75000   0.70178   0.00000  Uiso   1.00
H589   H     0.32601   0.74996   0.69365   0.00000  Uiso   1.00
H590   H     0.00730   0.75012   0.80638   0.00000  Uiso   1.00
H591   H     0.18000   0.61170   0.82896   0.00000  Uiso   1.00
H592   H     0.15509   0.88777   0.67073   0.00000  Uiso   1.00
H593   H     0.17649   0.61123   0.67390   0.00000  Uiso   1.00
H594   H     0.15493   0.88923   0.82534   0.00000  Uiso   1.00
H595   H     0.18549   0.53286   0.67592   0.00000  Uiso   1.00
H596   H     0.14594   0.96778   0.82250   0.00000  Uiso   1.00
H597   H     0.19927   0.81384   0.62881   0.00000  Uiso   1.00
H598   H     0.09074   0.72452   0.86570   0.00000  Uiso   1.00
H599   H     0.13411   0.68614   0.61946   0.00000  Uiso   1.00
H600   H     0.24270   0.77528   0.88628   0.00000  Uiso   1.00
H601   H     0.13540   0.68483   0.53123   0.00000  Uiso   1.00
H602   H     0.24427   0.77417   0.97485   0.00000  Uiso   1.00
N603   N     0.16667   0.75001   0.62934   0.00000  Uiso   1.00
N604   N     0.16667   0.74999   0.87065   0.00000  Uiso   1.00
O605   O     0.16667   0.68572   0.79071   0.00000  Uiso   1.00
O606   O     0.16666   0.81427   0.70928   0.00000  Uiso   1.00
O607   O     0.16667   0.68573   0.70928   0.00000  Uiso   1.00
O608   O     0.16666   0.81427   0.79072   0.00000  Uiso   1.00
O609   O     0.09161   0.74999   0.78132   0.00000  Uiso   1.00
O610   O     0.24172   0.75000   0.71868   0.00000  Uiso   1.00
O611   O     0.09161   0.75000   0.69988   0.00000  Uiso   1.00
O612   O     0.24172   0.75000   0.80011   0.00000  Uiso   1.00
I613   I     0.21751   0.52419   0.86404   0.00000  Uiso   1.00
I614   I     0.11732   0.97445   0.63417   0.00000  Uiso   1.00
N615   N     0.20110   0.82652   0.53405   0.00000  Uiso   1.00
H616   H     0.23906   0.83304   0.54944   0.00000  Uiso   1.00
H617   H     0.17817   0.85257   0.54296   0.00000  Uiso   1.00
N618   N     0.07581   0.72388   0.95861   0.00000  Uiso   1.00
H619   H     0.06663   0.69172   0.94716   0.00000  Uiso   1.00
H620   H     0.04625   0.74446   0.94265   0.00000  Uiso   1.00
C621   C     0.50099   0.66501   0.75019   0.00000  Uiso   1.00
C622   C     0.49901   0.83499   0.74978   0.00000  Uiso   1.00
C623   C     0.51782   0.78735   0.55617   0.00000  Uiso   1.00
C624   C     0.45567   0.73638   0.94041   0.00000  Uiso   1.00
C625   C     0.51809   0.78584   0.60714   0.00000  Uiso   1.00
C626   C     0.45741   0.73595   0.88971   0.00000  Uiso   1.00
C627   C     0.48199   0.71451   0.60209   0.00000  Uiso   1.00
C628   C     0.54226   0.76400   0.90110   0.00000  Uiso   1.00
C629   C     0.48213   0.71404   0.55141   0.00000  Uiso   1.00
C630   C     0.54286   0.76390   0.95189   0.00000  Uiso   1.00
C631   C     0.49974   0.75075   0.52728   0.00000  Uiso   1.00
C632   C     0.49923   0.75037   0.97262   0.00000  Uiso   1.00
C633   C     0.40124   0.74999   0.73756   0.00000  Uiso   1.00
C634   C     0.59876   0.75003   0.76244   0.00000  Uiso   1.00
C635   C     0.34597   0.75000   0.73070   0.00000  Uiso   1.00
C636   C     0.65402   0.75006   0.76932   0.00000  Uiso   1.00
C637   C     0.51330   0.54822   0.79567   0.00000  Uiso   1.00
C638   C     0.48736   0.95144   0.70331   0.00000  Uiso   1.00
C639   C     0.50924   0.59396   0.79483   0.00000  Uiso   1.00
C640   C     0.49165   0.90573   0.70469   0.00000  Uiso   1.00
C641   C     0.50428   0.61698   0.75076   0.00000  Uiso   1.00
C642   C     0.49564   0.88301   0.74892   0.00000  Uiso   1.00
C643   C     0.50806   0.59406   0.70791   0.00000  Uiso   1.00
C644   C     0.49076   0.90621   0.79135   0.00000  Uiso   1.00
C645   C     0.51062   0.54849   0.70858   0.00000  Uiso   1.00
C646   C     0.48807   0.95178   0.79020   0.00000  Uiso   1.00
C647   C     0.50532   0.52434   0.75096   0.00000  Uiso   1.00
C648   C     0.49432   0.97564   0.74782   0.00000  Uiso   1.00
Cu649  Cu    0.50000   0.74999   0.79821   0.00000  Uiso   1.00
Cu650  Cu    0.50000   0.75000   0.70178   0.00000  Uiso   1.00
H651   H     0.65935   0.74996   0.69365   0.00000  Uiso   1.00
H652   H     0.34063   0.75012   0.80638   0.00000  Uiso   1.00
H653   H     0.51333   0.61170   0.82896   0.00000  Uiso   1.00
H654   H     0.48842   0.88777   0.67073   0.00000  Uiso   1.00
H655   H     0.50983   0.61123   0.67390   0.00000  Uiso   1.00
H656   H     0.48826   0.88923   0.82534   0.00000  Uiso   1.00
H657   H     0.51882   0.53286   0.67592   0.00000  Uiso   1.00
H658   H     0.47927   0.96778   0.82250   0.00000  Uiso   1.00
H659   H     0.53260   0.81384   0.62881   0.00000  Uiso   1.00
H660   H     0.42407   0.72452   0.86570   0.00000  Uiso   1.00
H661   H     0.46744   0.68614   0.61946   0.00000  Uiso   1.00
H662   H     0.57604   0.77528   0.88628   0.00000  Uiso   1.00
H663   H     0.46874   0.68483   0.53123   0.00000  Uiso   1.00
H664   H     0.57760   0.77417   0.97485   0.00000  Uiso   1.00
N665   N     0.50000   0.75001   0.62934   0.00000  Uiso   1.00
N666   N     0.50000   0.74999   0.87065   0.00000  Uiso   1.00
O667   O     0.50000   0.68572   0.79071   0.00000  Uiso   1.00
O668   O     0.50000   0.81427   0.70928   0.00000  Uiso   1.00
O669   O     0.50000   0.68573   0.70928   0.00000  Uiso   1.00
O670   O     0.50000   0.81427   0.79072   0.00000  Uiso   1.00
O671   O     0.42495   0.74999   0.78132   0.00000  Uiso   1.00
O672   O     0.57505   0.75000   0.71868   0.00000  Uiso   1.00
O673   O     0.42495   0.75000   0.69988   0.00000  Uiso   1.00
O674   O     0.57505   0.75000   0.80011   0.00000  Uiso   1.00
I675   I     0.55084   0.52419   0.86404   0.00000  Uiso   1.00
I676   I     0.45065   0.97445   0.63417   0.00000  Uiso   1.00
N677   N     0.53444   0.82652   0.53405   0.00000  Uiso   1.00
H678   H     0.57240   0.83304   0.54944   0.00000  Uiso   1.00
H679   H     0.51150   0.85257   0.54296   0.00000  Uiso   1.00
N680   N     0.40915   0.72388   0.95861   0.00000  Uiso   1.00
H681   H     0.39997   0.69172   0.94716   0.00000  Uiso   1.00
H682   H     0.37958   0.74446   0.94265   0.00000  Uiso   1.00
C683   C     0.83433   0.66501   0.75019   0.00000  Uiso   1.00
C684   C     0.83234   0.83499   0.74978   0.00000  Uiso   1.00
C685   C     0.85115   0.78735   0.55617   0.00000  Uiso   1.00
C686   C     0.78900   0.73638   0.94041   0.00000  Uiso   1.00
C687   C     0.85143   0.78584   0.60714   0.00000  Uiso   1.00
C688   C     0.79075   0.73595   0.88971   0.00000  Uiso   1.00
C689   C     0.81532   0.71451   0.60209   0.00000  Uiso   1.00
C690   C     0.87559   0.76400   0.90110   0.00000  Uiso   1.00
C691   C     0.81547   0.71404   0.55141   0.00000  Uiso   1.00
C692   C     0.87620   0.76390   0.95189   0.00000  Uiso   1.00
C693   C     0.83308   0.75075   0.52728   0.00000  Uiso   1.00
C694   C     0.83257   0.75037   0.97262   0.00000  Uiso   1.00
C695   C     0.73457   0.74999   0.73756   0.00000  Uiso   1.00
C696   C     0.93210   0.75003   0.76244   0.00000  Uiso   1.00
C697   C     0.67931   0.75000   0.73070   0.00000  Uiso   1.00
C698   C     0.98736   0.75006   0.76932   0.00000  Uiso   1.00
C699   C     0.84664   0.54822   0.79567   0.00000  Uiso   1.00
C700   C     0.82070   0.95144   0.70331   0.00000  Uiso   1.00
C701   C     0.84257   0.59396   0.79483   0.00000  Uiso   1.00
C702   C     0.82498   0.90573   0.70469   0.00000  Uiso   1.00
C703   C     0.83761   0.61698   0.75076   0.00000  Uiso   1.00
C704   C     0.82898   0.88301   0.74892   0.00000  Uiso   1.00
C705   C     0.84139   0.59406   0.70791   0.00000  Uiso   1.00
C706   C     0.82409   0.90621   0.79135   0.00000  Uiso   1.00
C707   C     0.84395   0.54849   0.70858   0.00000  Uiso   1.00
C708   C     0.82140   0.95178   0.79020   0.00000  Uiso   1.00
C709   C     0.83865   0.52434   0.75096   0.00000  Uiso   1.00
C710   C     0.82765   0.97564   0.74782   0.00000  Uiso   1.00
Cu711  Cu    0.83333   0.74999   0.79821   0.00000  Uiso   1.00
Cu712  Cu    0.83333   0.75000   0.70178   0.00000  Uiso   1.00
H713   H     0.99268   0.74996   0.69365   0.00000  Uiso   1.00
H714   H     0.67396   0.75012   0.80638   0.00000  Uiso   1.00
H715   H     0.84667   0.61170   0.82896   0.00000  Uiso   1.00
H716   H     0.82176   0.88777   0.67073   0.00000  Uiso   1.00
H717   H     0.84316   0.61123   0.67390   0.00000  Uiso   1.00
H718   H     0.82160   0.88923   0.82534   0.00000  Uiso   1.00
H719   H     0.85215   0.53286   0.67592   0.00000  Uiso   1.00
H720   H     0.81261   0.96778   0.82250   0.00000  Uiso   1.00
H721   H     0.86594   0.81384   0.62881   0.00000  Uiso   1.00
H722   H     0.75740   0.72452   0.86570   0.00000  Uiso   1.00
H723   H     0.80078   0.68614   0.61946   0.00000  Uiso   1.00
H724   H     0.90937   0.77528   0.88628   0.00000  Uiso   1.00
H725   H     0.80207   0.68483   0.53123   0.00000  Uiso   1.00
H726   H     0.91094   0.77417   0.97485   0.00000  Uiso   1.00
N727   N     0.83333   0.75001   0.62934   0.00000  Uiso   1.00
N728   N     0.83333   0.74999   0.87065   0.00000  Uiso   1.00
O729   O     0.83334   0.68572   0.79071   0.00000  Uiso   1.00
O730   O     0.83333   0.81427   0.70928   0.00000  Uiso   1.00
O731   O     0.83334   0.68573   0.70928   0.00000  Uiso   1.00
O732   O     0.83333   0.81427   0.79072   0.00000  Uiso   1.00
O733   O     0.75828   0.74999   0.78132   0.00000  Uiso   1.00
O734   O     0.90839   0.75000   0.71868   0.00000  Uiso   1.00
O735   O     0.75828   0.75000   0.69988   0.00000  Uiso   1.00
O736   O     0.90839   0.75000   0.80011   0.00000  Uiso   1.00
I737   I     0.88418   0.52419   0.86404   0.00000  Uiso   1.00
I738   I     0.78398   0.97445   0.63417   0.00000  Uiso   1.00
N739   N     0.86777   0.82652   0.53405   0.00000  Uiso   1.00
H740   H     0.90573   0.83304   0.54944   0.00000  Uiso   1.00
H741   H     0.84483   0.85257   0.54296   0.00000  Uiso   1.00
N742   N     0.74248   0.72388   0.95861   0.00000  Uiso   1.00
H743   H     0.73330   0.69172   0.94716   0.00000  Uiso   1.00
H744   H     0.71291   0.74446   0.94265   0.00000  Uiso   1.00
loop_
_geom_bond_atom_site_label_1
_geom_bond_atom_site_label_2
_geom_bond_distance
_geom_bond_site_symmetry_2
_ccdc_geom_bond_type
C1     C21     1.462   .     S
C1     O47     1.293   .     A
C1     O49     1.293   .     A
C2     C22     1.462   .     S
C2     O50     1.294   .     A
C2     O48     1.293   .     A
C3     N57     1.432   .     S
C3     C11     1.415   .     A
C3     C5      1.414   .     A
C4     N60     1.432   .     S
C4     C12     1.414   .     A
C4     C6      1.413   .     A
C5     N45     1.365   .     A
C5     H39     1.081   .     S
C6     N46     1.366   .     A
C6     H40     1.080   .     S
C7     N45     1.365   .     A
C7     C9      1.406   .     A
C7     H41     1.081   .     S
C8     H42     1.080   .     S
C8     N46     1.365   .     A
C8     C10     1.407   .     A
C9     C11     1.408   .     A
C9     H43     1.083   .     S
C10    C12     1.408   .     A
C10    H44     1.082   .     S
C11    C384    1.514   1_554 S
C12    C383    1.514   .     S
C13    C15     1.434   .     S
C13    O53     1.287   .     A
C13    O51     1.285   .     A
C14    O52     1.285   .     A
C14    O54     1.287   .     A
C14    C16     1.434   .     S
C15    C140    1.335   1_455 S
C15    H155    1.087   1_455 S
C16    C77     1.335   .     S
C16    H94     1.087   .     S
C17    I55     2.140   .     S
C17    C19     1.394   .     A
C17    C27     1.429   .     A
C18    I56     2.140   .     S
C18    C28     1.429   .     A
C18    C20     1.394   .     A
C19    C21     1.397   .     A
C19    H33     1.083   .     S
C20    H34     1.083   .     S
C20    C22     1.398   .     A
C21    C23     1.395   .     A
C22    C24     1.395   .     A
C23    H35     1.083   .     S
C23    C25     1.386   .     A
C24    H36     1.083   .     S
C24    C26     1.387   .     A
C25    C27     1.407   .     A
C25    H37     1.072   .     S
C26    C28     1.408   .     A
C26    H38     1.073   .     S
C27    C214    1.508   1_545 S
C28    C213    1.508   .     S
Cu29   Cu30    2.675   .     S
Cu29   N46     2.010   .     S
Cu29   O47     1.965   .     S
Cu29   O50     1.964   .     S
Cu29   O51     1.957   .     S
Cu29   O54     1.959   .     S
Cu30   N45     2.010   .     S
Cu30   O49     1.964   .     S
Cu30   O53     1.959   .     S
Cu30   O48     1.965   .     S
Cu30   O52     1.957   .     S
H31    C77     1.087   .     S
H32    C140    1.087   1_455 S
N57    H58     1.046   .     S
N57    H59     1.046   .     S
N60    H62     1.046   .     S
N60    H61     1.046   .     S
C63    C83     1.462   .     S
C63    O109    1.293   .     A
C63    O111    1.293   .     A
C64    C84     1.462   .     S
C64    O112    1.294   .     A
C64    O110    1.293   .     A
C65    N119    1.432   .     S
C65    C73     1.415   .     A
C65    C67     1.414   .     A
C66    N122    1.432   .     S
C66    C74     1.414   .     A
C66    C68     1.413   .     A
C67    N107    1.365   .     A
C67    H101    1.081   .     S
C68    N108    1.366   .     A
C68    H102    1.080   .     S
C69    N107    1.365   .     A
C69    C71     1.406   .     A
C69    H103    1.081   .     S
C70    H104    1.080   .     S
C70    N108    1.365   .     A
C70    C72     1.407   .     A
C71    C73     1.408   .     A
C71    H105    1.083   .     S
C72    C74     1.408   .     A
C72    H106    1.082   .     S
C73    C446    1.514   1_554 S
C74    C445    1.514   .     S
C75    C77     1.434   .     S
C75    O115    1.287   .     A
C75    O113    1.285   .     A
C76    O114    1.285   .     A
C76    O116    1.287   .     A
C76    C78     1.434   .     S
C78    C139    1.335   .     S
C78    H156    1.087   .     S
C79    I117    2.140   .     S
C79    C81     1.394   .     A
C79    C89     1.429   .     A
C80    I118    2.140   .     S
C80    C90     1.429   .     A
C80    C82     1.394   .     A
C81    C83     1.397   .     A
C81    H95     1.083   .     S
C82    H96     1.083   .     S
C82    C84     1.398   .     A
C83    C85     1.395   .     A
C84    C86     1.395   .     A
C85    H97     1.083   .     S
C85    C87     1.386   .     A
C86    H98     1.083   .     S
C86    C88     1.387   .     A
C87    C89     1.407   .     A
C87    H99     1.072   .     S
C88    C90     1.408   .     A
C88    H100    1.073   .     S
C89    C276    1.508   1_545 S
C90    C275    1.508   .     S
Cu91   Cu92    2.675   .     S
Cu91   N108    2.010   .     S
Cu91   O109    1.965   .     S
Cu91   O112    1.964   .     S
Cu91   O113    1.957   .     S
Cu91   O116    1.959   .     S
Cu92   N107    2.010   .     S
Cu92   O111    1.964   .     S
Cu92   O115    1.959   .     S
Cu92   O110    1.965   .     S
Cu92   O114    1.957   .     S
H93    C139    1.087   .     S
N119   H120    1.046   .     S
N119   H121    1.046   .     S
N122   H124    1.046   .     S
N122   H123    1.046   .     S
C125   C145    1.462   .     S
C125   O171    1.293   .     A
C125   O173    1.293   .     A
C126   C146    1.462   .     S
C126   O174    1.294   .     A
C126   O172    1.293   .     A
C127   N181    1.432   .     S
C127   C135    1.415   .     A
C127   C129    1.414   .     A
C128   N184    1.432   .     S
C128   C136    1.414   .     A
C128   C130    1.413   .     A
C129   N169    1.365   .     A
C129   H163    1.081   .     S
C130   N170    1.366   .     A
C130   H164    1.080   .     S
C131   N169    1.365   .     A
C131   C133    1.406   .     A
C131   H165    1.081   .     S
C132   H166    1.080   .     S
C132   N170    1.365   .     A
C132   C134    1.407   .     A
C133   C135    1.408   .     A
C133   H167    1.083   .     S
C134   C136    1.408   .     A
C134   H168    1.082   .     S
C135   C508    1.514   1_554 S
C136   C507    1.514   .     S
C137   C139    1.434   .     S
C137   O177    1.287   .     A
C137   O175    1.285   .     A
C138   O176    1.285   .     A
C138   O178    1.287   .     A
C138   C140    1.434   .     S
C140   C15     1.335   1_655 S
C140   H32     1.087   1_655 S
C141   I179    2.140   .     S
C141   C143    1.394   .     A
C141   C151    1.429   .     A
C142   I180    2.140   .     S
C142   C152    1.429   .     A
C142   C144    1.394   .     A
C143   C145    1.397   .     A
C143   H157    1.083   .     S
C144   H158    1.083   .     S
C144   C146    1.398   .     A
C145   C147    1.395   .     A
C146   C148    1.395   .     A
C147   H159    1.083   .     S
C147   C149    1.386   .     A
C148   H160    1.083   .     S
C148   C150    1.387   .     A
C149   C151    1.407   .     A
C149   H161    1.072   .     S
C150   C152    1.408   .     A
C150   H162    1.073   .     S
C151   C338    1.508   1_545 S
C152   C337    1.508   .     S
Cu153  Cu154   2.675   .     S
Cu153  N170    2.010   .     S
Cu153  O171    1.965   .     S
Cu153  O174    1.964   .     S
Cu153  O175    1.957   .     S
Cu153  O178    1.959   .     S
Cu154  N169    2.010   .     S
Cu154  O173    1.964   .     S
Cu154  O177    1.959   .     S
Cu154  O172    1.965   .     S
Cu154  O176    1.957   .     S
H155   C15     1.087   1_655 S
N181   H182    1.046   .     S
N181   H183    1.046   .     S
N184   H186    1.046   .     S
N184   H185    1.046   .     S
C187   C207    1.462   .     S
C187   O233    1.293   .     A
C187   O235    1.293   .     A
C188   C208    1.462   .     S
C188   O236    1.294   .     A
C188   O234    1.293   .     A
C189   N243    1.432   .     S
C189   C197    1.415   .     A
C189   C191    1.414   .     A
C190   N246    1.432   .     S
C190   C198    1.414   .     A
C190   C192    1.413   .     A
C191   N231    1.365   .     A
C191   H225    1.081   .     S
C192   N232    1.366   .     A
C192   H226    1.080   .     S
C193   N231    1.365   .     A
C193   C195    1.406   .     A
C193   H227    1.081   .     S
C194   H228    1.080   .     S
C194   N232    1.365   .     A
C194   C196    1.407   .     A
C195   C197    1.408   .     A
C195   H229    1.083   .     S
C196   C198    1.408   .     A
C196   H230    1.082   .     S
C197   C570    1.514   1_554 S
C198   C569    1.514   .     S
C199   C201    1.434   .     S
C199   O239    1.287   .     A
C199   O237    1.285   .     A
C200   O238    1.285   .     A
C200   O240    1.287   .     A
C200   C202    1.434   .     S
C201   C326    1.335   1_455 S
C201   H341    1.087   1_455 S
C202   C263    1.335   .     S
C202   H280    1.087   .     S
C203   I241    2.140   .     S
C203   C205    1.394   .     A
C203   C213    1.429   .     A
C204   I242    2.140   .     S
C204   C214    1.429   .     A
C204   C206    1.394   .     A
C205   C207    1.397   .     A
C205   H219    1.083   .     S
C206   H220    1.083   .     S
C206   C208    1.398   .     A
C207   C209    1.395   .     A
C208   C210    1.395   .     A
C209   H221    1.083   .     S
C209   C211    1.386   .     A
C210   H222    1.083   .     S
C210   C212    1.387   .     A
C211   C213    1.407   .     A
C211   H223    1.072   .     S
C212   C214    1.408   .     A
C212   H224    1.073   .     S
C214   C27     1.508   1_565 S
Cu215  Cu216   2.675   .     S
Cu215  N232    2.010   .     S
Cu215  O233    1.965   .     S
Cu215  O236    1.964   .     S
Cu215  O237    1.957   .     S
Cu215  O240    1.959   .     S
Cu216  N231    2.010   .     S
Cu216  O235    1.964   .     S
Cu216  O239    1.959   .     S
Cu216  O234    1.965   .     S
Cu216  O238    1.957   .     S
H217   C263    1.087   .     S
H218   C326    1.087   1_455 S
N243   H244    1.046   .     S
N243   H245    1.046   .     S
N246   H248    1.046   .     S
N246   H247    1.046   .     S
C249   C269    1.462   .     S
C249   O295    1.293   .     A
C249   O297    1.293   .     A
C250   C270    1.462   .     S
C250   O298    1.294   .     A
C250   O296    1.293   .     A
C251   N305    1.432   .     S
C251   C259    1.415   .     A
C251   C253    1.414   .     A
C252   N308    1.432   .     S
C252   C260    1.414   .     A
C252   C254    1.413   .     A
C253   N293    1.365   .     A
C253   H287    1.081   .     S
C254   N294    1.366   .     A
C254   H288    1.080   .     S
C255   N293    1.365   .     A
C255   C257    1.406   .     A
C255   H289    1.081   .     S
C256   H290    1.080   .     S
C256   N294    1.365   .     A
C256   C258    1.407   .     A
C257   C259    1.408   .     A
C257   H291    1.083   .     S
C258   C260    1.408   .     A
C258   H292    1.082   .     S
C259   C632    1.514   1_554 S
C260   C631    1.514   .     S
C261   C263    1.434   .     S
C261   O301    1.287   .     A
C261   O299    1.285   .     A
C262   O300    1.285   .     A
C262   O302    1.287   .     A
C262   C264    1.434   .     S
C264   C325    1.335   .     S
C264   H342    1.087   .     S
C265   I303    2.140   .     S
C265   C267    1.394   .     A
C265   C275    1.429   .     A
C266   I304    2.140   .     S
C266   C276    1.429   .     A
C266   C268    1.394   .     A
C267   C269    1.397   .     A
C267   H281    1.083   .     S
C268   H282    1.083   .     S
C268   C270    1.398   .     A
C269   C271    1.395   .     A
C270   C272    1.395   .     A
C271   H283    1.083   .     S
C271   C273    1.386   .     A
C272   H284    1.083   .     S
C272   C274    1.387   .     A
C273   C275    1.407   .     A
C273   H285    1.072   .     S
C274   C276    1.408   .     A
C274   H286    1.073   .     S
C276   C89     1.508   1_565 S
Cu277  Cu278   2.675   .     S
Cu277  N294    2.010   .     S
Cu277  O295    1.965   .     S
Cu277  O298    1.964   .     S
Cu277  O299    1.957   .     S
Cu277  O302    1.959   .     S
Cu278  N293    2.010   .     S
Cu278  O297    1.964   .     S
Cu278  O301    1.959   .     S
Cu278  O296    1.965   .     S
Cu278  O300    1.957   .     S
H279   C325    1.087   .     S
N305   H306    1.046   .     S
N305   H307    1.046   .     S
N308   H310    1.046   .     S
N308   H309    1.046   .     S
C311   C331    1.462   .     S
C311   O357    1.293   .     A
C311   O359    1.293   .     A
C312   C332    1.462   .     S
C312   O360    1.294   .     A
C312   O358    1.293   .     A
C313   N367    1.432   .     S
C313   C321    1.415   .     A
C313   C315    1.414   .     A
C314   N370    1.432   .     S
C314   C322    1.414   .     A
C314   C316    1.413   .     A
C315   N355    1.365   .     A
C315   H349    1.081   .     S
C316   N356    1.366   .     A
C316   H350    1.080   .     S
C317   N355    1.365   .     A
C317   C319    1.406   .     A
C317   H351    1.081   .     S
C318   H352    1.080   .     S
C318   N356    1.365   .     A
C318   C320    1.407   .     A
C319   C321    1.408   .     A
C319   H353    1.083   .     S
C320   C322    1.408   .     A
C320   H354    1.082   .     S
C321   C694    1.514   1_554 S
C322   C693    1.514   .     S
C323   C325    1.434   .     S
C323   O363    1.287   .     A
C323   O361    1.285   .     A
C324   O362    1.285   .     A
C324   O364    1.287   .     A
C324   C326    1.434   .     S
C326   C201    1.335   1_655 S
C326   H218    1.087   1_655 S
C327   I365    2.140   .     S
C327   C329    1.394   .     A
C327   C337    1.429   .     A
C328   I366    2.140   .     S
C328   C338    1.429   .     A
C328   C330    1.394   .     A
C329   C331    1.397   .     A
C329   H343    1.083   .     S
C330   H344    1.083   .     S
C330   C332    1.398   .     A
C331   C333    1.395   .     A
C332   C334    1.395   .     A
C333   H345    1.083   .     S
C333   C335    1.386   .     A
C334   H346    1.083   .     S
C334   C336    1.387   .     A
C335   C337    1.407   .     A
C335   H347    1.072   .     S
C336   C338    1.408   .     A
C336   H348    1.073   .     S
C338   C151    1.508   1_565 S
Cu339  Cu340   2.675   .     S
Cu339  N356    2.010   .     S
Cu339  O357    1.965   .     S
Cu339  O360    1.964   .     S
Cu339  O361    1.957   .     S
Cu339  O364    1.959   .     S
Cu340  N355    2.010   .     S
Cu340  O359    1.964   .     S
Cu340  O363    1.959   .     S
Cu340  O358    1.965   .     S
Cu340  O362    1.957   .     S
H341   C201    1.087   1_655 S
N367   H368    1.046   .     S
N367   H369    1.046   .     S
N370   H372    1.046   .     S
N370   H371    1.046   .     S
C373   C393    1.462   .     S
C373   O419    1.293   .     A
C373   O421    1.293   .     A
C374   C394    1.462   .     S
C374   O422    1.294   .     A
C374   O420    1.293   .     A
C375   N429    1.432   .     S
C375   C383    1.415   .     A
C375   C377    1.414   .     A
C376   N432    1.432   .     S
C376   C384    1.414   .     A
C376   C378    1.413   .     A
C377   N417    1.365   .     A
C377   H411    1.081   .     S
C378   N418    1.366   .     A
C378   H412    1.080   .     S
C379   N417    1.365   .     A
C379   C381    1.406   .     A
C379   H413    1.081   .     S
C380   H414    1.080   .     S
C380   N418    1.365   .     A
C380   C382    1.407   .     A
C381   C383    1.408   .     A
C381   H415    1.083   .     S
C382   C384    1.408   .     A
C382   H416    1.082   .     S
C384   C11     1.514   1_556 S
C385   C387    1.434   .     S
C385   O425    1.287   .     A
C385   O423    1.285   .     A
C386   O424    1.285   .     A
C386   O426    1.287   .     A
C386   C388    1.434   .     S
C387   C512    1.335   1_455 S
C387   H527    1.087   1_455 S
C388   C449    1.335   .     S
C388   H466    1.087   .     S
C389   I427    2.140   .     S
C389   C391    1.394   .     A
C389   C399    1.429   .     A
C390   I428    2.140   .     S
C390   C400    1.429   .     A
C390   C392    1.394   .     A
C391   C393    1.397   .     A
C391   H405    1.083   .     S
C392   H406    1.083   .     S
C392   C394    1.398   .     A
C393   C395    1.395   .     A
C394   C396    1.395   .     A
C395   H407    1.083   .     S
C395   C397    1.386   .     A
C396   H408    1.083   .     S
C396   C398    1.387   .     A
C397   C399    1.407   .     A
C397   H409    1.072   .     S
C398   C400    1.408   .     A
C398   H410    1.073   .     S
C399   C586    1.508   1_545 S
C400   C585    1.508   .     S
Cu401  Cu402   2.675   .     S
Cu401  N418    2.010   .     S
Cu401  O419    1.965   .     S
Cu401  O422    1.964   .     S
Cu401  O423    1.957   .     S
Cu401  O426    1.959   .     S
Cu402  N417    2.010   .     S
Cu402  O421    1.964   .     S
Cu402  O425    1.959   .     S
Cu402  O420    1.965   .     S
Cu402  O424    1.957   .     S
H403   C449    1.087   .     S
H404   C512    1.087   1_455 S
N429   H430    1.046   .     S
N429   H431    1.046   .     S
N432   H434    1.046   .     S
N432   H433    1.046   .     S
C435   C455    1.462   .     S
C435   O481    1.293   .     A
C435   O483    1.293   .     A
C436   C456    1.462   .     S
C436   O484    1.294   .     A
C436   O482    1.293   .     A
C437   N491    1.432   .     S
C437   C445    1.415   .     A
C437   C439    1.414   .     A
C438   N494    1.432   .     S
C438   C446    1.414   .     A
C438   C440    1.413   .     A
C439   N479    1.365   .     A
C439   H473    1.081   .     S
C440   N480    1.366   .     A
C440   H474    1.080   .     S
C441   N479    1.365   .     A
C441   C443    1.406   .     A
C441   H475    1.081   .     S
C442   H476    1.080   .     S
C442   N480    1.365   .     A
C442   C444    1.407   .     A
C443   C445    1.408   .     A
C443   H477    1.083   .     S
C444   C446    1.408   .     A
C444   H478    1.082   .     S
C446   C73     1.514   1_556 S
C447   C449    1.434   .     S
C447   O487    1.287   .     A
C447   O485    1.285   .     A
C448   O486    1.285   .     A
C448   O488    1.287   .     A
C448   C450    1.434   .     S
C450   C511    1.335   .     S
C450   H528    1.087   .     S
C451   I489    2.140   .     S
C451   C453    1.394   .     A
C451   C461    1.429   .     A
C452   I490    2.140   .     S
C452   C462    1.429   .     A
C452   C454    1.394   .     A
C453   C455    1.397   .     A
C453   H467    1.083   .     S
C454   H468    1.083   .     S
C454   C456    1.398   .     A
C455   C457    1.395   .     A
C456   C458    1.395   .     A
C457   H469    1.083   .     S
C457   C459    1.386   .     A
C458   H470    1.083   .     S
C458   C460    1.387   .     A
C459   C461    1.407   .     A
C459   H471    1.072   .     S
C460   C462    1.408   .     A
C460   H472    1.073   .     S
C461   C648    1.508   1_545 S
C462   C647    1.508   .     S
Cu463  Cu464   2.675   .     S
Cu463  N480    2.010   .     S
Cu463  O481    1.965   .     S
Cu463  O484    1.964   .     S
Cu463  O485    1.957   .     S
Cu463  O488    1.959   .     S
Cu464  N479    2.010   .     S
Cu464  O483    1.964   .     S
Cu464  O487    1.959   .     S
Cu464  O482    1.965   .     S
Cu464  O486    1.957   .     S
H465   C511    1.087   .     S
N491   H492    1.046   .     S
N491   H493    1.046   .     S
N494   H496    1.046   .     S
N494   H495    1.046   .     S
C497   C517    1.462   .     S
C497   O543    1.293   .     A
C497   O545    1.293   .     A
C498   C518    1.462   .     S
C498   O546    1.294   .     A
C498   O544    1.293   .     A
C499   N553    1.432   .     S
C499   C507    1.415   .     A
C499   C501    1.414   .     A
C500   N556    1.432   .     S
C500   C508    1.414   .     A
C500   C502    1.413   .     A
C501   N541    1.365   .     A
C501   H535    1.081   .     S
C502   N542    1.366   .     A
C502   H536    1.080   .     S
C503   N541    1.365   .     A
C503   C505    1.406   .     A
C503   H537    1.081   .     S
C504   H538    1.080   .     S
C504   N542    1.365   .     A
C504   C506    1.407   .     A
C505   C507    1.408   .     A
C505   H539    1.083   .     S
C506   C508    1.408   .     A
C506   H540    1.082   .     S
C508   C135    1.514   1_556 S
C509   C511    1.434   .     S
C509   O549    1.287   .     A
C509   O547    1.285   .     A
C510   O548    1.285   .     A
C510   O550    1.287   .     A
C510   C512    1.434   .     S
C512   C387    1.335   1_655 S
C512   H404    1.087   1_655 S
C513   I551    2.140   .     S
C513   C515    1.394   .     A
C513   C523    1.429   .     A
C514   I552    2.140   .     S
C514   C524    1.429   .     A
C514   C516    1.394   .     A
C515   C517    1.397   .     A
C515   H529    1.083   .     S
C516   H530    1.083   .     S
C516   C518    1.398   .     A
C517   C519    1.395   .     A
C518   C520    1.395   .     A
C519   H531    1.083   .     S
C519   C521    1.386   .     A
C520   H532    1.083   .     S
C520   C522    1.387   .     A
C521   C523    1.407   .     A
C521   H533    1.072   .     S
C522   C524    1.408   .     A
C522   H534    1.073   .     S
C523   C710    1.508   1_545 S
C524   C709    1.508   .     S
Cu525  Cu526   2.675   .     S
Cu525  N542    2.010   .     S
Cu525  O543    1.965   .     S
Cu525  O546    1.964   .     S
Cu525  O547    1.957   .     S
Cu525  O550    1.959   .     S
Cu526  N541    2.010   .     S
Cu526  O545    1.964   .     S
Cu526  O549    1.959   .     S
Cu526  O544    1.965   .     S
Cu526  O548    1.957   .     S
H527   C387    1.087   1_655 S
N553   H554    1.046   .     S
N553   H555    1.046   .     S
N556   H558    1.046   .     S
N556   H557    1.046   .     S
C559   C579    1.462   .     S
C559   O605    1.293   .     A
C559   O607    1.293   .     A
C560   C580    1.462   .     S
C560   O608    1.294   .     A
C560   O606    1.293   .     A
C561   N615    1.432   .     S
C561   C569    1.415   .     A
C561   C563    1.414   .     A
C562   N618    1.432   .     S
C562   C570    1.414   .     A
C562   C564    1.413   .     A
C563   N603    1.365   .     A
C563   H597    1.081   .     S
C564   N604    1.366   .     A
C564   H598    1.080   .     S
C565   N603    1.365   .     A
C565   C567    1.406   .     A
C565   H599    1.081   .     S
C566   H600    1.080   .     S
C566   N604    1.365   .     A
C566   C568    1.407   .     A
C567   C569    1.408   .     A
C567   H601    1.083   .     S
C568   C570    1.408   .     A
C568   H602    1.082   .     S
C570   C197    1.514   1_556 S
C571   C573    1.434   .     S
C571   O611    1.287   .     A
C571   O609    1.285   .     A
C572   O610    1.285   .     A
C572   O612    1.287   .     A
C572   C574    1.434   .     S
C573   C698    1.335   1_455 S
C573   H713    1.087   1_455 S
C574   C635    1.335   .     S
C574   H652    1.087   .     S
C575   I613    2.140   .     S
C575   C577    1.394   .     A
C575   C585    1.429   .     A
C576   I614    2.140   .     S
C576   C586    1.429   .     A
C576   C578    1.394   .     A
C577   C579    1.397   .     A
C577   H591    1.083   .     S
C578   H592    1.083   .     S
C578   C580    1.398   .     A
C579   C581    1.395   .     A
C580   C582    1.395   .     A
C581   H593    1.083   .     S
C581   C583    1.386   .     A
C582   H594    1.083   .     S
C582   C584    1.387   .     A
C583   C585    1.407   .     A
C583   H595    1.072   .     S
C584   C586    1.408   .     A
C584   H596    1.073   .     S
C586   C399    1.508   1_565 S
Cu587  Cu588   2.675   .     S
Cu587  N604    2.010   .     S
Cu587  O605    1.965   .     S
Cu587  O608    1.964   .     S
Cu587  O609    1.957   .     S
Cu587  O612    1.959   .     S
Cu588  N603    2.010   .     S
Cu588  O607    1.964   .     S
Cu588  O611    1.959   .     S
Cu588  O606    1.965   .     S
Cu588  O610    1.957   .     S
H589   C635    1.087   .     S
H590   C698    1.087   1_455 S
N615   H616    1.046   .     S
N615   H617    1.046   .     S
N618   H620    1.046   .     S
N618   H619    1.046   .     S
C621   C641    1.462   .     S
C621   O667    1.293   .     A
C621   O669    1.293   .     A
C622   C642    1.462   .     S
C622   O670    1.294   .     A
C622   O668    1.293   .     A
C623   N677    1.432   .     S
C623   C631    1.415   .     A
C623   C625    1.414   .     A
C624   N680    1.432   .     S
C624   C632    1.414   .     A
C624   C626    1.413   .     A
C625   N665    1.365   .     A
C625   H659    1.081   .     S
C626   N666    1.366   .     A
C626   H660    1.080   .     S
C627   N665    1.365   .     A
C627   C629    1.406   .     A
C627   H661    1.081   .     S
C628   H662    1.080   .     S
C628   N666    1.365   .     A
C628   C630    1.407   .     A
C629   C631    1.408   .     A
C629   H663    1.083   .     S
C630   C632    1.408   .     A
C630   H664    1.082   .     S
C632   C259    1.514   1_556 S
C633   C635    1.434   .     S
C633   O673    1.287   .     A
C633   O671    1.285   .     A
C634   O672    1.285   .     A
C634   O674    1.287   .     A
C634   C636    1.434   .     S
C636   C697    1.335   .     S
C636   H714    1.087   .     S
C637   I675    2.140   .     S
C637   C639    1.394   .     A
C637   C647    1.429   .     A
C638   I676    2.140   .     S
C638   C648    1.429   .     A
C638   C640    1.394   .     A
C639   C641    1.397   .     A
C639   H653    1.083   .     S
C640   H654    1.083   .     S
C640   C642    1.398   .     A
C641   C643    1.395   .     A
C642   C644    1.395   .     A
C643   H655    1.083   .     S
C643   C645    1.386   .     A
C644   H656    1.083   .     S
C644   C646    1.387   .     A
C645   C647    1.407   .     A
C645   H657    1.072   .     S
C646   C648    1.408   .     A
C646   H658    1.073   .     S
C648   C461    1.508   1_565 S
Cu649  Cu650   2.675   .     S
Cu649  N666    2.010   .     S
Cu649  O667    1.965   .     S
Cu649  O670    1.964   .     S
Cu649  O671    1.957   .     S
Cu649  O674    1.959   .     S
Cu650  N665    2.010   .     S
Cu650  O669    1.964   .     S
Cu650  O673    1.959   .     S
Cu650  O668    1.965   .     S
Cu650  O672    1.957   .     S
H651   C697    1.087   .     S
N677   H678    1.046   .     S
N677   H679    1.046   .     S
N680   H682    1.046   .     S
N680   H681    1.046   .     S
C683   C703    1.462   .     S
C683   O729    1.293   .     A
C683   O731    1.293   .     A
C684   C704    1.462   .     S
C684   O732    1.294   .     A
C684   O730    1.293   .     A
C685   N739    1.432   .     S
C685   C693    1.415   .     A
C685   C687    1.414   .     A
C686   N742    1.432   .     S
C686   C694    1.414   .     A
C686   C688    1.413   .     A
C687   N727    1.365   .     A
C687   H721    1.081   .     S
C688   N728    1.366   .     A
C688   H722    1.080   .     S
C689   N727    1.365   .     A
C689   C691    1.406   .     A
C689   H723    1.081   .     S
C690   H724    1.080   .     S
C690   N728    1.365   .     A
C690   C692    1.407   .     A
C691   C693    1.408   .     A
C691   H725    1.083   .     S
C692   C694    1.408   .     A
C692   H726    1.082   .     S
C694   C321    1.514   1_556 S
C695   C697    1.434   .     S
C695   O735    1.287   .     A
C695   O733    1.285   .     A
C696   O734    1.285   .     A
C696   O736    1.287   .     A
C696   C698    1.434   .     S
C698   C573    1.335   1_655 S
C698   H590    1.087   1_655 S
C699   I737    2.140   .     S
C699   C701    1.394   .     A
C699   C709    1.429   .     A
C700   I738    2.140   .     S
C700   C710    1.429   .     A
C700   C702    1.394   .     A
C701   C703    1.397   .     A
C701   H715    1.083   .     S
C702   H716    1.083   .     S
C702   C704    1.398   .     A
C703   C705    1.395   .     A
C704   C706    1.395   .     A
C705   H717    1.083   .     S
C705   C707    1.386   .     A
C706   H718    1.083   .     S
C706   C708    1.387   .     A
C707   C709    1.407   .     A
C707   H719    1.072   .     S
C708   C710    1.408   .     A
C708   H720    1.073   .     S
C710   C523    1.508   1_565 S
Cu711  Cu712   2.675   .     S
Cu711  N728    2.010   .     S
Cu711  O729    1.965   .     S
Cu711  O732    1.964   .     S
Cu711  O733    1.957   .     S
Cu711  O736    1.959   .     S
Cu712  N727    2.010   .     S
Cu712  O731    1.964   .     S
Cu712  O735    1.959   .     S
Cu712  O730    1.965   .     S
Cu712  O734    1.957   .     S
H713   C573    1.087   1_655 S
N739   H740    1.046   .     S
N739   H741    1.046   .     S
N742   H744    1.046   .     S
N742   H743    1.046   .     S
