data_str_m3_o10_o16_pcu_sym.91
_audit_creation_date              2020-01-03
_audit_creation_method            'Materials Studio'
_symmetry_space_group_name_H-M    'P1'
_symmetry_Int_Tables_number       1
_symmetry_cell_setting            triclinic
loop_
_symmetry_equiv_pos_as_xyz
  x,y,z
_cell_length_a                    23.5975
_cell_length_b                    25.6827
_cell_length_c                    24.1793
_cell_angle_alpha                 92.9059
_cell_angle_beta                  101.2280
_cell_angle_gamma                 93.9923
loop_
_atom_site_label
_atom_site_type_symbol
_atom_site_fract_x
_atom_site_fract_y
_atom_site_fract_z
_atom_site_U_iso_or_equiv
_atom_site_adp_type
_atom_site_occupancy
C1     C     0.01482   0.26485   0.24879   0.00000  Uiso   1.00
C2     C     0.05311   0.16803   0.41613   0.00000  Uiso   1.00
C3     C     0.02261   0.31943   0.24832   0.00000  Uiso   1.00
C4     C     0.03529   0.16789   0.35513   0.00000  Uiso   1.00
C5     C     0.31099   0.01396   0.25255   0.00000  Uiso   1.00
C6     C     0.31860   0.06850   0.25150   0.00000  Uiso   1.00
C7     C     0.29752   0.16281   0.14483   0.00000  Uiso   1.00
C8     C     0.27001   0.09648   0.00026   0.00000  Uiso   1.00
C9     C     0.27673   0.15267   0.08471   0.00000  Uiso   1.00
C10    C     0.02475   0.19840   0.45042   0.00000  Uiso   1.00
C11    C     0.04880   0.20876   0.00731   0.00000  Uiso   1.00
C12    C     0.13243   0.16179   0.49488   0.00000  Uiso   1.00
C13    C     0.10274   0.19169   0.02941   0.00000  Uiso   1.00
C14    C     0.10365   0.14467   0.43981   0.00000  Uiso   1.00
C15    C     0.18979   0.14842   0.01305   0.00000  Uiso   1.00
C16    C     0.21393   0.11146   0.48051   0.00000  Uiso   1.00
C17    C     0.18125   0.08926   0.42953   0.00000  Uiso   1.00
C18    C     0.12670   0.10566   0.40930   0.00000  Uiso   1.00
C19    C     0.22414   0.17156   0.06253   0.00000  Uiso   1.00
C20    C     0.30089   0.11609   0.05318   0.00000  Uiso   1.00
H21    H     0.00862   0.10105   0.07041   0.00000  Uiso   1.00
H22    H     0.10247   0.08713   0.36974   0.00000  Uiso   1.00
H23    H     0.06502   0.00314   0.24436   0.00000  Uiso   1.00
H24    H     0.26860   0.33025   0.25661   0.00000  Uiso   1.00
H25    H     0.15638   0.12430   0.20850   0.00000  Uiso   1.00
H26    H     0.19817   0.05985   0.40486   0.00000  Uiso   1.00
H27    H     0.28871   0.06800   0.47606   0.00000  Uiso   1.00
H28    H     0.20964   0.20283   0.08648   0.00000  Uiso   1.00
H29    H     0.31842   0.21562   0.43286   0.00000  Uiso   1.00
H30    H     0.11945   0.20132   0.07381   0.00000  Uiso   1.00
H31    H     0.02663   0.23176   0.03394   0.00000  Uiso   1.00
I32    I     0.17780   0.24130   0.32131   0.00000  Uiso   1.00
N33    N     0.14493   0.15223   0.23542   0.00000  Uiso   1.00
N34    N     0.18840   0.18110   0.26457   0.00000  Uiso   1.00
O35    O     0.29769   0.24629   0.25357   0.00000  Uiso   1.00
O36    O     0.05742   0.23704   0.24423   0.00000  Uiso   1.00
O37    O     0.31490   0.17358   0.33380   0.00000  Uiso   1.00
O38    O     0.07463   0.16433   0.32446   0.00000  Uiso   1.00
O39    O     0.27592   0.09629   0.25576   0.00000  Uiso   1.00
O40    O     0.03565   0.08704   0.24643   0.00000  Uiso   1.00
O41    O     0.25870   0.16901   0.17554   0.00000  Uiso   1.00
O42    O     0.01843   0.15976   0.16620   0.00000  Uiso   1.00
Zn43   Zn    0.27119   0.17284   0.25623   0.00000  Uiso   1.00
Zn44   Zn    0.06214   0.16049   0.24377   0.00000  Uiso   1.00
C45    C     0.34815   0.26485   0.24879   0.00000  Uiso   1.00
C46    C     0.38645   0.16803   0.41613   0.00000  Uiso   1.00
C47    C     0.35594   0.31943   0.24832   0.00000  Uiso   1.00
C48    C     0.36863   0.16789   0.35513   0.00000  Uiso   1.00
C49    C     0.64433   0.01396   0.25255   0.00000  Uiso   1.00
C50    C     0.65193   0.06850   0.25150   0.00000  Uiso   1.00
C51    C     0.63085   0.16281   0.14483   0.00000  Uiso   1.00
C52    C     0.60334   0.09648   0.00026   0.00000  Uiso   1.00
C53    C     0.61007   0.15267   0.08471   0.00000  Uiso   1.00
C54    C     0.35808   0.19840   0.45042   0.00000  Uiso   1.00
C55    C     0.38213   0.20876   0.00731   0.00000  Uiso   1.00
C56    C     0.46577   0.16179   0.49488   0.00000  Uiso   1.00
C57    C     0.43607   0.19169   0.02941   0.00000  Uiso   1.00
C58    C     0.43699   0.14467   0.43981   0.00000  Uiso   1.00
C59    C     0.52312   0.14842   0.01305   0.00000  Uiso   1.00
C60    C     0.54726   0.11146   0.48051   0.00000  Uiso   1.00
C61    C     0.51458   0.08926   0.42953   0.00000  Uiso   1.00
C62    C     0.46003   0.10566   0.40930   0.00000  Uiso   1.00
C63    C     0.55747   0.17156   0.06253   0.00000  Uiso   1.00
C64    C     0.63422   0.11609   0.05318   0.00000  Uiso   1.00
H65    H     0.34195   0.10105   0.07041   0.00000  Uiso   1.00
H66    H     0.43581   0.08713   0.36974   0.00000  Uiso   1.00
H67    H     0.39836   0.00314   0.24436   0.00000  Uiso   1.00
H68    H     0.60194   0.33025   0.25661   0.00000  Uiso   1.00
H69    H     0.48971   0.12430   0.20850   0.00000  Uiso   1.00
H70    H     0.53151   0.05985   0.40486   0.00000  Uiso   1.00
H71    H     0.62205   0.06800   0.47606   0.00000  Uiso   1.00
H72    H     0.54298   0.20283   0.08648   0.00000  Uiso   1.00
H73    H     0.65176   0.21562   0.43286   0.00000  Uiso   1.00
H74    H     0.45278   0.20132   0.07381   0.00000  Uiso   1.00
H75    H     0.35997   0.23176   0.03394   0.00000  Uiso   1.00
I76    I     0.51114   0.24130   0.32131   0.00000  Uiso   1.00
N77    N     0.47827   0.15223   0.23542   0.00000  Uiso   1.00
N78    N     0.52173   0.18110   0.26457   0.00000  Uiso   1.00
O79    O     0.63102   0.24629   0.25357   0.00000  Uiso   1.00
O80    O     0.39075   0.23704   0.24423   0.00000  Uiso   1.00
O81    O     0.64823   0.17358   0.33380   0.00000  Uiso   1.00
O82    O     0.40796   0.16433   0.32446   0.00000  Uiso   1.00
O83    O     0.60925   0.09629   0.25576   0.00000  Uiso   1.00
O84    O     0.36898   0.08704   0.24643   0.00000  Uiso   1.00
O85    O     0.59204   0.16901   0.17554   0.00000  Uiso   1.00
O86    O     0.35177   0.15976   0.16620   0.00000  Uiso   1.00
Zn87   Zn    0.60453   0.17284   0.25623   0.00000  Uiso   1.00
Zn88   Zn    0.39547   0.16049   0.24377   0.00000  Uiso   1.00
C89    C     0.68148   0.26485   0.24879   0.00000  Uiso   1.00
C90    C     0.71978   0.16803   0.41613   0.00000  Uiso   1.00
C91    C     0.68927   0.31943   0.24832   0.00000  Uiso   1.00
C92    C     0.70196   0.16789   0.35513   0.00000  Uiso   1.00
C93    C     0.97766   0.01396   0.25255   0.00000  Uiso   1.00
C94    C     0.98526   0.06850   0.25150   0.00000  Uiso   1.00
C95    C     0.96418   0.16281   0.14483   0.00000  Uiso   1.00
C96    C     0.93667   0.09648   0.00026   0.00000  Uiso   1.00
C97    C     0.94340   0.15267   0.08471   0.00000  Uiso   1.00
C98    C     0.69142   0.19840   0.45042   0.00000  Uiso   1.00
C99    C     0.71547   0.20876   0.00731   0.00000  Uiso   1.00
C100   C     0.79910   0.16179   0.49488   0.00000  Uiso   1.00
C101   C     0.76941   0.19169   0.02941   0.00000  Uiso   1.00
C102   C     0.77032   0.14467   0.43981   0.00000  Uiso   1.00
C103   C     0.85645   0.14842   0.01305   0.00000  Uiso   1.00
C104   C     0.88059   0.11146   0.48051   0.00000  Uiso   1.00
C105   C     0.84791   0.08926   0.42953   0.00000  Uiso   1.00
C106   C     0.79336   0.10566   0.40930   0.00000  Uiso   1.00
C107   C     0.89081   0.17156   0.06253   0.00000  Uiso   1.00
C108   C     0.96755   0.11609   0.05318   0.00000  Uiso   1.00
H109   H     0.67529   0.10105   0.07041   0.00000  Uiso   1.00
H110   H     0.76914   0.08713   0.36974   0.00000  Uiso   1.00
H111   H     0.73169   0.00314   0.24436   0.00000  Uiso   1.00
H112   H     0.93527   0.33025   0.25661   0.00000  Uiso   1.00
H113   H     0.82304   0.12430   0.20850   0.00000  Uiso   1.00
H114   H     0.86484   0.05985   0.40486   0.00000  Uiso   1.00
H115   H     0.95538   0.06800   0.47606   0.00000  Uiso   1.00
H116   H     0.87631   0.20283   0.08648   0.00000  Uiso   1.00
H117   H     0.98509   0.21562   0.43286   0.00000  Uiso   1.00
H118   H     0.78612   0.20132   0.07381   0.00000  Uiso   1.00
H119   H     0.69330   0.23176   0.03394   0.00000  Uiso   1.00
I120   I     0.84447   0.24130   0.32131   0.00000  Uiso   1.00
N121   N     0.81160   0.15223   0.23542   0.00000  Uiso   1.00
N122   N     0.85507   0.18110   0.26457   0.00000  Uiso   1.00
O123   O     0.96435   0.24629   0.25357   0.00000  Uiso   1.00
O124   O     0.72408   0.23704   0.24423   0.00000  Uiso   1.00
O125   O     0.98157   0.17358   0.33380   0.00000  Uiso   1.00
O126   O     0.74130   0.16433   0.32446   0.00000  Uiso   1.00
O127   O     0.94258   0.09629   0.25576   0.00000  Uiso   1.00
O128   O     0.70231   0.08704   0.24643   0.00000  Uiso   1.00
O129   O     0.92537   0.16901   0.17554   0.00000  Uiso   1.00
O130   O     0.68510   0.15976   0.16620   0.00000  Uiso   1.00
Zn131  Zn    0.93786   0.17284   0.25623   0.00000  Uiso   1.00
Zn132  Zn    0.72881   0.16049   0.24377   0.00000  Uiso   1.00
C133   C     0.01482   0.59818   0.24879   0.00000  Uiso   1.00
C134   C     0.05311   0.50137   0.41613   0.00000  Uiso   1.00
C135   C     0.02261   0.65276   0.24832   0.00000  Uiso   1.00
C136   C     0.03529   0.50122   0.35513   0.00000  Uiso   1.00
C137   C     0.31099   0.34729   0.25255   0.00000  Uiso   1.00
C138   C     0.31860   0.40183   0.25150   0.00000  Uiso   1.00
C139   C     0.29752   0.49614   0.14483   0.00000  Uiso   1.00
C140   C     0.27001   0.42981   0.00026   0.00000  Uiso   1.00
C141   C     0.27673   0.48600   0.08471   0.00000  Uiso   1.00
C142   C     0.02475   0.53173   0.45042   0.00000  Uiso   1.00
C143   C     0.04880   0.54209   0.00731   0.00000  Uiso   1.00
C144   C     0.13243   0.49513   0.49488   0.00000  Uiso   1.00
C145   C     0.10274   0.52502   0.02941   0.00000  Uiso   1.00
C146   C     0.10365   0.47801   0.43981   0.00000  Uiso   1.00
C147   C     0.18979   0.48176   0.01305   0.00000  Uiso   1.00
C148   C     0.21393   0.44479   0.48051   0.00000  Uiso   1.00
C149   C     0.18125   0.42260   0.42953   0.00000  Uiso   1.00
C150   C     0.12670   0.43899   0.40930   0.00000  Uiso   1.00
C151   C     0.22414   0.50490   0.06253   0.00000  Uiso   1.00
C152   C     0.30089   0.44942   0.05318   0.00000  Uiso   1.00
H153   H     0.00862   0.43438   0.07041   0.00000  Uiso   1.00
H154   H     0.10247   0.42046   0.36974   0.00000  Uiso   1.00
H155   H     0.06502   0.33648   0.24436   0.00000  Uiso   1.00
H156   H     0.26860   0.66358   0.25661   0.00000  Uiso   1.00
H157   H     0.15638   0.45763   0.20850   0.00000  Uiso   1.00
H158   H     0.19817   0.39318   0.40486   0.00000  Uiso   1.00
H159   H     0.28871   0.40133   0.47606   0.00000  Uiso   1.00
H160   H     0.20964   0.53616   0.08648   0.00000  Uiso   1.00
H161   H     0.31842   0.54896   0.43286   0.00000  Uiso   1.00
H162   H     0.11945   0.53465   0.07381   0.00000  Uiso   1.00
H163   H     0.02663   0.56509   0.03394   0.00000  Uiso   1.00
I164   I     0.17780   0.57463   0.32131   0.00000  Uiso   1.00
N165   N     0.14493   0.48556   0.23542   0.00000  Uiso   1.00
N166   N     0.18840   0.51444   0.26457   0.00000  Uiso   1.00
O167   O     0.29769   0.57963   0.25357   0.00000  Uiso   1.00
O168   O     0.05742   0.57038   0.24423   0.00000  Uiso   1.00
O169   O     0.31490   0.50691   0.33380   0.00000  Uiso   1.00
O170   O     0.07463   0.49766   0.32446   0.00000  Uiso   1.00
O171   O     0.27592   0.42962   0.25576   0.00000  Uiso   1.00
O172   O     0.03565   0.42037   0.24643   0.00000  Uiso   1.00
O173   O     0.25870   0.50234   0.17554   0.00000  Uiso   1.00
O174   O     0.01843   0.49309   0.16620   0.00000  Uiso   1.00
Zn175  Zn    0.27119   0.50618   0.25623   0.00000  Uiso   1.00
Zn176  Zn    0.06214   0.49382   0.24377   0.00000  Uiso   1.00
C177   C     0.34815   0.59818   0.24879   0.00000  Uiso   1.00
C178   C     0.38645   0.50137   0.41613   0.00000  Uiso   1.00
C179   C     0.35594   0.65276   0.24832   0.00000  Uiso   1.00
C180   C     0.36863   0.50122   0.35513   0.00000  Uiso   1.00
C181   C     0.64433   0.34729   0.25255   0.00000  Uiso   1.00
C182   C     0.65193   0.40183   0.25150   0.00000  Uiso   1.00
C183   C     0.63085   0.49614   0.14483   0.00000  Uiso   1.00
C184   C     0.60334   0.42981   0.00026   0.00000  Uiso   1.00
C185   C     0.61007   0.48600   0.08471   0.00000  Uiso   1.00
C186   C     0.35808   0.53173   0.45042   0.00000  Uiso   1.00
C187   C     0.38213   0.54209   0.00731   0.00000  Uiso   1.00
C188   C     0.46577   0.49513   0.49488   0.00000  Uiso   1.00
C189   C     0.43607   0.52502   0.02941   0.00000  Uiso   1.00
C190   C     0.43699   0.47801   0.43981   0.00000  Uiso   1.00
C191   C     0.52312   0.48176   0.01305   0.00000  Uiso   1.00
C192   C     0.54726   0.44479   0.48051   0.00000  Uiso   1.00
C193   C     0.51458   0.42260   0.42953   0.00000  Uiso   1.00
C194   C     0.46003   0.43899   0.40930   0.00000  Uiso   1.00
C195   C     0.55747   0.50490   0.06253   0.00000  Uiso   1.00
C196   C     0.63422   0.44942   0.05318   0.00000  Uiso   1.00
H197   H     0.34195   0.43438   0.07041   0.00000  Uiso   1.00
H198   H     0.43581   0.42046   0.36974   0.00000  Uiso   1.00
H199   H     0.39836   0.33648   0.24436   0.00000  Uiso   1.00
H200   H     0.60194   0.66358   0.25661   0.00000  Uiso   1.00
H201   H     0.48971   0.45763   0.20850   0.00000  Uiso   1.00
H202   H     0.53151   0.39318   0.40486   0.00000  Uiso   1.00
H203   H     0.62205   0.40133   0.47606   0.00000  Uiso   1.00
H204   H     0.54298   0.53616   0.08648   0.00000  Uiso   1.00
H205   H     0.65176   0.54896   0.43286   0.00000  Uiso   1.00
H206   H     0.45278   0.53465   0.07381   0.00000  Uiso   1.00
H207   H     0.35997   0.56509   0.03394   0.00000  Uiso   1.00
I208   I     0.51114   0.57463   0.32131   0.00000  Uiso   1.00
N209   N     0.47827   0.48556   0.23542   0.00000  Uiso   1.00
N210   N     0.52173   0.51444   0.26457   0.00000  Uiso   1.00
O211   O     0.63102   0.57963   0.25357   0.00000  Uiso   1.00
O212   O     0.39075   0.57038   0.24423   0.00000  Uiso   1.00
O213   O     0.64823   0.50691   0.33380   0.00000  Uiso   1.00
O214   O     0.40796   0.49766   0.32446   0.00000  Uiso   1.00
O215   O     0.60925   0.42962   0.25576   0.00000  Uiso   1.00
O216   O     0.36898   0.42037   0.24643   0.00000  Uiso   1.00
O217   O     0.59204   0.50234   0.17554   0.00000  Uiso   1.00
O218   O     0.35177   0.49309   0.16620   0.00000  Uiso   1.00
Zn219  Zn    0.60453   0.50618   0.25623   0.00000  Uiso   1.00
Zn220  Zn    0.39547   0.49382   0.24377   0.00000  Uiso   1.00
C221   C     0.68148   0.59818   0.24879   0.00000  Uiso   1.00
C222   C     0.71978   0.50137   0.41613   0.00000  Uiso   1.00
C223   C     0.68927   0.65276   0.24832   0.00000  Uiso   1.00
C224   C     0.70196   0.50122   0.35513   0.00000  Uiso   1.00
C225   C     0.97766   0.34729   0.25255   0.00000  Uiso   1.00
C226   C     0.98526   0.40183   0.25150   0.00000  Uiso   1.00
C227   C     0.96418   0.49614   0.14483   0.00000  Uiso   1.00
C228   C     0.93667   0.42981   0.00026   0.00000  Uiso   1.00
C229   C     0.94340   0.48600   0.08471   0.00000  Uiso   1.00
C230   C     0.69142   0.53173   0.45042   0.00000  Uiso   1.00
C231   C     0.71547   0.54209   0.00731   0.00000  Uiso   1.00
C232   C     0.79910   0.49513   0.49488   0.00000  Uiso   1.00
C233   C     0.76941   0.52502   0.02941   0.00000  Uiso   1.00
C234   C     0.77032   0.47801   0.43981   0.00000  Uiso   1.00
C235   C     0.85645   0.48176   0.01305   0.00000  Uiso   1.00
C236   C     0.88059   0.44479   0.48051   0.00000  Uiso   1.00
C237   C     0.84791   0.42260   0.42953   0.00000  Uiso   1.00
C238   C     0.79336   0.43899   0.40930   0.00000  Uiso   1.00
C239   C     0.89081   0.50490   0.06253   0.00000  Uiso   1.00
C240   C     0.96755   0.44942   0.05318   0.00000  Uiso   1.00
H241   H     0.67529   0.43438   0.07041   0.00000  Uiso   1.00
H242   H     0.76914   0.42046   0.36974   0.00000  Uiso   1.00
H243   H     0.73169   0.33648   0.24436   0.00000  Uiso   1.00
H244   H     0.93527   0.66358   0.25661   0.00000  Uiso   1.00
H245   H     0.82304   0.45763   0.20850   0.00000  Uiso   1.00
H246   H     0.86484   0.39318   0.40486   0.00000  Uiso   1.00
H247   H     0.95538   0.40133   0.47606   0.00000  Uiso   1.00
H248   H     0.87631   0.53616   0.08648   0.00000  Uiso   1.00
H249   H     0.98509   0.54896   0.43286   0.00000  Uiso   1.00
H250   H     0.78612   0.53465   0.07381   0.00000  Uiso   1.00
H251   H     0.69330   0.56509   0.03394   0.00000  Uiso   1.00
I252   I     0.84447   0.57463   0.32131   0.00000  Uiso   1.00
N253   N     0.81160   0.48556   0.23542   0.00000  Uiso   1.00
N254   N     0.85507   0.51444   0.26457   0.00000  Uiso   1.00
O255   O     0.96435   0.57963   0.25357   0.00000  Uiso   1.00
O256   O     0.72408   0.57038   0.24423   0.00000  Uiso   1.00
O257   O     0.98157   0.50691   0.33380   0.00000  Uiso   1.00
O258   O     0.74130   0.49766   0.32446   0.00000  Uiso   1.00
O259   O     0.94258   0.42962   0.25576   0.00000  Uiso   1.00
O260   O     0.70231   0.42037   0.24643   0.00000  Uiso   1.00
O261   O     0.92537   0.50234   0.17554   0.00000  Uiso   1.00
O262   O     0.68510   0.49309   0.16620   0.00000  Uiso   1.00
Zn263  Zn    0.93786   0.50618   0.25623   0.00000  Uiso   1.00
Zn264  Zn    0.72881   0.49382   0.24377   0.00000  Uiso   1.00
C265   C     0.01482   0.93151   0.24879   0.00000  Uiso   1.00
C266   C     0.05311   0.83470   0.41613   0.00000  Uiso   1.00
C267   C     0.02261   0.98610   0.24832   0.00000  Uiso   1.00
C268   C     0.03529   0.83456   0.35513   0.00000  Uiso   1.00
C269   C     0.31099   0.68063   0.25255   0.00000  Uiso   1.00
C270   C     0.31860   0.73517   0.25150   0.00000  Uiso   1.00
C271   C     0.29752   0.82948   0.14483   0.00000  Uiso   1.00
C272   C     0.27001   0.76314   0.00026   0.00000  Uiso   1.00
C273   C     0.27673   0.81933   0.08471   0.00000  Uiso   1.00
C274   C     0.02475   0.86507   0.45042   0.00000  Uiso   1.00
C275   C     0.04880   0.87543   0.00731   0.00000  Uiso   1.00
C276   C     0.13243   0.82846   0.49488   0.00000  Uiso   1.00
C277   C     0.10274   0.85836   0.02941   0.00000  Uiso   1.00
C278   C     0.10365   0.81134   0.43981   0.00000  Uiso   1.00
C279   C     0.18979   0.81509   0.01305   0.00000  Uiso   1.00
C280   C     0.21393   0.77812   0.48051   0.00000  Uiso   1.00
C281   C     0.18125   0.75593   0.42953   0.00000  Uiso   1.00
C282   C     0.12670   0.77232   0.40930   0.00000  Uiso   1.00
C283   C     0.22414   0.83823   0.06253   0.00000  Uiso   1.00
C284   C     0.30089   0.78276   0.05318   0.00000  Uiso   1.00
H285   H     0.00862   0.76771   0.07041   0.00000  Uiso   1.00
H286   H     0.10247   0.75379   0.36974   0.00000  Uiso   1.00
H287   H     0.06502   0.66981   0.24436   0.00000  Uiso   1.00
H288   H     0.26860   0.99692   0.25661   0.00000  Uiso   1.00
H289   H     0.15638   0.79097   0.20850   0.00000  Uiso   1.00
H290   H     0.19817   0.72652   0.40486   0.00000  Uiso   1.00
H291   H     0.28871   0.73466   0.47606   0.00000  Uiso   1.00
H292   H     0.20964   0.86949   0.08648   0.00000  Uiso   1.00
H293   H     0.31842   0.88229   0.43286   0.00000  Uiso   1.00
H294   H     0.11945   0.86799   0.07381   0.00000  Uiso   1.00
H295   H     0.02663   0.89842   0.03394   0.00000  Uiso   1.00
I296   I     0.17780   0.90796   0.32131   0.00000  Uiso   1.00
N297   N     0.14493   0.81890   0.23542   0.00000  Uiso   1.00
N298   N     0.18840   0.84777   0.26457   0.00000  Uiso   1.00
O299   O     0.29769   0.91296   0.25357   0.00000  Uiso   1.00
O300   O     0.05742   0.90371   0.24423   0.00000  Uiso   1.00
O301   O     0.31490   0.84024   0.33380   0.00000  Uiso   1.00
O302   O     0.07463   0.83099   0.32446   0.00000  Uiso   1.00
O303   O     0.27592   0.76296   0.25576   0.00000  Uiso   1.00
O304   O     0.03565   0.75371   0.24643   0.00000  Uiso   1.00
O305   O     0.25870   0.83567   0.17554   0.00000  Uiso   1.00
O306   O     0.01843   0.82642   0.16620   0.00000  Uiso   1.00
Zn307  Zn    0.27119   0.83951   0.25623   0.00000  Uiso   1.00
Zn308  Zn    0.06214   0.82716   0.24377   0.00000  Uiso   1.00
C309   C     0.34815   0.93151   0.24879   0.00000  Uiso   1.00
C310   C     0.38645   0.83470   0.41613   0.00000  Uiso   1.00
C311   C     0.35594   0.98610   0.24832   0.00000  Uiso   1.00
C312   C     0.36863   0.83456   0.35513   0.00000  Uiso   1.00
C313   C     0.64433   0.68063   0.25255   0.00000  Uiso   1.00
C314   C     0.65193   0.73517   0.25150   0.00000  Uiso   1.00
C315   C     0.63085   0.82948   0.14483   0.00000  Uiso   1.00
C316   C     0.60334   0.76314   0.00026   0.00000  Uiso   1.00
C317   C     0.61007   0.81933   0.08471   0.00000  Uiso   1.00
C318   C     0.35808   0.86507   0.45042   0.00000  Uiso   1.00
C319   C     0.38213   0.87543   0.00731   0.00000  Uiso   1.00
C320   C     0.46577   0.82846   0.49488   0.00000  Uiso   1.00
C321   C     0.43607   0.85836   0.02941   0.00000  Uiso   1.00
C322   C     0.43699   0.81134   0.43981   0.00000  Uiso   1.00
C323   C     0.52312   0.81509   0.01305   0.00000  Uiso   1.00
C324   C     0.54726   0.77812   0.48051   0.00000  Uiso   1.00
C325   C     0.51458   0.75593   0.42953   0.00000  Uiso   1.00
C326   C     0.46003   0.77232   0.40930   0.00000  Uiso   1.00
C327   C     0.55747   0.83823   0.06253   0.00000  Uiso   1.00
C328   C     0.63422   0.78276   0.05318   0.00000  Uiso   1.00
H329   H     0.34195   0.76771   0.07041   0.00000  Uiso   1.00
H330   H     0.43581   0.75379   0.36974   0.00000  Uiso   1.00
H331   H     0.39836   0.66981   0.24436   0.00000  Uiso   1.00
H332   H     0.60194   0.99692   0.25661   0.00000  Uiso   1.00
H333   H     0.48971   0.79097   0.20850   0.00000  Uiso   1.00
H334   H     0.53151   0.72652   0.40486   0.00000  Uiso   1.00
H335   H     0.62205   0.73466   0.47606   0.00000  Uiso   1.00
H336   H     0.54298   0.86949   0.08648   0.00000  Uiso   1.00
H337   H     0.65176   0.88229   0.43286   0.00000  Uiso   1.00
H338   H     0.45278   0.86799   0.07381   0.00000  Uiso   1.00
H339   H     0.35997   0.89842   0.03394   0.00000  Uiso   1.00
I340   I     0.51114   0.90796   0.32131   0.00000  Uiso   1.00
N341   N     0.47827   0.81890   0.23542   0.00000  Uiso   1.00
N342   N     0.52173   0.84777   0.26457   0.00000  Uiso   1.00
O343   O     0.63102   0.91296   0.25357   0.00000  Uiso   1.00
O344   O     0.39075   0.90371   0.24423   0.00000  Uiso   1.00
O345   O     0.64823   0.84024   0.33380   0.00000  Uiso   1.00
O346   O     0.40796   0.83099   0.32446   0.00000  Uiso   1.00
O347   O     0.60925   0.76296   0.25576   0.00000  Uiso   1.00
O348   O     0.36898   0.75371   0.24643   0.00000  Uiso   1.00
O349   O     0.59204   0.83567   0.17554   0.00000  Uiso   1.00
O350   O     0.35177   0.82642   0.16620   0.00000  Uiso   1.00
Zn351  Zn    0.60453   0.83951   0.25623   0.00000  Uiso   1.00
Zn352  Zn    0.39547   0.82716   0.24377   0.00000  Uiso   1.00
C353   C     0.68148   0.93151   0.24879   0.00000  Uiso   1.00
C354   C     0.71978   0.83470   0.41613   0.00000  Uiso   1.00
C355   C     0.68927   0.98610   0.24832   0.00000  Uiso   1.00
C356   C     0.70196   0.83456   0.35513   0.00000  Uiso   1.00
C357   C     0.97766   0.68063   0.25255   0.00000  Uiso   1.00
C358   C     0.98526   0.73517   0.25150   0.00000  Uiso   1.00
C359   C     0.96418   0.82948   0.14483   0.00000  Uiso   1.00
C360   C     0.93667   0.76314   0.00026   0.00000  Uiso   1.00
C361   C     0.94340   0.81933   0.08471   0.00000  Uiso   1.00
C362   C     0.69142   0.86507   0.45042   0.00000  Uiso   1.00
C363   C     0.71547   0.87543   0.00731   0.00000  Uiso   1.00
C364   C     0.79910   0.82846   0.49488   0.00000  Uiso   1.00
C365   C     0.76941   0.85836   0.02941   0.00000  Uiso   1.00
C366   C     0.77032   0.81134   0.43981   0.00000  Uiso   1.00
C367   C     0.85645   0.81509   0.01305   0.00000  Uiso   1.00
C368   C     0.88059   0.77812   0.48051   0.00000  Uiso   1.00
C369   C     0.84791   0.75593   0.42953   0.00000  Uiso   1.00
C370   C     0.79336   0.77232   0.40930   0.00000  Uiso   1.00
C371   C     0.89081   0.83823   0.06253   0.00000  Uiso   1.00
C372   C     0.96755   0.78276   0.05318   0.00000  Uiso   1.00
H373   H     0.67529   0.76771   0.07041   0.00000  Uiso   1.00
H374   H     0.76914   0.75379   0.36974   0.00000  Uiso   1.00
H375   H     0.73169   0.66981   0.24436   0.00000  Uiso   1.00
H376   H     0.93527   0.99692   0.25661   0.00000  Uiso   1.00
H377   H     0.82304   0.79097   0.20850   0.00000  Uiso   1.00
H378   H     0.86484   0.72652   0.40486   0.00000  Uiso   1.00
H379   H     0.95538   0.73466   0.47606   0.00000  Uiso   1.00
H380   H     0.87631   0.86949   0.08648   0.00000  Uiso   1.00
H381   H     0.98509   0.88229   0.43286   0.00000  Uiso   1.00
H382   H     0.78612   0.86799   0.07381   0.00000  Uiso   1.00
H383   H     0.69330   0.89842   0.03394   0.00000  Uiso   1.00
I384   I     0.84447   0.90796   0.32131   0.00000  Uiso   1.00
N385   N     0.81160   0.81890   0.23542   0.00000  Uiso   1.00
N386   N     0.85507   0.84777   0.26457   0.00000  Uiso   1.00
O387   O     0.96435   0.91296   0.25357   0.00000  Uiso   1.00
O388   O     0.72408   0.90371   0.24423   0.00000  Uiso   1.00
O389   O     0.98157   0.84024   0.33380   0.00000  Uiso   1.00
O390   O     0.74130   0.83099   0.32446   0.00000  Uiso   1.00
O391   O     0.94258   0.76296   0.25576   0.00000  Uiso   1.00
O392   O     0.70231   0.75371   0.24643   0.00000  Uiso   1.00
O393   O     0.92537   0.83567   0.17554   0.00000  Uiso   1.00
O394   O     0.68510   0.82642   0.16620   0.00000  Uiso   1.00
Zn395  Zn    0.93786   0.83951   0.25623   0.00000  Uiso   1.00
Zn396  Zn    0.72881   0.82716   0.24377   0.00000  Uiso   1.00
C397   C     0.01482   0.26485   0.74879   0.00000  Uiso   1.00
C398   C     0.05311   0.16803   0.91613   0.00000  Uiso   1.00
C399   C     0.02261   0.31943   0.74832   0.00000  Uiso   1.00
C400   C     0.03529   0.16789   0.85513   0.00000  Uiso   1.00
C401   C     0.31099   0.01396   0.75255   0.00000  Uiso   1.00
C402   C     0.31860   0.06850   0.75150   0.00000  Uiso   1.00
C403   C     0.29752   0.16281   0.64483   0.00000  Uiso   1.00
C404   C     0.27001   0.09648   0.50026   0.00000  Uiso   1.00
C405   C     0.27673   0.15267   0.58471   0.00000  Uiso   1.00
C406   C     0.02475   0.19840   0.95042   0.00000  Uiso   1.00
C407   C     0.04880   0.20876   0.50731   0.00000  Uiso   1.00
C408   C     0.13243   0.16179   0.99488   0.00000  Uiso   1.00
C409   C     0.10274   0.19169   0.52941   0.00000  Uiso   1.00
C410   C     0.10365   0.14467   0.93981   0.00000  Uiso   1.00
C411   C     0.18979   0.14842   0.51305   0.00000  Uiso   1.00
C412   C     0.21393   0.11146   0.98051   0.00000  Uiso   1.00
C413   C     0.18125   0.08926   0.92953   0.00000  Uiso   1.00
C414   C     0.12670   0.10566   0.90930   0.00000  Uiso   1.00
C415   C     0.22414   0.17156   0.56253   0.00000  Uiso   1.00
C416   C     0.30089   0.11609   0.55318   0.00000  Uiso   1.00
H417   H     0.00862   0.10105   0.57041   0.00000  Uiso   1.00
H418   H     0.10247   0.08713   0.86974   0.00000  Uiso   1.00
H419   H     0.06502   0.00314   0.74436   0.00000  Uiso   1.00
H420   H     0.26860   0.33025   0.75661   0.00000  Uiso   1.00
H421   H     0.15638   0.12430   0.70850   0.00000  Uiso   1.00
H422   H     0.19817   0.05985   0.90486   0.00000  Uiso   1.00
H423   H     0.28871   0.06800   0.97606   0.00000  Uiso   1.00
H424   H     0.20964   0.20283   0.58648   0.00000  Uiso   1.00
H425   H     0.31842   0.21562   0.93286   0.00000  Uiso   1.00
H426   H     0.11945   0.20132   0.57381   0.00000  Uiso   1.00
H427   H     0.02663   0.23176   0.53394   0.00000  Uiso   1.00
I428   I     0.17780   0.24130   0.82131   0.00000  Uiso   1.00
N429   N     0.14493   0.15223   0.73542   0.00000  Uiso   1.00
N430   N     0.18840   0.18110   0.76457   0.00000  Uiso   1.00
O431   O     0.29769   0.24629   0.75357   0.00000  Uiso   1.00
O432   O     0.05742   0.23704   0.74423   0.00000  Uiso   1.00
O433   O     0.31490   0.17358   0.83380   0.00000  Uiso   1.00
O434   O     0.07463   0.16433   0.82446   0.00000  Uiso   1.00
O435   O     0.27592   0.09629   0.75576   0.00000  Uiso   1.00
O436   O     0.03565   0.08704   0.74643   0.00000  Uiso   1.00
O437   O     0.25870   0.16901   0.67554   0.00000  Uiso   1.00
O438   O     0.01843   0.15976   0.66620   0.00000  Uiso   1.00
Zn439  Zn    0.27119   0.17284   0.75623   0.00000  Uiso   1.00
Zn440  Zn    0.06214   0.16049   0.74377   0.00000  Uiso   1.00
C441   C     0.34815   0.26485   0.74879   0.00000  Uiso   1.00
C442   C     0.38645   0.16803   0.91613   0.00000  Uiso   1.00
C443   C     0.35594   0.31943   0.74832   0.00000  Uiso   1.00
C444   C     0.36863   0.16789   0.85513   0.00000  Uiso   1.00
C445   C     0.64433   0.01396   0.75255   0.00000  Uiso   1.00
C446   C     0.65193   0.06850   0.75150   0.00000  Uiso   1.00
C447   C     0.63085   0.16281   0.64483   0.00000  Uiso   1.00
C448   C     0.60334   0.09648   0.50026   0.00000  Uiso   1.00
C449   C     0.61007   0.15267   0.58471   0.00000  Uiso   1.00
C450   C     0.35808   0.19840   0.95042   0.00000  Uiso   1.00
C451   C     0.38213   0.20876   0.50731   0.00000  Uiso   1.00
C452   C     0.46577   0.16179   0.99488   0.00000  Uiso   1.00
C453   C     0.43607   0.19169   0.52941   0.00000  Uiso   1.00
C454   C     0.43699   0.14467   0.93981   0.00000  Uiso   1.00
C455   C     0.52312   0.14842   0.51305   0.00000  Uiso   1.00
C456   C     0.54726   0.11146   0.98051   0.00000  Uiso   1.00
C457   C     0.51458   0.08926   0.92953   0.00000  Uiso   1.00
C458   C     0.46003   0.10566   0.90930   0.00000  Uiso   1.00
C459   C     0.55747   0.17156   0.56253   0.00000  Uiso   1.00
C460   C     0.63422   0.11609   0.55318   0.00000  Uiso   1.00
H461   H     0.34195   0.10105   0.57041   0.00000  Uiso   1.00
H462   H     0.43581   0.08713   0.86974   0.00000  Uiso   1.00
H463   H     0.39836   0.00314   0.74436   0.00000  Uiso   1.00
H464   H     0.60194   0.33025   0.75661   0.00000  Uiso   1.00
H465   H     0.48971   0.12430   0.70850   0.00000  Uiso   1.00
H466   H     0.53151   0.05985   0.90486   0.00000  Uiso   1.00
H467   H     0.62205   0.06800   0.97606   0.00000  Uiso   1.00
H468   H     0.54298   0.20283   0.58648   0.00000  Uiso   1.00
H469   H     0.65176   0.21562   0.93286   0.00000  Uiso   1.00
H470   H     0.45278   0.20132   0.57381   0.00000  Uiso   1.00
H471   H     0.35997   0.23176   0.53394   0.00000  Uiso   1.00
I472   I     0.51114   0.24130   0.82131   0.00000  Uiso   1.00
N473   N     0.47827   0.15223   0.73542   0.00000  Uiso   1.00
N474   N     0.52173   0.18110   0.76457   0.00000  Uiso   1.00
O475   O     0.63102   0.24629   0.75357   0.00000  Uiso   1.00
O476   O     0.39075   0.23704   0.74423   0.00000  Uiso   1.00
O477   O     0.64823   0.17358   0.83380   0.00000  Uiso   1.00
O478   O     0.40796   0.16433   0.82446   0.00000  Uiso   1.00
O479   O     0.60925   0.09629   0.75576   0.00000  Uiso   1.00
O480   O     0.36898   0.08704   0.74643   0.00000  Uiso   1.00
O481   O     0.59204   0.16901   0.67554   0.00000  Uiso   1.00
O482   O     0.35177   0.15976   0.66620   0.00000  Uiso   1.00
Zn483  Zn    0.60453   0.17284   0.75623   0.00000  Uiso   1.00
Zn484  Zn    0.39547   0.16049   0.74377   0.00000  Uiso   1.00
C485   C     0.68148   0.26485   0.74879   0.00000  Uiso   1.00
C486   C     0.71978   0.16803   0.91613   0.00000  Uiso   1.00
C487   C     0.68927   0.31943   0.74832   0.00000  Uiso   1.00
C488   C     0.70196   0.16789   0.85513   0.00000  Uiso   1.00
C489   C     0.97766   0.01396   0.75255   0.00000  Uiso   1.00
C490   C     0.98526   0.06850   0.75150   0.00000  Uiso   1.00
C491   C     0.96418   0.16281   0.64483   0.00000  Uiso   1.00
C492   C     0.93667   0.09648   0.50026   0.00000  Uiso   1.00
C493   C     0.94340   0.15267   0.58471   0.00000  Uiso   1.00
C494   C     0.69142   0.19840   0.95042   0.00000  Uiso   1.00
C495   C     0.71547   0.20876   0.50731   0.00000  Uiso   1.00
C496   C     0.79910   0.16179   0.99488   0.00000  Uiso   1.00
C497   C     0.76941   0.19169   0.52941   0.00000  Uiso   1.00
C498   C     0.77032   0.14467   0.93981   0.00000  Uiso   1.00
C499   C     0.85645   0.14842   0.51305   0.00000  Uiso   1.00
C500   C     0.88059   0.11146   0.98051   0.00000  Uiso   1.00
C501   C     0.84791   0.08926   0.92953   0.00000  Uiso   1.00
C502   C     0.79336   0.10566   0.90930   0.00000  Uiso   1.00
C503   C     0.89081   0.17156   0.56253   0.00000  Uiso   1.00
C504   C     0.96755   0.11609   0.55318   0.00000  Uiso   1.00
H505   H     0.67529   0.10105   0.57041   0.00000  Uiso   1.00
H506   H     0.76914   0.08713   0.86974   0.00000  Uiso   1.00
H507   H     0.73169   0.00314   0.74436   0.00000  Uiso   1.00
H508   H     0.93527   0.33025   0.75661   0.00000  Uiso   1.00
H509   H     0.82304   0.12430   0.70850   0.00000  Uiso   1.00
H510   H     0.86484   0.05985   0.90486   0.00000  Uiso   1.00
H511   H     0.95538   0.06800   0.97606   0.00000  Uiso   1.00
H512   H     0.87631   0.20283   0.58648   0.00000  Uiso   1.00
H513   H     0.98509   0.21562   0.93286   0.00000  Uiso   1.00
H514   H     0.78612   0.20132   0.57381   0.00000  Uiso   1.00
H515   H     0.69330   0.23176   0.53394   0.00000  Uiso   1.00
I516   I     0.84447   0.24130   0.82131   0.00000  Uiso   1.00
N517   N     0.81160   0.15223   0.73542   0.00000  Uiso   1.00
N518   N     0.85507   0.18110   0.76457   0.00000  Uiso   1.00
O519   O     0.96435   0.24629   0.75357   0.00000  Uiso   1.00
O520   O     0.72408   0.23704   0.74423   0.00000  Uiso   1.00
O521   O     0.98157   0.17358   0.83380   0.00000  Uiso   1.00
O522   O     0.74130   0.16433   0.82446   0.00000  Uiso   1.00
O523   O     0.94258   0.09629   0.75576   0.00000  Uiso   1.00
O524   O     0.70231   0.08704   0.74643   0.00000  Uiso   1.00
O525   O     0.92537   0.16901   0.67554   0.00000  Uiso   1.00
O526   O     0.68510   0.15976   0.66620   0.00000  Uiso   1.00
Zn527  Zn    0.93786   0.17284   0.75623   0.00000  Uiso   1.00
Zn528  Zn    0.72881   0.16049   0.74377   0.00000  Uiso   1.00
C529   C     0.01482   0.59818   0.74879   0.00000  Uiso   1.00
C530   C     0.05311   0.50137   0.91613   0.00000  Uiso   1.00
C531   C     0.02261   0.65276   0.74832   0.00000  Uiso   1.00
C532   C     0.03529   0.50122   0.85513   0.00000  Uiso   1.00
C533   C     0.31099   0.34729   0.75255   0.00000  Uiso   1.00
C534   C     0.31860   0.40183   0.75150   0.00000  Uiso   1.00
C535   C     0.29752   0.49614   0.64483   0.00000  Uiso   1.00
C536   C     0.27001   0.42981   0.50026   0.00000  Uiso   1.00
C537   C     0.27673   0.48600   0.58471   0.00000  Uiso   1.00
C538   C     0.02475   0.53173   0.95042   0.00000  Uiso   1.00
C539   C     0.04880   0.54209   0.50731   0.00000  Uiso   1.00
C540   C     0.13243   0.49513   0.99488   0.00000  Uiso   1.00
C541   C     0.10274   0.52502   0.52941   0.00000  Uiso   1.00
C542   C     0.10365   0.47801   0.93981   0.00000  Uiso   1.00
C543   C     0.18979   0.48176   0.51305   0.00000  Uiso   1.00
C544   C     0.21393   0.44479   0.98051   0.00000  Uiso   1.00
C545   C     0.18125   0.42260   0.92953   0.00000  Uiso   1.00
C546   C     0.12670   0.43899   0.90930   0.00000  Uiso   1.00
C547   C     0.22414   0.50490   0.56253   0.00000  Uiso   1.00
C548   C     0.30089   0.44942   0.55318   0.00000  Uiso   1.00
H549   H     0.00862   0.43438   0.57041   0.00000  Uiso   1.00
H550   H     0.10247   0.42046   0.86974   0.00000  Uiso   1.00
H551   H     0.06502   0.33648   0.74436   0.00000  Uiso   1.00
H552   H     0.26860   0.66358   0.75661   0.00000  Uiso   1.00
H553   H     0.15638   0.45763   0.70850   0.00000  Uiso   1.00
H554   H     0.19817   0.39318   0.90486   0.00000  Uiso   1.00
H555   H     0.28871   0.40133   0.97606   0.00000  Uiso   1.00
H556   H     0.20964   0.53616   0.58648   0.00000  Uiso   1.00
H557   H     0.31842   0.54896   0.93286   0.00000  Uiso   1.00
H558   H     0.11945   0.53465   0.57381   0.00000  Uiso   1.00
H559   H     0.02663   0.56509   0.53394   0.00000  Uiso   1.00
I560   I     0.17780   0.57463   0.82131   0.00000  Uiso   1.00
N561   N     0.14493   0.48556   0.73542   0.00000  Uiso   1.00
N562   N     0.18840   0.51444   0.76457   0.00000  Uiso   1.00
O563   O     0.29769   0.57963   0.75357   0.00000  Uiso   1.00
O564   O     0.05742   0.57038   0.74423   0.00000  Uiso   1.00
O565   O     0.31490   0.50691   0.83380   0.00000  Uiso   1.00
O566   O     0.07463   0.49766   0.82446   0.00000  Uiso   1.00
O567   O     0.27592   0.42962   0.75576   0.00000  Uiso   1.00
O568   O     0.03565   0.42037   0.74643   0.00000  Uiso   1.00
O569   O     0.25870   0.50234   0.67554   0.00000  Uiso   1.00
O570   O     0.01843   0.49309   0.66620   0.00000  Uiso   1.00
Zn571  Zn    0.27119   0.50618   0.75623   0.00000  Uiso   1.00
Zn572  Zn    0.06214   0.49382   0.74377   0.00000  Uiso   1.00
C573   C     0.34815   0.59818   0.74879   0.00000  Uiso   1.00
C574   C     0.38645   0.50137   0.91613   0.00000  Uiso   1.00
C575   C     0.35594   0.65276   0.74832   0.00000  Uiso   1.00
C576   C     0.36863   0.50122   0.85513   0.00000  Uiso   1.00
C577   C     0.64433   0.34729   0.75255   0.00000  Uiso   1.00
C578   C     0.65193   0.40183   0.75150   0.00000  Uiso   1.00
C579   C     0.63085   0.49614   0.64483   0.00000  Uiso   1.00
C580   C     0.60334   0.42981   0.50026   0.00000  Uiso   1.00
C581   C     0.61007   0.48600   0.58471   0.00000  Uiso   1.00
C582   C     0.35808   0.53173   0.95042   0.00000  Uiso   1.00
C583   C     0.38213   0.54209   0.50731   0.00000  Uiso   1.00
C584   C     0.46577   0.49513   0.99488   0.00000  Uiso   1.00
C585   C     0.43607   0.52502   0.52941   0.00000  Uiso   1.00
C586   C     0.43699   0.47801   0.93981   0.00000  Uiso   1.00
C587   C     0.52312   0.48176   0.51305   0.00000  Uiso   1.00
C588   C     0.54726   0.44479   0.98051   0.00000  Uiso   1.00
C589   C     0.51458   0.42260   0.92953   0.00000  Uiso   1.00
C590   C     0.46003   0.43899   0.90930   0.00000  Uiso   1.00
C591   C     0.55747   0.50490   0.56253   0.00000  Uiso   1.00
C592   C     0.63422   0.44942   0.55318   0.00000  Uiso   1.00
H593   H     0.34195   0.43438   0.57041   0.00000  Uiso   1.00
H594   H     0.43581   0.42046   0.86974   0.00000  Uiso   1.00
H595   H     0.39836   0.33648   0.74436   0.00000  Uiso   1.00
H596   H     0.60194   0.66358   0.75661   0.00000  Uiso   1.00
H597   H     0.48971   0.45763   0.70850   0.00000  Uiso   1.00
H598   H     0.53151   0.39318   0.90486   0.00000  Uiso   1.00
H599   H     0.62205   0.40133   0.97606   0.00000  Uiso   1.00
H600   H     0.54298   0.53616   0.58648   0.00000  Uiso   1.00
H601   H     0.65176   0.54896   0.93286   0.00000  Uiso   1.00
H602   H     0.45278   0.53465   0.57381   0.00000  Uiso   1.00
H603   H     0.35997   0.56509   0.53394   0.00000  Uiso   1.00
I604   I     0.51114   0.57463   0.82131   0.00000  Uiso   1.00
N605   N     0.47827   0.48556   0.73542   0.00000  Uiso   1.00
N606   N     0.52173   0.51444   0.76457   0.00000  Uiso   1.00
O607   O     0.63102   0.57963   0.75357   0.00000  Uiso   1.00
O608   O     0.39075   0.57038   0.74423   0.00000  Uiso   1.00
O609   O     0.64823   0.50691   0.83380   0.00000  Uiso   1.00
O610   O     0.40796   0.49766   0.82446   0.00000  Uiso   1.00
O611   O     0.60925   0.42962   0.75576   0.00000  Uiso   1.00
O612   O     0.36898   0.42037   0.74643   0.00000  Uiso   1.00
O613   O     0.59204   0.50234   0.67554   0.00000  Uiso   1.00
O614   O     0.35177   0.49309   0.66620   0.00000  Uiso   1.00
Zn615  Zn    0.60453   0.50618   0.75623   0.00000  Uiso   1.00
Zn616  Zn    0.39547   0.49382   0.74377   0.00000  Uiso   1.00
C617   C     0.68148   0.59818   0.74879   0.00000  Uiso   1.00
C618   C     0.71978   0.50137   0.91613   0.00000  Uiso   1.00
C619   C     0.68927   0.65276   0.74832   0.00000  Uiso   1.00
C620   C     0.70196   0.50122   0.85513   0.00000  Uiso   1.00
C621   C     0.97766   0.34729   0.75255   0.00000  Uiso   1.00
C622   C     0.98526   0.40183   0.75150   0.00000  Uiso   1.00
C623   C     0.96418   0.49614   0.64483   0.00000  Uiso   1.00
C624   C     0.93667   0.42981   0.50026   0.00000  Uiso   1.00
C625   C     0.94340   0.48600   0.58471   0.00000  Uiso   1.00
C626   C     0.69142   0.53173   0.95042   0.00000  Uiso   1.00
C627   C     0.71547   0.54209   0.50731   0.00000  Uiso   1.00
C628   C     0.79910   0.49513   0.99488   0.00000  Uiso   1.00
C629   C     0.76941   0.52502   0.52941   0.00000  Uiso   1.00
C630   C     0.77032   0.47801   0.93981   0.00000  Uiso   1.00
C631   C     0.85645   0.48176   0.51305   0.00000  Uiso   1.00
C632   C     0.88059   0.44479   0.98051   0.00000  Uiso   1.00
C633   C     0.84791   0.42260   0.92953   0.00000  Uiso   1.00
C634   C     0.79336   0.43899   0.90930   0.00000  Uiso   1.00
C635   C     0.89081   0.50490   0.56253   0.00000  Uiso   1.00
C636   C     0.96755   0.44942   0.55318   0.00000  Uiso   1.00
H637   H     0.67529   0.43438   0.57041   0.00000  Uiso   1.00
H638   H     0.76914   0.42046   0.86974   0.00000  Uiso   1.00
H639   H     0.73169   0.33648   0.74436   0.00000  Uiso   1.00
H640   H     0.93527   0.66358   0.75661   0.00000  Uiso   1.00
H641   H     0.82304   0.45763   0.70850   0.00000  Uiso   1.00
H642   H     0.86484   0.39318   0.90486   0.00000  Uiso   1.00
H643   H     0.95538   0.40133   0.97606   0.00000  Uiso   1.00
H644   H     0.87631   0.53616   0.58648   0.00000  Uiso   1.00
H645   H     0.98509   0.54896   0.93286   0.00000  Uiso   1.00
H646   H     0.78612   0.53465   0.57381   0.00000  Uiso   1.00
H647   H     0.69330   0.56509   0.53394   0.00000  Uiso   1.00
I648   I     0.84447   0.57463   0.82131   0.00000  Uiso   1.00
N649   N     0.81160   0.48556   0.73542   0.00000  Uiso   1.00
N650   N     0.85507   0.51444   0.76457   0.00000  Uiso   1.00
O651   O     0.96435   0.57963   0.75357   0.00000  Uiso   1.00
O652   O     0.72408   0.57038   0.74423   0.00000  Uiso   1.00
O653   O     0.98157   0.50691   0.83380   0.00000  Uiso   1.00
O654   O     0.74130   0.49766   0.82446   0.00000  Uiso   1.00
O655   O     0.94258   0.42962   0.75576   0.00000  Uiso   1.00
O656   O     0.70231   0.42037   0.74643   0.00000  Uiso   1.00
O657   O     0.92537   0.50234   0.67554   0.00000  Uiso   1.00
O658   O     0.68510   0.49309   0.66620   0.00000  Uiso   1.00
Zn659  Zn    0.93786   0.50618   0.75623   0.00000  Uiso   1.00
Zn660  Zn    0.72881   0.49382   0.74377   0.00000  Uiso   1.00
C661   C     0.01482   0.93151   0.74879   0.00000  Uiso   1.00
C662   C     0.05311   0.83470   0.91613   0.00000  Uiso   1.00
C663   C     0.02261   0.98610   0.74832   0.00000  Uiso   1.00
C664   C     0.03529   0.83456   0.85513   0.00000  Uiso   1.00
C665   C     0.31099   0.68063   0.75255   0.00000  Uiso   1.00
C666   C     0.31860   0.73517   0.75150   0.00000  Uiso   1.00
C667   C     0.29752   0.82948   0.64483   0.00000  Uiso   1.00
C668   C     0.27001   0.76314   0.50026   0.00000  Uiso   1.00
C669   C     0.27673   0.81933   0.58471   0.00000  Uiso   1.00
C670   C     0.02475   0.86507   0.95042   0.00000  Uiso   1.00
C671   C     0.04880   0.87543   0.50731   0.00000  Uiso   1.00
C672   C     0.13243   0.82846   0.99488   0.00000  Uiso   1.00
C673   C     0.10274   0.85836   0.52941   0.00000  Uiso   1.00
C674   C     0.10365   0.81134   0.93981   0.00000  Uiso   1.00
C675   C     0.18979   0.81509   0.51305   0.00000  Uiso   1.00
C676   C     0.21393   0.77812   0.98051   0.00000  Uiso   1.00
C677   C     0.18125   0.75593   0.92953   0.00000  Uiso   1.00
C678   C     0.12670   0.77232   0.90930   0.00000  Uiso   1.00
C679   C     0.22414   0.83823   0.56253   0.00000  Uiso   1.00
C680   C     0.30089   0.78276   0.55318   0.00000  Uiso   1.00
H681   H     0.00862   0.76771   0.57041   0.00000  Uiso   1.00
H682   H     0.10247   0.75379   0.86974   0.00000  Uiso   1.00
H683   H     0.06502   0.66981   0.74436   0.00000  Uiso   1.00
H684   H     0.26860   0.99692   0.75661   0.00000  Uiso   1.00
H685   H     0.15638   0.79097   0.70850   0.00000  Uiso   1.00
H686   H     0.19817   0.72652   0.90486   0.00000  Uiso   1.00
H687   H     0.28871   0.73466   0.97606   0.00000  Uiso   1.00
H688   H     0.20964   0.86949   0.58648   0.00000  Uiso   1.00
H689   H     0.31842   0.88229   0.93286   0.00000  Uiso   1.00
H690   H     0.11945   0.86799   0.57381   0.00000  Uiso   1.00
H691   H     0.02663   0.89842   0.53394   0.00000  Uiso   1.00
I692   I     0.17780   0.90796   0.82131   0.00000  Uiso   1.00
N693   N     0.14493   0.81890   0.73542   0.00000  Uiso   1.00
N694   N     0.18840   0.84777   0.76457   0.00000  Uiso   1.00
O695   O     0.29769   0.91296   0.75357   0.00000  Uiso   1.00
O696   O     0.05742   0.90371   0.74423   0.00000  Uiso   1.00
O697   O     0.31490   0.84024   0.83380   0.00000  Uiso   1.00
O698   O     0.07463   0.83099   0.82446   0.00000  Uiso   1.00
O699   O     0.27592   0.76296   0.75576   0.00000  Uiso   1.00
O700   O     0.03565   0.75371   0.74643   0.00000  Uiso   1.00
O701   O     0.25870   0.83567   0.67554   0.00000  Uiso   1.00
O702   O     0.01843   0.82642   0.66620   0.00000  Uiso   1.00
Zn703  Zn    0.27119   0.83951   0.75623   0.00000  Uiso   1.00
Zn704  Zn    0.06214   0.82716   0.74377   0.00000  Uiso   1.00
C705   C     0.34815   0.93151   0.74879   0.00000  Uiso   1.00
C706   C     0.38645   0.83470   0.91613   0.00000  Uiso   1.00
C707   C     0.35594   0.98610   0.74832   0.00000  Uiso   1.00
C708   C     0.36863   0.83456   0.85513   0.00000  Uiso   1.00
C709   C     0.64433   0.68063   0.75255   0.00000  Uiso   1.00
C710   C     0.65193   0.73517   0.75150   0.00000  Uiso   1.00
C711   C     0.63085   0.82948   0.64483   0.00000  Uiso   1.00
C712   C     0.60334   0.76314   0.50026   0.00000  Uiso   1.00
C713   C     0.61007   0.81933   0.58471   0.00000  Uiso   1.00
C714   C     0.35808   0.86507   0.95042   0.00000  Uiso   1.00
C715   C     0.38213   0.87543   0.50731   0.00000  Uiso   1.00
C716   C     0.46577   0.82846   0.99488   0.00000  Uiso   1.00
C717   C     0.43607   0.85836   0.52941   0.00000  Uiso   1.00
C718   C     0.43699   0.81134   0.93981   0.00000  Uiso   1.00
C719   C     0.52312   0.81509   0.51305   0.00000  Uiso   1.00
C720   C     0.54726   0.77812   0.98051   0.00000  Uiso   1.00
C721   C     0.51458   0.75593   0.92953   0.00000  Uiso   1.00
C722   C     0.46003   0.77232   0.90930   0.00000  Uiso   1.00
C723   C     0.55747   0.83823   0.56253   0.00000  Uiso   1.00
C724   C     0.63422   0.78276   0.55318   0.00000  Uiso   1.00
H725   H     0.34195   0.76771   0.57041   0.00000  Uiso   1.00
H726   H     0.43581   0.75379   0.86974   0.00000  Uiso   1.00
H727   H     0.39836   0.66981   0.74436   0.00000  Uiso   1.00
H728   H     0.60194   0.99692   0.75661   0.00000  Uiso   1.00
H729   H     0.48971   0.79097   0.70850   0.00000  Uiso   1.00
H730   H     0.53151   0.72652   0.90486   0.00000  Uiso   1.00
H731   H     0.62205   0.73466   0.97606   0.00000  Uiso   1.00
H732   H     0.54298   0.86949   0.58648   0.00000  Uiso   1.00
H733   H     0.65176   0.88229   0.93286   0.00000  Uiso   1.00
H734   H     0.45278   0.86799   0.57381   0.00000  Uiso   1.00
H735   H     0.35997   0.89842   0.53394   0.00000  Uiso   1.00
I736   I     0.51114   0.90796   0.82131   0.00000  Uiso   1.00
N737   N     0.47827   0.81890   0.73542   0.00000  Uiso   1.00
N738   N     0.52173   0.84777   0.76457   0.00000  Uiso   1.00
O739   O     0.63102   0.91296   0.75357   0.00000  Uiso   1.00
O740   O     0.39075   0.90371   0.74423   0.00000  Uiso   1.00
O741   O     0.64823   0.84024   0.83380   0.00000  Uiso   1.00
O742   O     0.40796   0.83099   0.82446   0.00000  Uiso   1.00
O743   O     0.60925   0.76296   0.75576   0.00000  Uiso   1.00
O744   O     0.36898   0.75371   0.74643   0.00000  Uiso   1.00
O745   O     0.59204   0.83567   0.67554   0.00000  Uiso   1.00
O746   O     0.35177   0.82642   0.66620   0.00000  Uiso   1.00
Zn747  Zn    0.60453   0.83951   0.75623   0.00000  Uiso   1.00
Zn748  Zn    0.39547   0.82716   0.74377   0.00000  Uiso   1.00
C749   C     0.68148   0.93151   0.74879   0.00000  Uiso   1.00
C750   C     0.71978   0.83470   0.91613   0.00000  Uiso   1.00
C751   C     0.68927   0.98610   0.74832   0.00000  Uiso   1.00
C752   C     0.70196   0.83456   0.85513   0.00000  Uiso   1.00
C753   C     0.97766   0.68063   0.75255   0.00000  Uiso   1.00
C754   C     0.98526   0.73517   0.75150   0.00000  Uiso   1.00
C755   C     0.96418   0.82948   0.64483   0.00000  Uiso   1.00
C756   C     0.93667   0.76314   0.50026   0.00000  Uiso   1.00
C757   C     0.94340   0.81933   0.58471   0.00000  Uiso   1.00
C758   C     0.69142   0.86507   0.95042   0.00000  Uiso   1.00
C759   C     0.71547   0.87543   0.50731   0.00000  Uiso   1.00
C760   C     0.79910   0.82846   0.99488   0.00000  Uiso   1.00
C761   C     0.76941   0.85836   0.52941   0.00000  Uiso   1.00
C762   C     0.77032   0.81134   0.93981   0.00000  Uiso   1.00
C763   C     0.85645   0.81509   0.51305   0.00000  Uiso   1.00
C764   C     0.88059   0.77812   0.98051   0.00000  Uiso   1.00
C765   C     0.84791   0.75593   0.92953   0.00000  Uiso   1.00
C766   C     0.79336   0.77232   0.90930   0.00000  Uiso   1.00
C767   C     0.89081   0.83823   0.56253   0.00000  Uiso   1.00
C768   C     0.96755   0.78276   0.55318   0.00000  Uiso   1.00
H769   H     0.67529   0.76771   0.57041   0.00000  Uiso   1.00
H770   H     0.76914   0.75379   0.86974   0.00000  Uiso   1.00
H771   H     0.73169   0.66981   0.74436   0.00000  Uiso   1.00
H772   H     0.93527   0.99692   0.75661   0.00000  Uiso   1.00
H773   H     0.82304   0.79097   0.70850   0.00000  Uiso   1.00
H774   H     0.86484   0.72652   0.90486   0.00000  Uiso   1.00
H775   H     0.95538   0.73466   0.97606   0.00000  Uiso   1.00
H776   H     0.87631   0.86949   0.58648   0.00000  Uiso   1.00
H777   H     0.98509   0.88229   0.93286   0.00000  Uiso   1.00
H778   H     0.78612   0.86799   0.57381   0.00000  Uiso   1.00
H779   H     0.69330   0.89842   0.53394   0.00000  Uiso   1.00
I780   I     0.84447   0.90796   0.82131   0.00000  Uiso   1.00
N781   N     0.81160   0.81890   0.73542   0.00000  Uiso   1.00
N782   N     0.85507   0.84777   0.76457   0.00000  Uiso   1.00
O783   O     0.96435   0.91296   0.75357   0.00000  Uiso   1.00
O784   O     0.72408   0.90371   0.74423   0.00000  Uiso   1.00
O785   O     0.98157   0.84024   0.83380   0.00000  Uiso   1.00
O786   O     0.74130   0.83099   0.82446   0.00000  Uiso   1.00
O787   O     0.94258   0.76296   0.75576   0.00000  Uiso   1.00
O788   O     0.70231   0.75371   0.74643   0.00000  Uiso   1.00
O789   O     0.92537   0.83567   0.67554   0.00000  Uiso   1.00
O790   O     0.68510   0.82642   0.66620   0.00000  Uiso   1.00
Zn791  Zn    0.93786   0.83951   0.75623   0.00000  Uiso   1.00
Zn792  Zn    0.72881   0.82716   0.74377   0.00000  Uiso   1.00
loop_
_geom_bond_atom_site_label_1
_geom_bond_atom_site_label_2
_geom_bond_distance
_geom_bond_site_symmetry_2
_ccdc_geom_bond_type
C1     O36     1.291   .     A
C1     C3      1.402   .     S
C1     O123    1.280   1_455 S
C2     C4      1.453   .     S
C2     C14     1.407   .     A
C2     C10     1.402   .     A
C3     C225    1.337   1_455 S
C3     H155    1.088   .     S
C4     O38     1.301   .     A
C4     O125    1.294   1_455 S
C5     C6      1.402   .     S
C5     C311    1.337   1_545 S
C5     H288    1.088   1_545 S
C6     O39     1.291   .     A
C6     O84     1.280   .     S
C7     O41     1.300   .     A
C7     C9      1.445   .     S
C7     O86     1.293   .     S
C8     C20     1.394   .     A
C8     C412    1.404   1_554 S
C8     H423    1.084   1_554 S
C9     C20     1.400   .     A
C9     C19     1.384   .     A
C10    C407    1.387   .     S
C10    H117    1.083   1_455 S
C11    H31     1.083   .     S
C11    C13     1.391   .     A
C11    C406    1.387   1_554 S
C12    C14     1.405   .     A
C12    C409    1.420   .     S
C12    C411    1.411   .     S
C13    H30     1.079   .     S
C13    C408    1.420   1_554 S
C14    C18     1.415   .     A
C15    C19     1.387   .     A
C15    C408    1.411   1_554 S
C15    C412    1.421   1_554 S
C16    C17     1.392   .     A
C16    C404    1.404   .     S
C16    C411    1.421   .     S
C17    H26     1.084   .     S
C17    C18     1.387   .     A
C18    H22     1.082   .     S
C19    H28     1.080   .     S
C20    H65     1.083   .     S
H21    C108    1.083   1_455 S
H23    C267    1.088   1_545 S
H24    C137    1.088   .     S
H25    N33     1.029   .     S
H27    C404    1.084   .     S
H29    C54     1.083   .     S
I32    N34     2.075   .     S
N33    N34     1.288   .     D
N33    Zn44    2.027   .     S
N34    Zn43    2.027   .     S
O35    Zn43    1.954   .     S
O35    C45     1.280   .     S
O36    Zn44    1.977   .     S
O37    Zn43    1.955   .     S
O37    C48     1.294   .     S
O38    Zn44    1.912   .     S
O39    Zn43    1.977   .     S
O40    Zn44    1.954   .     S
O40    C94     1.280   1_455 S
O41    Zn43    1.912   .     S
O42    Zn44    1.955   .     S
O42    C95     1.293   1_455 S
C45    O80     1.291   .     A
C45    C47     1.402   .     S
C46    C48     1.453   .     S
C46    C58     1.407   .     A
C46    C54     1.402   .     A
C47    C137    1.337   .     S
C47    H199    1.088   .     S
C48    O82     1.301   .     A
C49    C50     1.402   .     S
C49    C355    1.337   1_545 S
C49    H332    1.088   1_545 S
C50    O83     1.291   .     A
C50    O128    1.280   .     S
C51    O85     1.300   .     A
C51    C53     1.445   .     S
C51    O130    1.293   .     S
C52    C64     1.394   .     A
C52    C456    1.404   1_554 S
C52    H467    1.084   1_554 S
C53    C64     1.400   .     A
C53    C63     1.384   .     A
C54    C451    1.387   .     S
C55    H75     1.083   .     S
C55    C57     1.391   .     A
C55    C450    1.387   1_554 S
C56    C58     1.405   .     A
C56    C453    1.420   .     S
C56    C455    1.411   .     S
C57    H74     1.079   .     S
C57    C452    1.420   1_554 S
C58    C62     1.415   .     A
C59    C63     1.387   .     A
C59    C452    1.411   1_554 S
C59    C456    1.421   1_554 S
C60    C61     1.392   .     A
C60    C448    1.404   .     S
C60    C455    1.421   .     S
C61    H70     1.084   .     S
C61    C62     1.387   .     A
C62    H66     1.082   .     S
C63    H72     1.080   .     S
C64    H109    1.083   .     S
H67    C311    1.088   1_545 S
H68    C181    1.088   .     S
H69    N77     1.029   .     S
H71    C448    1.084   .     S
H73    C98     1.083   .     S
I76    N78     2.075   .     S
N77    N78     1.288   .     D
N77    Zn88    2.027   .     S
N78    Zn87    2.027   .     S
O79    Zn87    1.954   .     S
O79    C89     1.280   .     S
O80    Zn88    1.977   .     S
O81    Zn87    1.955   .     S
O81    C92     1.294   .     S
O82    Zn88    1.912   .     S
O83    Zn87    1.977   .     S
O84    Zn88    1.954   .     S
O85    Zn87    1.912   .     S
O86    Zn88    1.955   .     S
C89    O124    1.291   .     A
C89    C91     1.402   .     S
C90    C92     1.453   .     S
C90    C102    1.407   .     A
C90    C98     1.402   .     A
C91    C181    1.337   .     S
C91    H243    1.088   .     S
C92    O126    1.301   .     A
C93    C94     1.402   .     S
C93    C267    1.337   1_645 S
C93    H376    1.088   1_545 S
C94    O127    1.291   .     A
C94    O40     1.280   1_655 S
C95    O129    1.300   .     A
C95    C97     1.445   .     S
C95    O42     1.293   1_655 S
C96    C108    1.394   .     A
C96    C500    1.404   1_554 S
C96    H511    1.084   1_554 S
C97    C108    1.400   .     A
C97    C107    1.384   .     A
C98    C495    1.387   .     S
C99    H119    1.083   .     S
C99    C101    1.391   .     A
C99    C494    1.387   1_554 S
C100   C102    1.405   .     A
C100   C497    1.420   .     S
C100   C499    1.411   .     S
C101   H118    1.079   .     S
C101   C496    1.420   1_554 S
C102   C106    1.415   .     A
C103   C107    1.387   .     A
C103   C496    1.411   1_554 S
C103   C500    1.421   1_554 S
C104   C105    1.392   .     A
C104   C492    1.404   .     S
C104   C499    1.421   .     S
C105   H114    1.084   .     S
C105   C106    1.387   .     A
C106   H110    1.082   .     S
C107   H116    1.080   .     S
C108   H21     1.083   1_655 S
H111   C355    1.088   1_545 S
H112   C225    1.088   .     S
H113   N121    1.029   .     S
H115   C492    1.084   .     S
H117   C10     1.083   1_655 S
I120   N122    2.075   .     S
N121   N122    1.288   .     D
N121   Zn132   2.027   .     S
N122   Zn131   2.027   .     S
O123   Zn131   1.954   .     S
O123   C1      1.280   1_655 S
O124   Zn132   1.977   .     S
O125   Zn131   1.955   .     S
O125   C4      1.294   1_655 S
O126   Zn132   1.912   .     S
O127   Zn131   1.977   .     S
O128   Zn132   1.954   .     S
O129   Zn131   1.912   .     S
O130   Zn132   1.955   .     S
C133   O168    1.291   .     A
C133   C135    1.402   .     S
C133   O255    1.280   1_455 S
C134   C136    1.453   .     S
C134   C146    1.407   .     A
C134   C142    1.402   .     A
C135   C357    1.337   1_455 S
C135   H287    1.088   .     S
C136   O170    1.301   .     A
C136   O257    1.294   1_455 S
C137   C138    1.402   .     S
C138   O171    1.291   .     A
C138   O216    1.280   .     S
C139   O173    1.300   .     A
C139   C141    1.445   .     S
C139   O218    1.293   .     S
C140   C152    1.394   .     A
C140   C544    1.404   1_554 S
C140   H555    1.084   1_554 S
C141   C152    1.400   .     A
C141   C151    1.384   .     A
C142   C539    1.387   .     S
C142   H249    1.083   1_455 S
C143   H163    1.083   .     S
C143   C145    1.391   .     A
C143   C538    1.387   1_554 S
C144   C146    1.405   .     A
C144   C541    1.420   .     S
C144   C543    1.411   .     S
C145   H162    1.079   .     S
C145   C540    1.420   1_554 S
C146   C150    1.415   .     A
C147   C151    1.387   .     A
C147   C540    1.411   1_554 S
C147   C544    1.421   1_554 S
C148   C149    1.392   .     A
C148   C536    1.404   .     S
C148   C543    1.421   .     S
C149   H158    1.084   .     S
C149   C150    1.387   .     A
C150   H154    1.082   .     S
C151   H160    1.080   .     S
C152   H197    1.083   .     S
H153   C240    1.083   1_455 S
H156   C269    1.088   .     S
H157   N165    1.029   .     S
H159   C536    1.084   .     S
H161   C186    1.083   .     S
I164   N166    2.075   .     S
N165   N166    1.288   .     D
N165   Zn176   2.027   .     S
N166   Zn175   2.027   .     S
O167   Zn175   1.954   .     S
O167   C177    1.280   .     S
O168   Zn176   1.977   .     S
O169   Zn175   1.955   .     S
O169   C180    1.294   .     S
O170   Zn176   1.912   .     S
O171   Zn175   1.977   .     S
O172   Zn176   1.954   .     S
O172   C226    1.280   1_455 S
O173   Zn175   1.912   .     S
O174   Zn176   1.955   .     S
O174   C227    1.293   1_455 S
C177   O212    1.291   .     A
C177   C179    1.402   .     S
C178   C180    1.453   .     S
C178   C190    1.407   .     A
C178   C186    1.402   .     A
C179   C269    1.337   .     S
C179   H331    1.088   .     S
C180   O214    1.301   .     A
C181   C182    1.402   .     S
C182   O215    1.291   .     A
C182   O260    1.280   .     S
C183   O217    1.300   .     A
C183   C185    1.445   .     S
C183   O262    1.293   .     S
C184   C196    1.394   .     A
C184   C588    1.404   1_554 S
C184   H599    1.084   1_554 S
C185   C196    1.400   .     A
C185   C195    1.384   .     A
C186   C583    1.387   .     S
C187   H207    1.083   .     S
C187   C189    1.391   .     A
C187   C582    1.387   1_554 S
C188   C190    1.405   .     A
C188   C585    1.420   .     S
C188   C587    1.411   .     S
C189   H206    1.079   .     S
C189   C584    1.420   1_554 S
C190   C194    1.415   .     A
C191   C195    1.387   .     A
C191   C584    1.411   1_554 S
C191   C588    1.421   1_554 S
C192   C193    1.392   .     A
C192   C580    1.404   .     S
C192   C587    1.421   .     S
C193   H202    1.084   .     S
C193   C194    1.387   .     A
C194   H198    1.082   .     S
C195   H204    1.080   .     S
C196   H241    1.083   .     S
H200   C313    1.088   .     S
H201   N209    1.029   .     S
H203   C580    1.084   .     S
H205   C230    1.083   .     S
I208   N210    2.075   .     S
N209   N210    1.288   .     D
N209   Zn220   2.027   .     S
N210   Zn219   2.027   .     S
O211   Zn219   1.954   .     S
O211   C221    1.280   .     S
O212   Zn220   1.977   .     S
O213   Zn219   1.955   .     S
O213   C224    1.294   .     S
O214   Zn220   1.912   .     S
O215   Zn219   1.977   .     S
O216   Zn220   1.954   .     S
O217   Zn219   1.912   .     S
O218   Zn220   1.955   .     S
C221   O256    1.291   .     A
C221   C223    1.402   .     S
C222   C224    1.453   .     S
C222   C234    1.407   .     A
C222   C230    1.402   .     A
C223   C313    1.337   .     S
C223   H375    1.088   .     S
C224   O258    1.301   .     A
C225   C226    1.402   .     S
C225   C3      1.337   1_655 S
C226   O259    1.291   .     A
C226   O172    1.280   1_655 S
C227   O261    1.300   .     A
C227   C229    1.445   .     S
C227   O174    1.293   1_655 S
C228   C240    1.394   .     A
C228   C632    1.404   1_554 S
C228   H643    1.084   1_554 S
C229   C240    1.400   .     A
C229   C239    1.384   .     A
C230   C627    1.387   .     S
C231   H251    1.083   .     S
C231   C233    1.391   .     A
C231   C626    1.387   1_554 S
C232   C234    1.405   .     A
C232   C629    1.420   .     S
C232   C631    1.411   .     S
C233   H250    1.079   .     S
C233   C628    1.420   1_554 S
C234   C238    1.415   .     A
C235   C239    1.387   .     A
C235   C628    1.411   1_554 S
C235   C632    1.421   1_554 S
C236   C237    1.392   .     A
C236   C624    1.404   .     S
C236   C631    1.421   .     S
C237   H246    1.084   .     S
C237   C238    1.387   .     A
C238   H242    1.082   .     S
C239   H248    1.080   .     S
C240   H153    1.083   1_655 S
H244   C357    1.088   .     S
H245   N253    1.029   .     S
H247   C624    1.084   .     S
H249   C142    1.083   1_655 S
I252   N254    2.075   .     S
N253   N254    1.288   .     D
N253   Zn264   2.027   .     S
N254   Zn263   2.027   .     S
O255   Zn263   1.954   .     S
O255   C133    1.280   1_655 S
O256   Zn264   1.977   .     S
O257   Zn263   1.955   .     S
O257   C136    1.294   1_655 S
O258   Zn264   1.912   .     S
O259   Zn263   1.977   .     S
O260   Zn264   1.954   .     S
O261   Zn263   1.912   .     S
O262   Zn264   1.955   .     S
C265   O300    1.291   .     A
C265   C267    1.402   .     S
C265   O387    1.280   1_455 S
C266   C268    1.453   .     S
C266   C278    1.407   .     A
C266   C274    1.402   .     A
C267   C93     1.337   1_465 S
C267   H23     1.088   1_565 S
C268   O302    1.301   .     A
C268   O389    1.294   1_455 S
C269   C270    1.402   .     S
C270   O303    1.291   .     A
C270   O348    1.280   .     S
C271   O305    1.300   .     A
C271   C273    1.445   .     S
C271   O350    1.293   .     S
C272   C284    1.394   .     A
C272   C676    1.404   1_554 S
C272   H687    1.084   1_554 S
C273   C284    1.400   .     A
C273   C283    1.384   .     A
C274   C671    1.387   .     S
C274   H381    1.083   1_455 S
C275   H295    1.083   .     S
C275   C277    1.391   .     A
C275   C670    1.387   1_554 S
C276   C278    1.405   .     A
C276   C673    1.420   .     S
C276   C675    1.411   .     S
C277   H294    1.079   .     S
C277   C672    1.420   1_554 S
C278   C282    1.415   .     A
C279   C283    1.387   .     A
C279   C672    1.411   1_554 S
C279   C676    1.421   1_554 S
C280   C281    1.392   .     A
C280   C668    1.404   .     S
C280   C675    1.421   .     S
C281   H290    1.084   .     S
C281   C282    1.387   .     A
C282   H286    1.082   .     S
C283   H292    1.080   .     S
C284   H329    1.083   .     S
H285   C372    1.083   1_455 S
H288   C5      1.088   1_565 S
H289   N297    1.029   .     S
H291   C668    1.084   .     S
H293   C318    1.083   .     S
I296   N298    2.075   .     S
N297   N298    1.288   .     D
N297   Zn308   2.027   .     S
N298   Zn307   2.027   .     S
O299   Zn307   1.954   .     S
O299   C309    1.280   .     S
O300   Zn308   1.977   .     S
O301   Zn307   1.955   .     S
O301   C312    1.294   .     S
O302   Zn308   1.912   .     S
O303   Zn307   1.977   .     S
O304   Zn308   1.954   .     S
O304   C358    1.280   1_455 S
O305   Zn307   1.912   .     S
O306   Zn308   1.955   .     S
O306   C359    1.293   1_455 S
C309   O344    1.291   .     A
C309   C311    1.402   .     S
C310   C312    1.453   .     S
C310   C322    1.407   .     A
C310   C318    1.402   .     A
C311   C5      1.337   1_565 S
C311   H67     1.088   1_565 S
C312   O346    1.301   .     A
C313   C314    1.402   .     S
C314   O347    1.291   .     A
C314   O392    1.280   .     S
C315   O349    1.300   .     A
C315   C317    1.445   .     S
C315   O394    1.293   .     S
C316   C328    1.394   .     A
C316   C720    1.404   1_554 S
C316   H731    1.084   1_554 S
C317   C328    1.400   .     A
C317   C327    1.384   .     A
C318   C715    1.387   .     S
C319   H339    1.083   .     S
C319   C321    1.391   .     A
C319   C714    1.387   1_554 S
C320   C322    1.405   .     A
C320   C717    1.420   .     S
C320   C719    1.411   .     S
C321   H338    1.079   .     S
C321   C716    1.420   1_554 S
C322   C326    1.415   .     A
C323   C327    1.387   .     A
C323   C716    1.411   1_554 S
C323   C720    1.421   1_554 S
C324   C325    1.392   .     A
C324   C712    1.404   .     S
C324   C719    1.421   .     S
C325   H334    1.084   .     S
C325   C326    1.387   .     A
C326   H330    1.082   .     S
C327   H336    1.080   .     S
C328   H373    1.083   .     S
H332   C49     1.088   1_565 S
H333   N341    1.029   .     S
H335   C712    1.084   .     S
H337   C362    1.083   .     S
I340   N342    2.075   .     S
N341   N342    1.288   .     D
N341   Zn352   2.027   .     S
N342   Zn351   2.027   .     S
O343   Zn351   1.954   .     S
O343   C353    1.280   .     S
O344   Zn352   1.977   .     S
O345   Zn351   1.955   .     S
O345   C356    1.294   .     S
O346   Zn352   1.912   .     S
O347   Zn351   1.977   .     S
O348   Zn352   1.954   .     S
O349   Zn351   1.912   .     S
O350   Zn352   1.955   .     S
C353   O388    1.291   .     A
C353   C355    1.402   .     S
C354   C356    1.453   .     S
C354   C366    1.407   .     A
C354   C362    1.402   .     A
C355   C49     1.337   1_565 S
C355   H111    1.088   1_565 S
C356   O390    1.301   .     A
C357   C358    1.402   .     S
C357   C135    1.337   1_655 S
C358   O391    1.291   .     A
C358   O304    1.280   1_655 S
C359   O393    1.300   .     A
C359   C361    1.445   .     S
C359   O306    1.293   1_655 S
C360   C372    1.394   .     A
C360   C764    1.404   1_554 S
C360   H775    1.084   1_554 S
C361   C372    1.400   .     A
C361   C371    1.384   .     A
C362   C759    1.387   .     S
C363   H383    1.083   .     S
C363   C365    1.391   .     A
C363   C758    1.387   1_554 S
C364   C366    1.405   .     A
C364   C761    1.420   .     S
C364   C763    1.411   .     S
C365   H382    1.079   .     S
C365   C760    1.420   1_554 S
C366   C370    1.415   .     A
C367   C371    1.387   .     A
C367   C760    1.411   1_554 S
C367   C764    1.421   1_554 S
C368   C369    1.392   .     A
C368   C756    1.404   .     S
C368   C763    1.421   .     S
C369   H378    1.084   .     S
C369   C370    1.387   .     A
C370   H374    1.082   .     S
C371   H380    1.080   .     S
C372   H285    1.083   1_655 S
H376   C93     1.088   1_565 S
H377   N385    1.029   .     S
H379   C756    1.084   .     S
H381   C274    1.083   1_655 S
I384   N386    2.075   .     S
N385   N386    1.288   .     D
N385   Zn396   2.027   .     S
N386   Zn395   2.027   .     S
O387   Zn395   1.954   .     S
O387   C265    1.280   1_655 S
O388   Zn396   1.977   .     S
O389   Zn395   1.955   .     S
O389   C268    1.294   1_655 S
O390   Zn396   1.912   .     S
O391   Zn395   1.977   .     S
O392   Zn396   1.954   .     S
O393   Zn395   1.912   .     S
O394   Zn396   1.955   .     S
C397   O432    1.291   .     A
C397   C399    1.402   .     S
C397   O519    1.280   1_455 S
C398   C400    1.453   .     S
C398   C410    1.407   .     A
C398   C406    1.402   .     A
C399   C621    1.337   1_455 S
C399   H551    1.088   .     S
C400   O434    1.301   .     A
C400   O521    1.294   1_455 S
C401   C402    1.402   .     S
C401   C707    1.337   1_545 S
C401   H684    1.088   1_545 S
C402   O435    1.291   .     A
C402   O480    1.280   .     S
C403   O437    1.300   .     A
C403   C405    1.445   .     S
C403   O482    1.293   .     S
C404   C416    1.394   .     A
C405   C416    1.400   .     A
C405   C415    1.384   .     A
C406   C11     1.387   1_556 S
C406   H513    1.083   1_455 S
C407   H427    1.083   .     S
C407   C409    1.391   .     A
C408   C410    1.405   .     A
C408   C13     1.420   1_556 S
C408   C15     1.411   1_556 S
C409   H426    1.079   .     S
C410   C414    1.415   .     A
C411   C415    1.387   .     A
C412   C413    1.392   .     A
C412   C8      1.404   1_556 S
C412   C15     1.421   1_556 S
C413   H422    1.084   .     S
C413   C414    1.387   .     A
C414   H418    1.082   .     S
C415   H424    1.080   .     S
C416   H461    1.083   .     S
H417   C504    1.083   1_455 S
H419   C663    1.088   1_545 S
H420   C533    1.088   .     S
H421   N429    1.029   .     S
H423   C8      1.084   1_556 S
H425   C450    1.083   .     S
I428   N430    2.075   .     S
N429   N430    1.288   .     D
N429   Zn440   2.027   .     S
N430   Zn439   2.027   .     S
O431   Zn439   1.954   .     S
O431   C441    1.280   .     S
O432   Zn440   1.977   .     S
O433   Zn439   1.955   .     S
O433   C444    1.294   .     S
O434   Zn440   1.912   .     S
O435   Zn439   1.977   .     S
O436   Zn440   1.954   .     S
O436   C490    1.280   1_455 S
O437   Zn439   1.912   .     S
O438   Zn440   1.955   .     S
O438   C491    1.293   1_455 S
C441   O476    1.291   .     A
C441   C443    1.402   .     S
C442   C444    1.453   .     S
C442   C454    1.407   .     A
C442   C450    1.402   .     A
C443   C533    1.337   .     S
C443   H595    1.088   .     S
C444   O478    1.301   .     A
C445   C446    1.402   .     S
C445   C751    1.337   1_545 S
C445   H728    1.088   1_545 S
C446   O479    1.291   .     A
C446   O524    1.280   .     S
C447   O481    1.300   .     A
C447   C449    1.445   .     S
C447   O526    1.293   .     S
C448   C460    1.394   .     A
C449   C460    1.400   .     A
C449   C459    1.384   .     A
C450   C55     1.387   1_556 S
C451   H471    1.083   .     S
C451   C453    1.391   .     A
C452   C454    1.405   .     A
C452   C57     1.420   1_556 S
C452   C59     1.411   1_556 S
C453   H470    1.079   .     S
C454   C458    1.415   .     A
C455   C459    1.387   .     A
C456   C457    1.392   .     A
C456   C52     1.404   1_556 S
C456   C59     1.421   1_556 S
C457   H466    1.084   .     S
C457   C458    1.387   .     A
C458   H462    1.082   .     S
C459   H468    1.080   .     S
C460   H505    1.083   .     S
H463   C707    1.088   1_545 S
H464   C577    1.088   .     S
H465   N473    1.029   .     S
H467   C52     1.084   1_556 S
H469   C494    1.083   .     S
I472   N474    2.075   .     S
N473   N474    1.288   .     D
N473   Zn484   2.027   .     S
N474   Zn483   2.027   .     S
O475   Zn483   1.954   .     S
O475   C485    1.280   .     S
O476   Zn484   1.977   .     S
O477   Zn483   1.955   .     S
O477   C488    1.294   .     S
O478   Zn484   1.912   .     S
O479   Zn483   1.977   .     S
O480   Zn484   1.954   .     S
O481   Zn483   1.912   .     S
O482   Zn484   1.955   .     S
C485   O520    1.291   .     A
C485   C487    1.402   .     S
C486   C488    1.453   .     S
C486   C498    1.407   .     A
C486   C494    1.402   .     A
C487   C577    1.337   .     S
C487   H639    1.088   .     S
C488   O522    1.301   .     A
C489   C490    1.402   .     S
C489   C663    1.337   1_645 S
C489   H772    1.088   1_545 S
C490   O523    1.291   .     A
C490   O436    1.280   1_655 S
C491   O525    1.300   .     A
C491   C493    1.445   .     S
C491   O438    1.293   1_655 S
C492   C504    1.394   .     A
C493   C504    1.400   .     A
C493   C503    1.384   .     A
C494   C99     1.387   1_556 S
C495   H515    1.083   .     S
C495   C497    1.391   .     A
C496   C498    1.405   .     A
C496   C101    1.420   1_556 S
C496   C103    1.411   1_556 S
C497   H514    1.079   .     S
C498   C502    1.415   .     A
C499   C503    1.387   .     A
C500   C501    1.392   .     A
C500   C96     1.404   1_556 S
C500   C103    1.421   1_556 S
C501   H510    1.084   .     S
C501   C502    1.387   .     A
C502   H506    1.082   .     S
C503   H512    1.080   .     S
C504   H417    1.083   1_655 S
H507   C751    1.088   1_545 S
H508   C621    1.088   .     S
H509   N517    1.029   .     S
H511   C96     1.084   1_556 S
H513   C406    1.083   1_655 S
I516   N518    2.075   .     S
N517   N518    1.288   .     D
N517   Zn528   2.027   .     S
N518   Zn527   2.027   .     S
O519   Zn527   1.954   .     S
O519   C397    1.280   1_655 S
O520   Zn528   1.977   .     S
O521   Zn527   1.955   .     S
O521   C400    1.294   1_655 S
O522   Zn528   1.912   .     S
O523   Zn527   1.977   .     S
O524   Zn528   1.954   .     S
O525   Zn527   1.912   .     S
O526   Zn528   1.955   .     S
C529   O564    1.291   .     A
C529   C531    1.402   .     S
C529   O651    1.280   1_455 S
C530   C532    1.453   .     S
C530   C542    1.407   .     A
C530   C538    1.402   .     A
C531   C753    1.337   1_455 S
C531   H683    1.088   .     S
C532   O566    1.301   .     A
C532   O653    1.294   1_455 S
C533   C534    1.402   .     S
C534   O567    1.291   .     A
C534   O612    1.280   .     S
C535   O569    1.300   .     A
C535   C537    1.445   .     S
C535   O614    1.293   .     S
C536   C548    1.394   .     A
C537   C548    1.400   .     A
C537   C547    1.384   .     A
C538   C143    1.387   1_556 S
C538   H645    1.083   1_455 S
C539   H559    1.083   .     S
C539   C541    1.391   .     A
C540   C542    1.405   .     A
C540   C145    1.420   1_556 S
C540   C147    1.411   1_556 S
C541   H558    1.079   .     S
C542   C546    1.415   .     A
C543   C547    1.387   .     A
C544   C545    1.392   .     A
C544   C140    1.404   1_556 S
C544   C147    1.421   1_556 S
C545   H554    1.084   .     S
C545   C546    1.387   .     A
C546   H550    1.082   .     S
C547   H556    1.080   .     S
C548   H593    1.083   .     S
H549   C636    1.083   1_455 S
H552   C665    1.088   .     S
H553   N561    1.029   .     S
H555   C140    1.084   1_556 S
H557   C582    1.083   .     S
I560   N562    2.075   .     S
N561   N562    1.288   .     D
N561   Zn572   2.027   .     S
N562   Zn571   2.027   .     S
O563   Zn571   1.954   .     S
O563   C573    1.280   .     S
O564   Zn572   1.977   .     S
O565   Zn571   1.955   .     S
O565   C576    1.294   .     S
O566   Zn572   1.912   .     S
O567   Zn571   1.977   .     S
O568   Zn572   1.954   .     S
O568   C622    1.280   1_455 S
O569   Zn571   1.912   .     S
O570   Zn572   1.955   .     S
O570   C623    1.293   1_455 S
C573   O608    1.291   .     A
C573   C575    1.402   .     S
C574   C576    1.453   .     S
C574   C586    1.407   .     A
C574   C582    1.402   .     A
C575   C665    1.337   .     S
C575   H727    1.088   .     S
C576   O610    1.301   .     A
C577   C578    1.402   .     S
C578   O611    1.291   .     A
C578   O656    1.280   .     S
C579   O613    1.300   .     A
C579   C581    1.445   .     S
C579   O658    1.293   .     S
C580   C592    1.394   .     A
C581   C592    1.400   .     A
C581   C591    1.384   .     A
C582   C187    1.387   1_556 S
C583   H603    1.083   .     S
C583   C585    1.391   .     A
C584   C586    1.405   .     A
C584   C189    1.420   1_556 S
C584   C191    1.411   1_556 S
C585   H602    1.079   .     S
C586   C590    1.415   .     A
C587   C591    1.387   .     A
C588   C589    1.392   .     A
C588   C184    1.404   1_556 S
C588   C191    1.421   1_556 S
C589   H598    1.084   .     S
C589   C590    1.387   .     A
C590   H594    1.082   .     S
C591   H600    1.080   .     S
C592   H637    1.083   .     S
H596   C709    1.088   .     S
H597   N605    1.029   .     S
H599   C184    1.084   1_556 S
H601   C626    1.083   .     S
I604   N606    2.075   .     S
N605   N606    1.288   .     D
N605   Zn616   2.027   .     S
N606   Zn615   2.027   .     S
O607   Zn615   1.954   .     S
O607   C617    1.280   .     S
O608   Zn616   1.977   .     S
O609   Zn615   1.955   .     S
O609   C620    1.294   .     S
O610   Zn616   1.912   .     S
O611   Zn615   1.977   .     S
O612   Zn616   1.954   .     S
O613   Zn615   1.912   .     S
O614   Zn616   1.955   .     S
C617   O652    1.291   .     A
C617   C619    1.402   .     S
C618   C620    1.453   .     S
C618   C630    1.407   .     A
C618   C626    1.402   .     A
C619   C709    1.337   .     S
C619   H771    1.088   .     S
C620   O654    1.301   .     A
C621   C622    1.402   .     S
C621   C399    1.337   1_655 S
C622   O655    1.291   .     A
C622   O568    1.280   1_655 S
C623   O657    1.300   .     A
C623   C625    1.445   .     S
C623   O570    1.293   1_655 S
C624   C636    1.394   .     A
C625   C636    1.400   .     A
C625   C635    1.384   .     A
C626   C231    1.387   1_556 S
C627   H647    1.083   .     S
C627   C629    1.391   .     A
C628   C630    1.405   .     A
C628   C233    1.420   1_556 S
C628   C235    1.411   1_556 S
C629   H646    1.079   .     S
C630   C634    1.415   .     A
C631   C635    1.387   .     A
C632   C633    1.392   .     A
C632   C228    1.404   1_556 S
C632   C235    1.421   1_556 S
C633   H642    1.084   .     S
C633   C634    1.387   .     A
C634   H638    1.082   .     S
C635   H644    1.080   .     S
C636   H549    1.083   1_655 S
H640   C753    1.088   .     S
H641   N649    1.029   .     S
H643   C228    1.084   1_556 S
H645   C538    1.083   1_655 S
I648   N650    2.075   .     S
N649   N650    1.288   .     D
N649   Zn660   2.027   .     S
N650   Zn659   2.027   .     S
O651   Zn659   1.954   .     S
O651   C529    1.280   1_655 S
O652   Zn660   1.977   .     S
O653   Zn659   1.955   .     S
O653   C532    1.294   1_655 S
O654   Zn660   1.912   .     S
O655   Zn659   1.977   .     S
O656   Zn660   1.954   .     S
O657   Zn659   1.912   .     S
O658   Zn660   1.955   .     S
C661   O696    1.291   .     A
C661   C663    1.402   .     S
C661   O783    1.280   1_455 S
C662   C664    1.453   .     S
C662   C674    1.407   .     A
C662   C670    1.402   .     A
C663   C489    1.337   1_465 S
C663   H419    1.088   1_565 S
C664   O698    1.301   .     A
C664   O785    1.294   1_455 S
C665   C666    1.402   .     S
C666   O699    1.291   .     A
C666   O744    1.280   .     S
C667   O701    1.300   .     A
C667   C669    1.445   .     S
C667   O746    1.293   .     S
C668   C680    1.394   .     A
C669   C680    1.400   .     A
C669   C679    1.384   .     A
C670   C275    1.387   1_556 S
C670   H777    1.083   1_455 S
C671   H691    1.083   .     S
C671   C673    1.391   .     A
C672   C674    1.405   .     A
C672   C277    1.420   1_556 S
C672   C279    1.411   1_556 S
C673   H690    1.079   .     S
C674   C678    1.415   .     A
C675   C679    1.387   .     A
C676   C677    1.392   .     A
C676   C272    1.404   1_556 S
C676   C279    1.421   1_556 S
C677   H686    1.084   .     S
C677   C678    1.387   .     A
C678   H682    1.082   .     S
C679   H688    1.080   .     S
C680   H725    1.083   .     S
H681   C768    1.083   1_455 S
H684   C401    1.088   1_565 S
H685   N693    1.029   .     S
H687   C272    1.084   1_556 S
H689   C714    1.083   .     S
I692   N694    2.075   .     S
N693   N694    1.288   .     D
N693   Zn704   2.027   .     S
N694   Zn703   2.027   .     S
O695   Zn703   1.954   .     S
O695   C705    1.280   .     S
O696   Zn704   1.977   .     S
O697   Zn703   1.955   .     S
O697   C708    1.294   .     S
O698   Zn704   1.912   .     S
O699   Zn703   1.977   .     S
O700   Zn704   1.954   .     S
O700   C754    1.280   1_455 S
O701   Zn703   1.912   .     S
O702   Zn704   1.955   .     S
O702   C755    1.293   1_455 S
C705   O740    1.291   .     A
C705   C707    1.402   .     S
C706   C708    1.453   .     S
C706   C718    1.407   .     A
C706   C714    1.402   .     A
C707   C401    1.337   1_565 S
C707   H463    1.088   1_565 S
C708   O742    1.301   .     A
C709   C710    1.402   .     S
C710   O743    1.291   .     A
C710   O788    1.280   .     S
C711   O745    1.300   .     A
C711   C713    1.445   .     S
C711   O790    1.293   .     S
C712   C724    1.394   .     A
C713   C724    1.400   .     A
C713   C723    1.384   .     A
C714   C319    1.387   1_556 S
C715   H735    1.083   .     S
C715   C717    1.391   .     A
C716   C718    1.405   .     A
C716   C321    1.420   1_556 S
C716   C323    1.411   1_556 S
C717   H734    1.079   .     S
C718   C722    1.415   .     A
C719   C723    1.387   .     A
C720   C721    1.392   .     A
C720   C316    1.404   1_556 S
C720   C323    1.421   1_556 S
C721   H730    1.084   .     S
C721   C722    1.387   .     A
C722   H726    1.082   .     S
C723   H732    1.080   .     S
C724   H769    1.083   .     S
H728   C445    1.088   1_565 S
H729   N737    1.029   .     S
H731   C316    1.084   1_556 S
H733   C758    1.083   .     S
I736   N738    2.075   .     S
N737   N738    1.288   .     D
N737   Zn748   2.027   .     S
N738   Zn747   2.027   .     S
O739   Zn747   1.954   .     S
O739   C749    1.280   .     S
O740   Zn748   1.977   .     S
O741   Zn747   1.955   .     S
O741   C752    1.294   .     S
O742   Zn748   1.912   .     S
O743   Zn747   1.977   .     S
O744   Zn748   1.954   .     S
O745   Zn747   1.912   .     S
O746   Zn748   1.955   .     S
C749   O784    1.291   .     A
C749   C751    1.402   .     S
C750   C752    1.453   .     S
C750   C762    1.407   .     A
C750   C758    1.402   .     A
C751   C445    1.337   1_565 S
C751   H507    1.088   1_565 S
C752   O786    1.301   .     A
C753   C754    1.402   .     S
C753   C531    1.337   1_655 S
C754   O787    1.291   .     A
C754   O700    1.280   1_655 S
C755   O789    1.300   .     A
C755   C757    1.445   .     S
C755   O702    1.293   1_655 S
C756   C768    1.394   .     A
C757   C768    1.400   .     A
C757   C767    1.384   .     A
C758   C363    1.387   1_556 S
C759   H779    1.083   .     S
C759   C761    1.391   .     A
C760   C762    1.405   .     A
C760   C365    1.420   1_556 S
C760   C367    1.411   1_556 S
C761   H778    1.079   .     S
C762   C766    1.415   .     A
C763   C767    1.387   .     A
C764   C765    1.392   .     A
C764   C360    1.404   1_556 S
C764   C367    1.421   1_556 S
C765   H774    1.084   .     S
C765   C766    1.387   .     A
C766   H770    1.082   .     S
C767   H776    1.080   .     S
C768   H681    1.083   1_655 S
H772   C489    1.088   1_565 S
H773   N781    1.029   .     S
H775   C360    1.084   1_556 S
H777   C670    1.083   1_655 S
I780   N782    2.075   .     S
N781   N782    1.288   .     D
N781   Zn792   2.027   .     S
N782   Zn791   2.027   .     S
O783   Zn791   1.954   .     S
O783   C661    1.280   1_655 S
O784   Zn792   1.977   .     S
O785   Zn791   1.955   .     S
O785   C664    1.294   1_655 S
O786   Zn792   1.912   .     S
O787   Zn791   1.977   .     S
O788   Zn792   1.954   .     S
O789   Zn791   1.912   .     S
O790   Zn792   1.955   .     S
