data_str_m1_o5_o17_pcu_sym.79
_audit_creation_date              2020-01-03
_audit_creation_method            'Materials Studio'
_symmetry_space_group_name_H-M    'P1'
_symmetry_Int_Tables_number       1
_symmetry_cell_setting            triclinic
loop_
_symmetry_equiv_pos_as_xyz
  x,y,z
_cell_length_a                    31.7770
_cell_length_b                    31.7770
_cell_length_c                    34.4515
_cell_angle_alpha                 90.0000
_cell_angle_beta                  90.0000
_cell_angle_gamma                 90.0000
loop_
_atom_site_label
_atom_site_type_symbol
_atom_site_fract_x
_atom_site_fract_y
_atom_site_fract_z
_atom_site_U_iso_or_equiv
_atom_site_adp_type
_atom_site_occupancy
C1     C     0.25000   0.00000   0.35590   0.00000  Uiso   1.00
C2     C     0.33002   0.41998   0.75000   0.00000  Uiso   1.00
C3     C     0.42268   0.24945   0.02052   0.00000  Uiso   1.00
C4     C     0.24943   0.07732   0.97948   0.00000  Uiso   1.00
C5     C     0.24945   0.42268   0.02052   0.00000  Uiso   1.00
C6     C     0.42268   0.25057   0.97948   0.00000  Uiso   1.00
C7     C     0.07732   0.25055   0.02052   0.00000  Uiso   1.00
C8     C     0.00669   0.13267   0.45823   0.00000  Uiso   1.00
C9     C     0.00670   0.36733   0.54177   0.00000  Uiso   1.00
C10    C     0.36733   0.49331   0.45823   0.00000  Uiso   1.00
C11    C     0.13267   0.49330   0.54177   0.00000  Uiso   1.00
C12    C     0.49331   0.36733   0.45823   0.00000  Uiso   1.00
C13    C     0.41998   0.16998   0.25000   0.00000  Uiso   1.00
C14    C     0.49330   0.13267   0.54177   0.00000  Uiso   1.00
C15    C     0.13267   0.00669   0.45823   0.00000  Uiso   1.00
C16    C     0.36733   0.00670   0.54177   0.00000  Uiso   1.00
C17    C     0.24333   0.38267   0.95823   0.00000  Uiso   1.00
C18    C     0.24329   0.11733   0.04177   0.00000  Uiso   1.00
C19    C     0.11733   0.25668   0.95823   0.00000  Uiso   1.00
C20    C     0.38267   0.25671   0.04177   0.00000  Uiso   1.00
C21    C     0.25667   0.11733   0.95823   0.00000  Uiso   1.00
C22    C     0.25671   0.38268   0.04177   0.00000  Uiso   1.00
C23    C     0.38267   0.24332   0.95823   0.00000  Uiso   1.00
C24    C     0.08002   0.33002   0.75000   0.00000  Uiso   1.00
C25    C     0.11732   0.24329   0.04177   0.00000  Uiso   1.00
C26    C     0.33002   0.41998   0.25000   0.00000  Uiso   1.00
C27    C     0.16998   0.08002   0.75000   0.00000  Uiso   1.00
C28    C     0.08002   0.33002   0.25000   0.00000  Uiso   1.00
C29    C     0.41998   0.16998   0.75000   0.00000  Uiso   1.00
C30    C     0.16998   0.41998   0.75000   0.00000  Uiso   1.00
C31    C     0.33002   0.08002   0.25000   0.00000  Uiso   1.00
C32    C     0.41998   0.33002   0.75000   0.00000  Uiso   1.00
C33    C     0.25000   0.00000   0.64410   0.00000  Uiso   1.00
C34    C     0.08002   0.16998   0.25000   0.00000  Uiso   1.00
C35    C     0.33002   0.08002   0.75000   0.00000  Uiso   1.00
C36    C     0.16998   0.41998   0.25000   0.00000  Uiso   1.00
C37    C     0.08002   0.16998   0.75000   0.00000  Uiso   1.00
C38    C     0.41998   0.33002   0.25000   0.00000  Uiso   1.00
C39    C     0.13833   0.38833   0.25000   0.00000  Uiso   1.00
C40    C     0.36167   0.11167   0.75000   0.00000  Uiso   1.00
C41    C     0.11167   0.13833   0.25000   0.00000  Uiso   1.00
C42    C     0.38833   0.36167   0.75000   0.00000  Uiso   1.00
C43    C     0.36167   0.11167   0.25000   0.00000  Uiso   1.00
C44    C     0.00000   0.25000   0.35590   0.00000  Uiso   1.00
C45    C     0.13833   0.38833   0.75000   0.00000  Uiso   1.00
C46    C     0.38833   0.36167   0.25000   0.00000  Uiso   1.00
C47    C     0.11167   0.13833   0.75000   0.00000  Uiso   1.00
C48    C     0.13833   0.11167   0.75000   0.00000  Uiso   1.00
C49    C     0.36167   0.38833   0.25000   0.00000  Uiso   1.00
C50    C     0.11167   0.36167   0.75000   0.00000  Uiso   1.00
C51    C     0.38833   0.13833   0.25000   0.00000  Uiso   1.00
C52    C     0.36167   0.38833   0.75000   0.00000  Uiso   1.00
C53    C     0.13833   0.11167   0.25000   0.00000  Uiso   1.00
C54    C     0.38833   0.13833   0.75000   0.00000  Uiso   1.00
C55    C     0.00000   0.25000   0.64410   0.00000  Uiso   1.00
C56    C     0.11167   0.36167   0.25000   0.00000  Uiso   1.00
C57    C     0.01031   0.28694   0.41828   0.00000  Uiso   1.00
C58    C     0.01031   0.21306   0.58172   0.00000  Uiso   1.00
C59    C     0.21306   0.48969   0.41828   0.00000  Uiso   1.00
C60    C     0.28694   0.48969   0.58172   0.00000  Uiso   1.00
C61    C     0.48969   0.21306   0.41828   0.00000  Uiso   1.00
C62    C     0.48969   0.28694   0.58172   0.00000  Uiso   1.00
C63    C     0.28694   0.01031   0.41828   0.00000  Uiso   1.00
C64    C     0.21306   0.01031   0.58172   0.00000  Uiso   1.00
C65    C     0.23968   0.03693   0.91828   0.00000  Uiso   1.00
C66    C    -0.00000   0.25000   0.85590   0.00000  Uiso   1.00
C67    C     0.23969   0.46306   0.08172   0.00000  Uiso   1.00
C68    C     0.46307   0.26032   0.91828   0.00000  Uiso   1.00
C69    C     0.03694   0.26031   0.08172   0.00000  Uiso   1.00
C70    C     0.26032   0.46307   0.91828   0.00000  Uiso   1.00
C71    C     0.26031   0.03694   0.08172   0.00000  Uiso   1.00
C72    C     0.03693   0.23968   0.91828   0.00000  Uiso   1.00
C73    C     0.46306   0.23969   0.08172   0.00000  Uiso   1.00
C74    C     0.00000   0.25000   0.39822   0.00000  Uiso   1.00
C75    C     0.00000   0.25000   0.60178   0.00000  Uiso   1.00
C76    C     0.25000   0.00000   0.39822   0.00000  Uiso   1.00
C77    C    -0.00000   0.25000   0.14410   0.00000  Uiso   1.00
C78    C     0.25000   0.00000   0.60178   0.00000  Uiso   1.00
C79    C     0.25000   0.00000   0.89822   0.00000  Uiso   1.00
C80    C     0.25000   0.00000   0.10178   0.00000  Uiso   1.00
C81    C     0.00000   0.25000   0.89822   0.00000  Uiso   1.00
C82    C    -0.00000   0.25000   0.10178   0.00000  Uiso   1.00
C83    C     0.49686   0.21131   0.45891   0.00000  Uiso   1.00
C84    C     0.49686   0.28869   0.54109   0.00000  Uiso   1.00
C85    C     0.28869   0.00314   0.45891   0.00000  Uiso   1.00
C86    C     0.21131   0.00314   0.54109   0.00000  Uiso   1.00
C87    C     0.00314   0.28869   0.45891   0.00000  Uiso   1.00
C88    C     0.25000   0.00000   0.85590   0.00000  Uiso   1.00
C89    C     0.00314   0.21131   0.54109   0.00000  Uiso   1.00
C90    C     0.21131   0.49686   0.45891   0.00000  Uiso   1.00
C91    C     0.28869   0.49686   0.54109   0.00000  Uiso   1.00
C92    C     0.25315   0.46131   0.95891   0.00000  Uiso   1.00
C93    C     0.25313   0.03869   0.04109   0.00000  Uiso   1.00
C94    C     0.03869   0.24685   0.95891   0.00000  Uiso   1.00
C95    C     0.46131   0.24686   0.04109   0.00000  Uiso   1.00
C96    C     0.24685   0.03869   0.95891   0.00000  Uiso   1.00
C97    C     0.24687   0.46131   0.04109   0.00000  Uiso   1.00
C98    C     0.46131   0.25315   0.95891   0.00000  Uiso   1.00
C99    C     0.25000   0.00000   0.14410   0.00000  Uiso   1.00
C100   C     0.03869   0.25313   0.04109   0.00000  Uiso   1.00
C101   C     0.00000   0.25000   0.47950   0.00000  Uiso   1.00
C102   C     0.00000   0.25000   0.52050   0.00000  Uiso   1.00
C103   C     0.25000   0.00000   0.47950   0.00000  Uiso   1.00
C104   C     0.25000   0.00000   0.52050   0.00000  Uiso   1.00
C105   C     0.25000   0.00000   0.97950   0.00000  Uiso   1.00
C106   C     0.25000   0.00000   0.02050   0.00000  Uiso   1.00
C107   C     0.00000   0.25000   0.97950   0.00000  Uiso   1.00
C108   C    -0.00000   0.25000   0.02050   0.00000  Uiso   1.00
C109   C     0.49944   0.17268   0.47948   0.00000  Uiso   1.00
C110   C     0.16998   0.08002   0.25000   0.00000  Uiso   1.00
C111   C     0.49944   0.32732   0.52052   0.00000  Uiso   1.00
C112   C     0.32732   0.00056   0.47948   0.00000  Uiso   1.00
C113   C     0.17268   0.00056   0.52051   0.00000  Uiso   1.00
C114   C     0.00056   0.32732   0.47949   0.00000  Uiso   1.00
C115   C     0.00056   0.17268   0.52051   0.00000  Uiso   1.00
C116   C     0.17268   0.49944   0.47949   0.00000  Uiso   1.00
C117   C     0.32732   0.49944   0.52052   0.00000  Uiso   1.00
C118   C     0.25057   0.42268   0.97949   0.00000  Uiso   1.00
C119   C     0.25055   0.07732   0.02052   0.00000  Uiso   1.00
C120   C     0.07732   0.24943   0.97948   0.00000  Uiso   1.00
H121   H     0.03096   0.13130   0.43609   0.00000  Uiso   1.00
H122   H     0.21902   0.11870   0.06391   0.00000  Uiso   1.00
H123   H     0.11871   0.28094   0.93609   0.00000  Uiso   1.00
H124   H     0.38130   0.28097   0.06391   0.00000  Uiso   1.00
H125   H     0.28094   0.11871   0.93609   0.00000  Uiso   1.00
H126   H     0.28098   0.38130   0.06391   0.00000  Uiso   1.00
H127   H     0.38129   0.21906   0.93609   0.00000  Uiso   1.00
H128   H     0.11870   0.21902   0.06391   0.00000  Uiso   1.00
H129   H     0.03096   0.36870   0.56391   0.00000  Uiso   1.00
H130   H     0.36871   0.46904   0.43610   0.00000  Uiso   1.00
H131   H     0.13130   0.46904   0.56391   0.00000  Uiso   1.00
H132   H     0.46904   0.36871   0.43610   0.00000  Uiso   1.00
H133   H     0.46904   0.13130   0.56390   0.00000  Uiso   1.00
H134   H     0.13129   0.03095   0.43609   0.00000  Uiso   1.00
H135   H     0.36870   0.03096   0.56390   0.00000  Uiso   1.00
H136   H     0.21906   0.38129   0.93609   0.00000  Uiso   1.00
I137   I     0.04300   0.33549   0.38625   0.00000  Uiso   1.00
I138   I     0.20702   0.41450   0.11375   0.00000  Uiso   1.00
I139   I     0.41451   0.29301   0.88625   0.00000  Uiso   1.00
I140   I     0.08550   0.29298   0.11375   0.00000  Uiso   1.00
I141   I     0.29301   0.41451   0.88625   0.00000  Uiso   1.00
I142   I     0.29298   0.08550   0.11375   0.00000  Uiso   1.00
I143   I     0.08549   0.20699   0.88625   0.00000  Uiso   1.00
I144   I     0.41450   0.20702   0.11375   0.00000  Uiso   1.00
I145   I     0.04299   0.16451   0.61375   0.00000  Uiso   1.00
I146   I     0.16451   0.45700   0.38625   0.00000  Uiso   1.00
I147   I     0.33550   0.45701   0.61375   0.00000  Uiso   1.00
I148   I     0.45700   0.16451   0.38625   0.00000  Uiso   1.00
I149   I     0.45701   0.33550   0.61375   0.00000  Uiso   1.00
I150   I     0.33549   0.04300   0.38625   0.00000  Uiso   1.00
I151   I     0.16450   0.04299   0.61375   0.00000  Uiso   1.00
I152   I     0.20699   0.08549   0.88625   0.00000  Uiso   1.00
O153   O     0.25000   0.00000   0.25000   0.00000  Uiso   1.00
O154   O     0.25000   0.46539   0.66251   0.00000  Uiso   1.00
O155   O     0.46538   0.25000   0.33749   0.00000  Uiso   1.00
O156   O     0.03461   0.25000   0.66251   0.00000  Uiso   1.00
O157   O    -0.00000   0.21539   0.83749   0.00000  Uiso   1.00
O158   O     0.00000   0.28461   0.16251   0.00000  Uiso   1.00
O159   O     0.28461   0.00000   0.83749   0.00000  Uiso   1.00
O160   O     0.21538   0.00000   0.16251   0.00000  Uiso   1.00
O161   O     0.00000   0.28461   0.83749   0.00000  Uiso   1.00
O162   O     0.00000   0.21538   0.16251   0.00000  Uiso   1.00
O163   O     0.21538   0.00000   0.83749   0.00000  Uiso   1.00
O164   O     0.25000   0.00000   0.75000   0.00000  Uiso   1.00
O165   O     0.28461   0.00000   0.16251   0.00000  Uiso   1.00
O166   O     0.20126   0.08332   0.27298   0.00000  Uiso   1.00
O167   O     0.29873   0.41668   0.72702   0.00000  Uiso   1.00
O168   O     0.41668   0.20127   0.27298   0.00000  Uiso   1.00
O169   O     0.08332   0.29874   0.72702   0.00000  Uiso   1.00
O170   O     0.29873   0.41668   0.27298   0.00000  Uiso   1.00
O171   O     0.20126   0.08332   0.72702   0.00000  Uiso   1.00
O172   O     0.08332   0.29874   0.27298   0.00000  Uiso   1.00
O173   O     0.41668   0.20127   0.72702   0.00000  Uiso   1.00
O174   O     0.20126   0.41668   0.72702   0.00000  Uiso   1.00
O175   O    -0.00000   0.25000   0.25000   0.00000  Uiso   1.00
O176   O     0.29873   0.08332   0.27298   0.00000  Uiso   1.00
O177   O     0.41668   0.29874   0.72702   0.00000  Uiso   1.00
O178   O     0.08332   0.20127   0.27298   0.00000  Uiso   1.00
O179   O     0.29873   0.08332   0.72702   0.00000  Uiso   1.00
O180   O     0.20126   0.41668   0.27298   0.00000  Uiso   1.00
O181   O     0.08332   0.20127   0.72702   0.00000  Uiso   1.00
O182   O     0.41668   0.29874   0.27298   0.00000  Uiso   1.00
O183   O     0.45126   0.33332   0.77298   0.00000  Uiso   1.00
O184   O     0.04873   0.16668   0.22702   0.00000  Uiso   1.00
O185   O     0.16668   0.45127   0.77298   0.00000  Uiso   1.00
O186   O     0.00000   0.25000   0.75000   0.00000  Uiso   1.00
O187   O     0.33332   0.04874   0.22702   0.00000  Uiso   1.00
O188   O     0.04873   0.16668   0.77298   0.00000  Uiso   1.00
O189   O     0.45126   0.33332   0.22702   0.00000  Uiso   1.00
O190   O     0.33332   0.04874   0.77298   0.00000  Uiso   1.00
O191   O     0.16668   0.45127   0.22702   0.00000  Uiso   1.00
O192   O     0.45126   0.16668   0.22702   0.00000  Uiso   1.00
O193   O     0.04873   0.33332   0.77298   0.00000  Uiso   1.00
O194   O     0.16668   0.04874   0.22702   0.00000  Uiso   1.00
O195   O     0.33332   0.45127   0.77298   0.00000  Uiso   1.00
O196   O     0.04873   0.33332   0.22702   0.00000  Uiso   1.00
O197   O     0.25000   0.46539   0.33749   0.00000  Uiso   1.00
O198   O     0.45126   0.16668   0.77298   0.00000  Uiso   1.00
O199   O     0.33332   0.45127   0.22702   0.00000  Uiso   1.00
O200   O     0.16668   0.04874   0.77298   0.00000  Uiso   1.00
O201   O     0.48447   0.10188   0.46375   0.00000  Uiso   1.00
O202   O     0.48448   0.39812   0.53625   0.00000  Uiso   1.00
O203   O     0.39812   0.01553   0.46375   0.00000  Uiso   1.00
O204   O     0.10188   0.01552   0.53625   0.00000  Uiso   1.00
O205   O     0.01553   0.39812   0.46375   0.00000  Uiso   1.00
O206   O     0.01553   0.10188   0.53625   0.00000  Uiso   1.00
O207   O     0.10188   0.48447   0.46375   0.00000  Uiso   1.00
O208   O     0.25000   0.03462   0.66251   0.00000  Uiso   1.00
O209   O     0.39812   0.48448   0.53625   0.00000  Uiso   1.00
O210   O     0.26555   0.35189   0.96375   0.00000  Uiso   1.00
O211   O     0.26551   0.14812   0.03625   0.00000  Uiso   1.00
O212   O     0.14811   0.23445   0.96375   0.00000  Uiso   1.00
O213   O     0.35188   0.23449   0.03625   0.00000  Uiso   1.00
O214   O     0.23445   0.14811   0.96375   0.00000  Uiso   1.00
O215   O     0.23450   0.35188   0.03625   0.00000  Uiso   1.00
O216   O     0.35188   0.26555   0.96375   0.00000  Uiso   1.00
O217   O     0.14812   0.26551   0.03625   0.00000  Uiso   1.00
O218   O     0.03461   0.25000   0.33749   0.00000  Uiso   1.00
O219   O     0.46538   0.25000   0.66251   0.00000  Uiso   1.00
O220   O     0.25000   0.03462   0.33749   0.00000  Uiso   1.00
Zn221  Zn    0.20052   0.00000   0.21730   0.00000  Uiso   1.00
Zn222  Zn    0.04947   0.25000   0.28270   0.00000  Uiso   1.00
Zn223  Zn    0.25000   0.45053   0.71730   0.00000  Uiso   1.00
Zn224  Zn    0.25000   0.04948   0.28270   0.00000  Uiso   1.00
Zn225  Zn    0.04947   0.25000   0.71730   0.00000  Uiso   1.00
Zn226  Zn    0.45052   0.25000   0.28270   0.00000  Uiso   1.00
Zn227  Zn    0.25000   0.04948   0.71730   0.00000  Uiso   1.00
Zn228  Zn    0.25000   0.45053   0.28270   0.00000  Uiso   1.00
Zn229  Zn    0.29947   0.00000   0.78270   0.00000  Uiso   1.00
Zn230  Zn    0.00000   0.20052   0.21730   0.00000  Uiso   1.00
Zn231  Zn    0.00000   0.29947   0.78270   0.00000  Uiso   1.00
Zn232  Zn    0.29947   0.00000   0.21730   0.00000  Uiso   1.00
Zn233  Zn    0.20052   0.00000   0.78270   0.00000  Uiso   1.00
Zn234  Zn    0.00000   0.29947   0.21730   0.00000  Uiso   1.00
Zn235  Zn    0.00000   0.20052   0.78270   0.00000  Uiso   1.00
Zn236  Zn    0.45052   0.25000   0.71730   0.00000  Uiso   1.00
C237   C     0.75000   0.00000   0.35590   0.00000  Uiso   1.00
C238   C     0.83002   0.41998   0.75000   0.00000  Uiso   1.00
C239   C     0.92268   0.24945   0.02052   0.00000  Uiso   1.00
C240   C     0.74943   0.07732   0.97948   0.00000  Uiso   1.00
C241   C     0.74945   0.42268   0.02052   0.00000  Uiso   1.00
C242   C     0.92268   0.25057   0.97948   0.00000  Uiso   1.00
C243   C     0.57732   0.25055   0.02052   0.00000  Uiso   1.00
C244   C     0.50669   0.13267   0.45823   0.00000  Uiso   1.00
C245   C     0.50670   0.36733   0.54177   0.00000  Uiso   1.00
C246   C     0.86733   0.49331   0.45823   0.00000  Uiso   1.00
C247   C     0.63267   0.49330   0.54177   0.00000  Uiso   1.00
C248   C     0.99331   0.36733   0.45823   0.00000  Uiso   1.00
C249   C     0.91998   0.16998   0.25000   0.00000  Uiso   1.00
C250   C     0.99330   0.13267   0.54177   0.00000  Uiso   1.00
C251   C     0.63267   0.00669   0.45823   0.00000  Uiso   1.00
C252   C     0.86733   0.00670   0.54177   0.00000  Uiso   1.00
C253   C     0.74333   0.38267   0.95823   0.00000  Uiso   1.00
C254   C     0.74329   0.11733   0.04177   0.00000  Uiso   1.00
C255   C     0.61733   0.25668   0.95823   0.00000  Uiso   1.00
C256   C     0.88267   0.25671   0.04177   0.00000  Uiso   1.00
C257   C     0.75667   0.11733   0.95823   0.00000  Uiso   1.00
C258   C     0.75671   0.38268   0.04177   0.00000  Uiso   1.00
C259   C     0.88267   0.24332   0.95823   0.00000  Uiso   1.00
C260   C     0.58002   0.33002   0.75000   0.00000  Uiso   1.00
C261   C     0.61732   0.24329   0.04177   0.00000  Uiso   1.00
C262   C     0.83002   0.41998   0.25000   0.00000  Uiso   1.00
C263   C     0.66998   0.08002   0.75000   0.00000  Uiso   1.00
C264   C     0.58002   0.33002   0.25000   0.00000  Uiso   1.00
C265   C     0.91998   0.16998   0.75000   0.00000  Uiso   1.00
C266   C     0.66998   0.41998   0.75000   0.00000  Uiso   1.00
C267   C     0.83002   0.08002   0.25000   0.00000  Uiso   1.00
C268   C     0.91998   0.33002   0.75000   0.00000  Uiso   1.00
C269   C     0.75000   0.00000   0.64410   0.00000  Uiso   1.00
C270   C     0.58002   0.16998   0.25000   0.00000  Uiso   1.00
C271   C     0.83002   0.08002   0.75000   0.00000  Uiso   1.00
C272   C     0.66998   0.41998   0.25000   0.00000  Uiso   1.00
C273   C     0.58002   0.16998   0.75000   0.00000  Uiso   1.00
C274   C     0.91998   0.33002   0.25000   0.00000  Uiso   1.00
C275   C     0.63833   0.38833   0.25000   0.00000  Uiso   1.00
C276   C     0.86167   0.11167   0.75000   0.00000  Uiso   1.00
C277   C     0.61167   0.13833   0.25000   0.00000  Uiso   1.00
C278   C     0.88833   0.36167   0.75000   0.00000  Uiso   1.00
C279   C     0.86167   0.11167   0.25000   0.00000  Uiso   1.00
C280   C     0.50000   0.25000   0.35590   0.00000  Uiso   1.00
C281   C     0.63833   0.38833   0.75000   0.00000  Uiso   1.00
C282   C     0.88833   0.36167   0.25000   0.00000  Uiso   1.00
C283   C     0.61167   0.13833   0.75000   0.00000  Uiso   1.00
C284   C     0.63833   0.11167   0.75000   0.00000  Uiso   1.00
C285   C     0.86167   0.38833   0.25000   0.00000  Uiso   1.00
C286   C     0.61167   0.36167   0.75000   0.00000  Uiso   1.00
C287   C     0.88833   0.13833   0.25000   0.00000  Uiso   1.00
C288   C     0.86167   0.38833   0.75000   0.00000  Uiso   1.00
C289   C     0.63833   0.11167   0.25000   0.00000  Uiso   1.00
C290   C     0.88833   0.13833   0.75000   0.00000  Uiso   1.00
C291   C     0.50000   0.25000   0.64410   0.00000  Uiso   1.00
C292   C     0.61167   0.36167   0.25000   0.00000  Uiso   1.00
C293   C     0.51031   0.28694   0.41828   0.00000  Uiso   1.00
C294   C     0.51031   0.21306   0.58172   0.00000  Uiso   1.00
C295   C     0.71306   0.48969   0.41828   0.00000  Uiso   1.00
C296   C     0.78694   0.48969   0.58172   0.00000  Uiso   1.00
C297   C     0.98969   0.21306   0.41828   0.00000  Uiso   1.00
C298   C     0.98969   0.28694   0.58172   0.00000  Uiso   1.00
C299   C     0.78694   0.01031   0.41828   0.00000  Uiso   1.00
C300   C     0.71306   0.01031   0.58172   0.00000  Uiso   1.00
C301   C     0.73968   0.03693   0.91828   0.00000  Uiso   1.00
C302   C     0.50000   0.25000   0.85590   0.00000  Uiso   1.00
C303   C     0.73969   0.46306   0.08172   0.00000  Uiso   1.00
C304   C     0.96307   0.26032   0.91828   0.00000  Uiso   1.00
C305   C     0.53694   0.26031   0.08172   0.00000  Uiso   1.00
C306   C     0.76032   0.46307   0.91828   0.00000  Uiso   1.00
C307   C     0.76031   0.03694   0.08172   0.00000  Uiso   1.00
C308   C     0.53693   0.23968   0.91828   0.00000  Uiso   1.00
C309   C     0.96306   0.23969   0.08172   0.00000  Uiso   1.00
C310   C     0.50000   0.25000   0.39822   0.00000  Uiso   1.00
C311   C     0.50000   0.25000   0.60178   0.00000  Uiso   1.00
C312   C     0.75000   0.00000   0.39822   0.00000  Uiso   1.00
C313   C     0.50000   0.25000   0.14410   0.00000  Uiso   1.00
C314   C     0.75000   0.00000   0.60178   0.00000  Uiso   1.00
C315   C     0.75000   0.00000   0.89822   0.00000  Uiso   1.00
C316   C     0.75000   0.00000   0.10178   0.00000  Uiso   1.00
C317   C     0.50000   0.25000   0.89822   0.00000  Uiso   1.00
C318   C     0.50000   0.25000   0.10178   0.00000  Uiso   1.00
C319   C     0.99686   0.21131   0.45891   0.00000  Uiso   1.00
C320   C     0.99686   0.28869   0.54109   0.00000  Uiso   1.00
C321   C     0.78869   0.00314   0.45891   0.00000  Uiso   1.00
C322   C     0.71131   0.00314   0.54109   0.00000  Uiso   1.00
C323   C     0.50314   0.28869   0.45891   0.00000  Uiso   1.00
C324   C     0.75000   0.00000   0.85590   0.00000  Uiso   1.00
C325   C     0.50314   0.21131   0.54109   0.00000  Uiso   1.00
C326   C     0.71131   0.49686   0.45891   0.00000  Uiso   1.00
C327   C     0.78869   0.49686   0.54109   0.00000  Uiso   1.00
C328   C     0.75315   0.46131   0.95891   0.00000  Uiso   1.00
C329   C     0.75313   0.03869   0.04109   0.00000  Uiso   1.00
C330   C     0.53869   0.24685   0.95891   0.00000  Uiso   1.00
C331   C     0.96131   0.24686   0.04109   0.00000  Uiso   1.00
C332   C     0.74685   0.03869   0.95891   0.00000  Uiso   1.00
C333   C     0.74687   0.46131   0.04109   0.00000  Uiso   1.00
C334   C     0.96131   0.25315   0.95891   0.00000  Uiso   1.00
C335   C     0.75000   0.00000   0.14410   0.00000  Uiso   1.00
C336   C     0.53869   0.25313   0.04109   0.00000  Uiso   1.00
C337   C     0.50000   0.25000   0.47950   0.00000  Uiso   1.00
C338   C     0.50000   0.25000   0.52050   0.00000  Uiso   1.00
C339   C     0.75000   0.00000   0.47950   0.00000  Uiso   1.00
C340   C     0.75000   0.00000   0.52050   0.00000  Uiso   1.00
C341   C     0.75000   0.00000   0.97950   0.00000  Uiso   1.00
C342   C     0.75000   0.00000   0.02050   0.00000  Uiso   1.00
C343   C     0.50000   0.25000   0.97950   0.00000  Uiso   1.00
C344   C     0.50000   0.25000   0.02050   0.00000  Uiso   1.00
C345   C     0.99944   0.17268   0.47948   0.00000  Uiso   1.00
C346   C     0.66998   0.08002   0.25000   0.00000  Uiso   1.00
C347   C     0.99944   0.32732   0.52052   0.00000  Uiso   1.00
C348   C     0.82732   0.00056   0.47948   0.00000  Uiso   1.00
C349   C     0.67268   0.00056   0.52051   0.00000  Uiso   1.00
C350   C     0.50056   0.32732   0.47949   0.00000  Uiso   1.00
C351   C     0.50056   0.17268   0.52051   0.00000  Uiso   1.00
C352   C     0.67268   0.49944   0.47949   0.00000  Uiso   1.00
C353   C     0.82732   0.49944   0.52052   0.00000  Uiso   1.00
C354   C     0.75057   0.42268   0.97949   0.00000  Uiso   1.00
C355   C     0.75055   0.07732   0.02052   0.00000  Uiso   1.00
C356   C     0.57732   0.24943   0.97948   0.00000  Uiso   1.00
H357   H     0.53096   0.13130   0.43609   0.00000  Uiso   1.00
H358   H     0.71902   0.11870   0.06391   0.00000  Uiso   1.00
H359   H     0.61871   0.28094   0.93609   0.00000  Uiso   1.00
H360   H     0.88130   0.28097   0.06391   0.00000  Uiso   1.00
H361   H     0.78094   0.11871   0.93609   0.00000  Uiso   1.00
H362   H     0.78098   0.38130   0.06391   0.00000  Uiso   1.00
H363   H     0.88129   0.21906   0.93609   0.00000  Uiso   1.00
H364   H     0.61870   0.21902   0.06391   0.00000  Uiso   1.00
H365   H     0.53096   0.36870   0.56391   0.00000  Uiso   1.00
H366   H     0.86871   0.46904   0.43610   0.00000  Uiso   1.00
H367   H     0.63130   0.46904   0.56391   0.00000  Uiso   1.00
H368   H     0.96904   0.36871   0.43610   0.00000  Uiso   1.00
H369   H     0.96904   0.13130   0.56390   0.00000  Uiso   1.00
H370   H     0.63129   0.03095   0.43609   0.00000  Uiso   1.00
H371   H     0.86870   0.03096   0.56390   0.00000  Uiso   1.00
H372   H     0.71906   0.38129   0.93609   0.00000  Uiso   1.00
I373   I     0.54300   0.33549   0.38625   0.00000  Uiso   1.00
I374   I     0.70702   0.41450   0.11375   0.00000  Uiso   1.00
I375   I     0.91451   0.29301   0.88625   0.00000  Uiso   1.00
I376   I     0.58550   0.29298   0.11375   0.00000  Uiso   1.00
I377   I     0.79301   0.41451   0.88625   0.00000  Uiso   1.00
I378   I     0.79298   0.08550   0.11375   0.00000  Uiso   1.00
I379   I     0.58549   0.20699   0.88625   0.00000  Uiso   1.00
I380   I     0.91450   0.20702   0.11375   0.00000  Uiso   1.00
I381   I     0.54299   0.16451   0.61375   0.00000  Uiso   1.00
I382   I     0.66451   0.45700   0.38625   0.00000  Uiso   1.00
I383   I     0.83550   0.45701   0.61375   0.00000  Uiso   1.00
I384   I     0.95700   0.16451   0.38625   0.00000  Uiso   1.00
I385   I     0.95701   0.33550   0.61375   0.00000  Uiso   1.00
I386   I     0.83549   0.04300   0.38625   0.00000  Uiso   1.00
I387   I     0.66450   0.04299   0.61375   0.00000  Uiso   1.00
I388   I     0.70699   0.08549   0.88625   0.00000  Uiso   1.00
O389   O     0.75000   0.00000   0.25000   0.00000  Uiso   1.00
O390   O     0.75000   0.46539   0.66251   0.00000  Uiso   1.00
O391   O     0.96538   0.25000   0.33749   0.00000  Uiso   1.00
O392   O     0.53461   0.25000   0.66251   0.00000  Uiso   1.00
O393   O     0.50000   0.21539   0.83749   0.00000  Uiso   1.00
O394   O     0.50000   0.28461   0.16251   0.00000  Uiso   1.00
O395   O     0.78461   0.00000   0.83749   0.00000  Uiso   1.00
O396   O     0.71538   0.00000   0.16251   0.00000  Uiso   1.00
O397   O     0.50000   0.28461   0.83749   0.00000  Uiso   1.00
O398   O     0.50000   0.21538   0.16251   0.00000  Uiso   1.00
O399   O     0.71538   0.00000   0.83749   0.00000  Uiso   1.00
O400   O     0.75000   0.00000   0.75000   0.00000  Uiso   1.00
O401   O     0.78461   0.00000   0.16251   0.00000  Uiso   1.00
O402   O     0.70126   0.08332   0.27298   0.00000  Uiso   1.00
O403   O     0.79873   0.41668   0.72702   0.00000  Uiso   1.00
O404   O     0.91668   0.20127   0.27298   0.00000  Uiso   1.00
O405   O     0.58332   0.29874   0.72702   0.00000  Uiso   1.00
O406   O     0.79873   0.41668   0.27298   0.00000  Uiso   1.00
O407   O     0.70126   0.08332   0.72702   0.00000  Uiso   1.00
O408   O     0.58332   0.29874   0.27298   0.00000  Uiso   1.00
O409   O     0.91668   0.20127   0.72702   0.00000  Uiso   1.00
O410   O     0.70126   0.41668   0.72702   0.00000  Uiso   1.00
O411   O     0.50000   0.25000   0.25000   0.00000  Uiso   1.00
O412   O     0.79873   0.08332   0.27298   0.00000  Uiso   1.00
O413   O     0.91668   0.29874   0.72702   0.00000  Uiso   1.00
O414   O     0.58332   0.20127   0.27298   0.00000  Uiso   1.00
O415   O     0.79873   0.08332   0.72702   0.00000  Uiso   1.00
O416   O     0.70126   0.41668   0.27298   0.00000  Uiso   1.00
O417   O     0.58332   0.20127   0.72702   0.00000  Uiso   1.00
O418   O     0.91668   0.29874   0.27298   0.00000  Uiso   1.00
O419   O     0.95126   0.33332   0.77298   0.00000  Uiso   1.00
O420   O     0.54873   0.16668   0.22702   0.00000  Uiso   1.00
O421   O     0.66668   0.45127   0.77298   0.00000  Uiso   1.00
O422   O     0.50000   0.25000   0.75000   0.00000  Uiso   1.00
O423   O     0.83332   0.04874   0.22702   0.00000  Uiso   1.00
O424   O     0.54873   0.16668   0.77298   0.00000  Uiso   1.00
O425   O     0.95126   0.33332   0.22702   0.00000  Uiso   1.00
O426   O     0.83332   0.04874   0.77298   0.00000  Uiso   1.00
O427   O     0.66668   0.45127   0.22702   0.00000  Uiso   1.00
O428   O     0.95126   0.16668   0.22702   0.00000  Uiso   1.00
O429   O     0.54873   0.33332   0.77298   0.00000  Uiso   1.00
O430   O     0.66668   0.04874   0.22702   0.00000  Uiso   1.00
O431   O     0.83332   0.45127   0.77298   0.00000  Uiso   1.00
O432   O     0.54873   0.33332   0.22702   0.00000  Uiso   1.00
O433   O     0.75000   0.46539   0.33749   0.00000  Uiso   1.00
O434   O     0.95126   0.16668   0.77298   0.00000  Uiso   1.00
O435   O     0.83332   0.45127   0.22702   0.00000  Uiso   1.00
O436   O     0.66668   0.04874   0.77298   0.00000  Uiso   1.00
O437   O     0.98447   0.10188   0.46375   0.00000  Uiso   1.00
O438   O     0.98448   0.39812   0.53625   0.00000  Uiso   1.00
O439   O     0.89812   0.01553   0.46375   0.00000  Uiso   1.00
O440   O     0.60188   0.01552   0.53625   0.00000  Uiso   1.00
O441   O     0.51553   0.39812   0.46375   0.00000  Uiso   1.00
O442   O     0.51553   0.10188   0.53625   0.00000  Uiso   1.00
O443   O     0.60188   0.48447   0.46375   0.00000  Uiso   1.00
O444   O     0.75000   0.03462   0.66251   0.00000  Uiso   1.00
O445   O     0.89812   0.48448   0.53625   0.00000  Uiso   1.00
O446   O     0.76555   0.35189   0.96375   0.00000  Uiso   1.00
O447   O     0.76551   0.14812   0.03625   0.00000  Uiso   1.00
O448   O     0.64811   0.23445   0.96375   0.00000  Uiso   1.00
O449   O     0.85188   0.23449   0.03625   0.00000  Uiso   1.00
O450   O     0.73445   0.14811   0.96375   0.00000  Uiso   1.00
O451   O     0.73450   0.35188   0.03625   0.00000  Uiso   1.00
O452   O     0.85188   0.26555   0.96375   0.00000  Uiso   1.00
O453   O     0.64812   0.26551   0.03625   0.00000  Uiso   1.00
O454   O     0.53461   0.25000   0.33749   0.00000  Uiso   1.00
O455   O     0.96538   0.25000   0.66251   0.00000  Uiso   1.00
O456   O     0.75000   0.03462   0.33749   0.00000  Uiso   1.00
Zn457  Zn    0.70052   0.00000   0.21730   0.00000  Uiso   1.00
Zn458  Zn    0.54947   0.25000   0.28270   0.00000  Uiso   1.00
Zn459  Zn    0.75000   0.45053   0.71730   0.00000  Uiso   1.00
Zn460  Zn    0.75000   0.04948   0.28270   0.00000  Uiso   1.00
Zn461  Zn    0.54947   0.25000   0.71730   0.00000  Uiso   1.00
Zn462  Zn    0.95052   0.25000   0.28270   0.00000  Uiso   1.00
Zn463  Zn    0.75000   0.04948   0.71730   0.00000  Uiso   1.00
Zn464  Zn    0.75000   0.45053   0.28270   0.00000  Uiso   1.00
Zn465  Zn    0.79947   0.00000   0.78270   0.00000  Uiso   1.00
Zn466  Zn    0.50000   0.20052   0.21730   0.00000  Uiso   1.00
Zn467  Zn    0.50000   0.29947   0.78270   0.00000  Uiso   1.00
Zn468  Zn    0.79947   0.00000   0.21730   0.00000  Uiso   1.00
Zn469  Zn    0.70052   0.00000   0.78270   0.00000  Uiso   1.00
Zn470  Zn    0.50000   0.29947   0.21730   0.00000  Uiso   1.00
Zn471  Zn    0.50000   0.20052   0.78270   0.00000  Uiso   1.00
Zn472  Zn    0.95052   0.25000   0.71730   0.00000  Uiso   1.00
C473   C     0.25000   0.50000   0.35590   0.00000  Uiso   1.00
C474   C     0.33002   0.91998   0.75000   0.00000  Uiso   1.00
C475   C     0.42268   0.74945   0.02052   0.00000  Uiso   1.00
C476   C     0.24943   0.57732   0.97948   0.00000  Uiso   1.00
C477   C     0.24945   0.92268   0.02052   0.00000  Uiso   1.00
C478   C     0.42268   0.75057   0.97948   0.00000  Uiso   1.00
C479   C     0.07732   0.75055   0.02052   0.00000  Uiso   1.00
C480   C     0.00669   0.63267   0.45823   0.00000  Uiso   1.00
C481   C     0.00670   0.86733   0.54177   0.00000  Uiso   1.00
C482   C     0.36733   0.99331   0.45823   0.00000  Uiso   1.00
C483   C     0.13267   0.99330   0.54177   0.00000  Uiso   1.00
C484   C     0.49331   0.86733   0.45823   0.00000  Uiso   1.00
C485   C     0.41998   0.66998   0.25000   0.00000  Uiso   1.00
C486   C     0.49330   0.63267   0.54177   0.00000  Uiso   1.00
C487   C     0.13267   0.50669   0.45823   0.00000  Uiso   1.00
C488   C     0.36733   0.50670   0.54177   0.00000  Uiso   1.00
C489   C     0.24333   0.88267   0.95823   0.00000  Uiso   1.00
C490   C     0.24329   0.61733   0.04177   0.00000  Uiso   1.00
C491   C     0.11733   0.75668   0.95823   0.00000  Uiso   1.00
C492   C     0.38267   0.75671   0.04177   0.00000  Uiso   1.00
C493   C     0.25667   0.61733   0.95823   0.00000  Uiso   1.00
C494   C     0.25671   0.88268   0.04177   0.00000  Uiso   1.00
C495   C     0.38267   0.74332   0.95823   0.00000  Uiso   1.00
C496   C     0.08002   0.83002   0.75000   0.00000  Uiso   1.00
C497   C     0.11732   0.74329   0.04177   0.00000  Uiso   1.00
C498   C     0.33002   0.91998   0.25000   0.00000  Uiso   1.00
C499   C     0.16998   0.58002   0.75000   0.00000  Uiso   1.00
C500   C     0.08002   0.83002   0.25000   0.00000  Uiso   1.00
C501   C     0.41998   0.66998   0.75000   0.00000  Uiso   1.00
C502   C     0.16998   0.91998   0.75000   0.00000  Uiso   1.00
C503   C     0.33002   0.58002   0.25000   0.00000  Uiso   1.00
C504   C     0.41998   0.83002   0.75000   0.00000  Uiso   1.00
C505   C     0.25000   0.50000   0.64410   0.00000  Uiso   1.00
C506   C     0.08002   0.66998   0.25000   0.00000  Uiso   1.00
C507   C     0.33002   0.58002   0.75000   0.00000  Uiso   1.00
C508   C     0.16998   0.91998   0.25000   0.00000  Uiso   1.00
C509   C     0.08002   0.66998   0.75000   0.00000  Uiso   1.00
C510   C     0.41998   0.83002   0.25000   0.00000  Uiso   1.00
C511   C     0.13833   0.88833   0.25000   0.00000  Uiso   1.00
C512   C     0.36167   0.61167   0.75000   0.00000  Uiso   1.00
C513   C     0.11167   0.63833   0.25000   0.00000  Uiso   1.00
C514   C     0.38833   0.86167   0.75000   0.00000  Uiso   1.00
C515   C     0.36167   0.61167   0.25000   0.00000  Uiso   1.00
C516   C     0.00000   0.75000   0.35590   0.00000  Uiso   1.00
C517   C     0.13833   0.88833   0.75000   0.00000  Uiso   1.00
C518   C     0.38833   0.86167   0.25000   0.00000  Uiso   1.00
C519   C     0.11167   0.63833   0.75000   0.00000  Uiso   1.00
C520   C     0.13833   0.61167   0.75000   0.00000  Uiso   1.00
C521   C     0.36167   0.88833   0.25000   0.00000  Uiso   1.00
C522   C     0.11167   0.86167   0.75000   0.00000  Uiso   1.00
C523   C     0.38833   0.63833   0.25000   0.00000  Uiso   1.00
C524   C     0.36167   0.88833   0.75000   0.00000  Uiso   1.00
C525   C     0.13833   0.61167   0.25000   0.00000  Uiso   1.00
C526   C     0.38833   0.63833   0.75000   0.00000  Uiso   1.00
C527   C     0.00000   0.75000   0.64410   0.00000  Uiso   1.00
C528   C     0.11167   0.86167   0.25000   0.00000  Uiso   1.00
C529   C     0.01031   0.78694   0.41828   0.00000  Uiso   1.00
C530   C     0.01031   0.71306   0.58172   0.00000  Uiso   1.00
C531   C     0.21306   0.98969   0.41828   0.00000  Uiso   1.00
C532   C     0.28694   0.98969   0.58172   0.00000  Uiso   1.00
C533   C     0.48969   0.71306   0.41828   0.00000  Uiso   1.00
C534   C     0.48969   0.78694   0.58172   0.00000  Uiso   1.00
C535   C     0.28694   0.51031   0.41828   0.00000  Uiso   1.00
C536   C     0.21306   0.51031   0.58172   0.00000  Uiso   1.00
C537   C     0.23968   0.53693   0.91828   0.00000  Uiso   1.00
C538   C    -0.00000   0.75000   0.85590   0.00000  Uiso   1.00
C539   C     0.23969   0.96306   0.08172   0.00000  Uiso   1.00
C540   C     0.46307   0.76032   0.91828   0.00000  Uiso   1.00
C541   C     0.03694   0.76031   0.08172   0.00000  Uiso   1.00
C542   C     0.26032   0.96307   0.91828   0.00000  Uiso   1.00
C543   C     0.26031   0.53694   0.08172   0.00000  Uiso   1.00
C544   C     0.03693   0.73968   0.91828   0.00000  Uiso   1.00
C545   C     0.46306   0.73969   0.08172   0.00000  Uiso   1.00
C546   C     0.00000   0.75000   0.39822   0.00000  Uiso   1.00
C547   C     0.00000   0.75000   0.60178   0.00000  Uiso   1.00
C548   C     0.25000   0.50000   0.39822   0.00000  Uiso   1.00
C549   C    -0.00000   0.75000   0.14410   0.00000  Uiso   1.00
C550   C     0.25000   0.50000   0.60178   0.00000  Uiso   1.00
C551   C     0.25000   0.50000   0.89822   0.00000  Uiso   1.00
C552   C     0.25000   0.50000   0.10178   0.00000  Uiso   1.00
C553   C     0.00000   0.75000   0.89822   0.00000  Uiso   1.00
C554   C    -0.00000   0.75000   0.10178   0.00000  Uiso   1.00
C555   C     0.49686   0.71131   0.45891   0.00000  Uiso   1.00
C556   C     0.49686   0.78869   0.54109   0.00000  Uiso   1.00
C557   C     0.28869   0.50314   0.45891   0.00000  Uiso   1.00
C558   C     0.21131   0.50314   0.54109   0.00000  Uiso   1.00
C559   C     0.00314   0.78869   0.45891   0.00000  Uiso   1.00
C560   C     0.25000   0.50000   0.85590   0.00000  Uiso   1.00
C561   C     0.00314   0.71131   0.54109   0.00000  Uiso   1.00
C562   C     0.21131   0.99686   0.45891   0.00000  Uiso   1.00
C563   C     0.28869   0.99686   0.54109   0.00000  Uiso   1.00
C564   C     0.25315   0.96131   0.95891   0.00000  Uiso   1.00
C565   C     0.25313   0.53869   0.04109   0.00000  Uiso   1.00
C566   C     0.03869   0.74685   0.95891   0.00000  Uiso   1.00
C567   C     0.46131   0.74686   0.04109   0.00000  Uiso   1.00
C568   C     0.24685   0.53869   0.95891   0.00000  Uiso   1.00
C569   C     0.24687   0.96131   0.04109   0.00000  Uiso   1.00
C570   C     0.46131   0.75315   0.95891   0.00000  Uiso   1.00
C571   C     0.25000   0.50000   0.14410   0.00000  Uiso   1.00
C572   C     0.03869   0.75313   0.04109   0.00000  Uiso   1.00
C573   C     0.00000   0.75000   0.47950   0.00000  Uiso   1.00
C574   C     0.00000   0.75000   0.52050   0.00000  Uiso   1.00
C575   C     0.25000   0.50000   0.47950   0.00000  Uiso   1.00
C576   C     0.25000   0.50000   0.52050   0.00000  Uiso   1.00
C577   C     0.25000   0.50000   0.97950   0.00000  Uiso   1.00
C578   C     0.25000   0.50000   0.02050   0.00000  Uiso   1.00
C579   C     0.00000   0.75000   0.97950   0.00000  Uiso   1.00
C580   C    -0.00000   0.75000   0.02050   0.00000  Uiso   1.00
C581   C     0.49944   0.67268   0.47948   0.00000  Uiso   1.00
C582   C     0.16998   0.58002   0.25000   0.00000  Uiso   1.00
C583   C     0.49944   0.82732   0.52052   0.00000  Uiso   1.00
C584   C     0.32732   0.50056   0.47948   0.00000  Uiso   1.00
C585   C     0.17268   0.50056   0.52051   0.00000  Uiso   1.00
C586   C     0.00056   0.82732   0.47949   0.00000  Uiso   1.00
C587   C     0.00056   0.67268   0.52051   0.00000  Uiso   1.00
C588   C     0.17268   0.99944   0.47949   0.00000  Uiso   1.00
C589   C     0.32732   0.99944   0.52052   0.00000  Uiso   1.00
C590   C     0.25057   0.92268   0.97949   0.00000  Uiso   1.00
C591   C     0.25055   0.57732   0.02052   0.00000  Uiso   1.00
C592   C     0.07732   0.74943   0.97948   0.00000  Uiso   1.00
H593   H     0.03096   0.63130   0.43609   0.00000  Uiso   1.00
H594   H     0.21902   0.61870   0.06391   0.00000  Uiso   1.00
H595   H     0.11871   0.78094   0.93609   0.00000  Uiso   1.00
H596   H     0.38130   0.78097   0.06391   0.00000  Uiso   1.00
H597   H     0.28094   0.61871   0.93609   0.00000  Uiso   1.00
H598   H     0.28098   0.88130   0.06391   0.00000  Uiso   1.00
H599   H     0.38129   0.71906   0.93609   0.00000  Uiso   1.00
H600   H     0.11870   0.71902   0.06391   0.00000  Uiso   1.00
H601   H     0.03096   0.86870   0.56391   0.00000  Uiso   1.00
H602   H     0.36871   0.96904   0.43610   0.00000  Uiso   1.00
H603   H     0.13130   0.96904   0.56391   0.00000  Uiso   1.00
H604   H     0.46904   0.86871   0.43610   0.00000  Uiso   1.00
H605   H     0.46904   0.63130   0.56390   0.00000  Uiso   1.00
H606   H     0.13129   0.53095   0.43609   0.00000  Uiso   1.00
H607   H     0.36870   0.53096   0.56390   0.00000  Uiso   1.00
H608   H     0.21906   0.88129   0.93609   0.00000  Uiso   1.00
I609   I     0.04300   0.83549   0.38625   0.00000  Uiso   1.00
I610   I     0.20702   0.91450   0.11375   0.00000  Uiso   1.00
I611   I     0.41451   0.79301   0.88625   0.00000  Uiso   1.00
I612   I     0.08550   0.79298   0.11375   0.00000  Uiso   1.00
I613   I     0.29301   0.91451   0.88625   0.00000  Uiso   1.00
I614   I     0.29298   0.58550   0.11375   0.00000  Uiso   1.00
I615   I     0.08549   0.70699   0.88625   0.00000  Uiso   1.00
I616   I     0.41450   0.70702   0.11375   0.00000  Uiso   1.00
I617   I     0.04299   0.66451   0.61375   0.00000  Uiso   1.00
I618   I     0.16451   0.95700   0.38625   0.00000  Uiso   1.00
I619   I     0.33550   0.95701   0.61375   0.00000  Uiso   1.00
I620   I     0.45700   0.66451   0.38625   0.00000  Uiso   1.00
I621   I     0.45701   0.83550   0.61375   0.00000  Uiso   1.00
I622   I     0.33549   0.54300   0.38625   0.00000  Uiso   1.00
I623   I     0.16450   0.54299   0.61375   0.00000  Uiso   1.00
I624   I     0.20699   0.58549   0.88625   0.00000  Uiso   1.00
O625   O     0.25000   0.50000   0.25000   0.00000  Uiso   1.00
O626   O     0.25000   0.96539   0.66251   0.00000  Uiso   1.00
O627   O     0.46538   0.75000   0.33749   0.00000  Uiso   1.00
O628   O     0.03461   0.75000   0.66251   0.00000  Uiso   1.00
O629   O    -0.00000   0.71539   0.83749   0.00000  Uiso   1.00
O630   O     0.00000   0.78461   0.16251   0.00000  Uiso   1.00
O631   O     0.28461   0.50000   0.83749   0.00000  Uiso   1.00
O632   O     0.21538   0.50000   0.16251   0.00000  Uiso   1.00
O633   O     0.00000   0.78461   0.83749   0.00000  Uiso   1.00
O634   O     0.00000   0.71538   0.16251   0.00000  Uiso   1.00
O635   O     0.21538   0.50000   0.83749   0.00000  Uiso   1.00
O636   O     0.25000   0.50000   0.75000   0.00000  Uiso   1.00
O637   O     0.28461   0.50000   0.16251   0.00000  Uiso   1.00
O638   O     0.20126   0.58332   0.27298   0.00000  Uiso   1.00
O639   O     0.29873   0.91668   0.72702   0.00000  Uiso   1.00
O640   O     0.41668   0.70127   0.27298   0.00000  Uiso   1.00
O641   O     0.08332   0.79874   0.72702   0.00000  Uiso   1.00
O642   O     0.29873   0.91668   0.27298   0.00000  Uiso   1.00
O643   O     0.20126   0.58332   0.72702   0.00000  Uiso   1.00
O644   O     0.08332   0.79874   0.27298   0.00000  Uiso   1.00
O645   O     0.41668   0.70127   0.72702   0.00000  Uiso   1.00
O646   O     0.20126   0.91668   0.72702   0.00000  Uiso   1.00
O647   O    -0.00000   0.75000   0.25000   0.00000  Uiso   1.00
O648   O     0.29873   0.58332   0.27298   0.00000  Uiso   1.00
O649   O     0.41668   0.79874   0.72702   0.00000  Uiso   1.00
O650   O     0.08332   0.70127   0.27298   0.00000  Uiso   1.00
O651   O     0.29873   0.58332   0.72702   0.00000  Uiso   1.00
O652   O     0.20126   0.91668   0.27298   0.00000  Uiso   1.00
O653   O     0.08332   0.70127   0.72702   0.00000  Uiso   1.00
O654   O     0.41668   0.79874   0.27298   0.00000  Uiso   1.00
O655   O     0.45126   0.83332   0.77298   0.00000  Uiso   1.00
O656   O     0.04873   0.66668   0.22702   0.00000  Uiso   1.00
O657   O     0.16668   0.95127   0.77298   0.00000  Uiso   1.00
O658   O     0.00000   0.75000   0.75000   0.00000  Uiso   1.00
O659   O     0.33332   0.54874   0.22702   0.00000  Uiso   1.00
O660   O     0.04873   0.66668   0.77298   0.00000  Uiso   1.00
O661   O     0.45126   0.83332   0.22702   0.00000  Uiso   1.00
O662   O     0.33332   0.54874   0.77298   0.00000  Uiso   1.00
O663   O     0.16668   0.95127   0.22702   0.00000  Uiso   1.00
O664   O     0.45126   0.66668   0.22702   0.00000  Uiso   1.00
O665   O     0.04873   0.83332   0.77298   0.00000  Uiso   1.00
O666   O     0.16668   0.54874   0.22702   0.00000  Uiso   1.00
O667   O     0.33332   0.95127   0.77298   0.00000  Uiso   1.00
O668   O     0.04873   0.83332   0.22702   0.00000  Uiso   1.00
O669   O     0.25000   0.96539   0.33749   0.00000  Uiso   1.00
O670   O     0.45126   0.66668   0.77298   0.00000  Uiso   1.00
O671   O     0.33332   0.95127   0.22702   0.00000  Uiso   1.00
O672   O     0.16668   0.54874   0.77298   0.00000  Uiso   1.00
O673   O     0.48447   0.60188   0.46375   0.00000  Uiso   1.00
O674   O     0.48448   0.89812   0.53625   0.00000  Uiso   1.00
O675   O     0.39812   0.51553   0.46375   0.00000  Uiso   1.00
O676   O     0.10188   0.51552   0.53625   0.00000  Uiso   1.00
O677   O     0.01553   0.89812   0.46375   0.00000  Uiso   1.00
O678   O     0.01553   0.60188   0.53625   0.00000  Uiso   1.00
O679   O     0.10188   0.98447   0.46375   0.00000  Uiso   1.00
O680   O     0.25000   0.53462   0.66251   0.00000  Uiso   1.00
O681   O     0.39812   0.98448   0.53625   0.00000  Uiso   1.00
O682   O     0.26555   0.85189   0.96375   0.00000  Uiso   1.00
O683   O     0.26551   0.64812   0.03625   0.00000  Uiso   1.00
O684   O     0.14811   0.73445   0.96375   0.00000  Uiso   1.00
O685   O     0.35188   0.73449   0.03625   0.00000  Uiso   1.00
O686   O     0.23445   0.64811   0.96375   0.00000  Uiso   1.00
O687   O     0.23450   0.85188   0.03625   0.00000  Uiso   1.00
O688   O     0.35188   0.76555   0.96375   0.00000  Uiso   1.00
O689   O     0.14812   0.76551   0.03625   0.00000  Uiso   1.00
O690   O     0.03461   0.75000   0.33749   0.00000  Uiso   1.00
O691   O     0.46538   0.75000   0.66251   0.00000  Uiso   1.00
O692   O     0.25000   0.53462   0.33749   0.00000  Uiso   1.00
Zn693  Zn    0.20052   0.50000   0.21730   0.00000  Uiso   1.00
Zn694  Zn    0.04947   0.75000   0.28270   0.00000  Uiso   1.00
Zn695  Zn    0.25000   0.95053   0.71730   0.00000  Uiso   1.00
Zn696  Zn    0.25000   0.54948   0.28270   0.00000  Uiso   1.00
Zn697  Zn    0.04947   0.75000   0.71730   0.00000  Uiso   1.00
Zn698  Zn    0.45052   0.75000   0.28270   0.00000  Uiso   1.00
Zn699  Zn    0.25000   0.54948   0.71730   0.00000  Uiso   1.00
Zn700  Zn    0.25000   0.95053   0.28270   0.00000  Uiso   1.00
Zn701  Zn    0.29947   0.50000   0.78270   0.00000  Uiso   1.00
Zn702  Zn    0.00000   0.70052   0.21730   0.00000  Uiso   1.00
Zn703  Zn    0.00000   0.79947   0.78270   0.00000  Uiso   1.00
Zn704  Zn    0.29947   0.50000   0.21730   0.00000  Uiso   1.00
Zn705  Zn    0.20052   0.50000   0.78270   0.00000  Uiso   1.00
Zn706  Zn    0.00000   0.79947   0.21730   0.00000  Uiso   1.00
Zn707  Zn    0.00000   0.70052   0.78270   0.00000  Uiso   1.00
Zn708  Zn    0.45052   0.75000   0.71730   0.00000  Uiso   1.00
C709   C     0.75000   0.50000   0.35590   0.00000  Uiso   1.00
C710   C     0.83002   0.91998   0.75000   0.00000  Uiso   1.00
C711   C     0.92268   0.74945   0.02052   0.00000  Uiso   1.00
C712   C     0.74943   0.57732   0.97948   0.00000  Uiso   1.00
C713   C     0.74945   0.92268   0.02052   0.00000  Uiso   1.00
C714   C     0.92268   0.75057   0.97948   0.00000  Uiso   1.00
C715   C     0.57732   0.75055   0.02052   0.00000  Uiso   1.00
C716   C     0.50669   0.63267   0.45823   0.00000  Uiso   1.00
C717   C     0.50670   0.86733   0.54177   0.00000  Uiso   1.00
C718   C     0.86733   0.99331   0.45823   0.00000  Uiso   1.00
C719   C     0.63267   0.99330   0.54177   0.00000  Uiso   1.00
C720   C     0.99331   0.86733   0.45823   0.00000  Uiso   1.00
C721   C     0.91998   0.66998   0.25000   0.00000  Uiso   1.00
C722   C     0.99330   0.63267   0.54177   0.00000  Uiso   1.00
C723   C     0.63267   0.50669   0.45823   0.00000  Uiso   1.00
C724   C     0.86733   0.50670   0.54177   0.00000  Uiso   1.00
C725   C     0.74333   0.88267   0.95823   0.00000  Uiso   1.00
C726   C     0.74329   0.61733   0.04177   0.00000  Uiso   1.00
C727   C     0.61733   0.75668   0.95823   0.00000  Uiso   1.00
C728   C     0.88267   0.75671   0.04177   0.00000  Uiso   1.00
C729   C     0.75667   0.61733   0.95823   0.00000  Uiso   1.00
C730   C     0.75671   0.88268   0.04177   0.00000  Uiso   1.00
C731   C     0.88267   0.74332   0.95823   0.00000  Uiso   1.00
C732   C     0.58002   0.83002   0.75000   0.00000  Uiso   1.00
C733   C     0.61732   0.74329   0.04177   0.00000  Uiso   1.00
C734   C     0.83002   0.91998   0.25000   0.00000  Uiso   1.00
C735   C     0.66998   0.58002   0.75000   0.00000  Uiso   1.00
C736   C     0.58002   0.83002   0.25000   0.00000  Uiso   1.00
C737   C     0.91998   0.66998   0.75000   0.00000  Uiso   1.00
C738   C     0.66998   0.91998   0.75000   0.00000  Uiso   1.00
C739   C     0.83002   0.58002   0.25000   0.00000  Uiso   1.00
C740   C     0.91998   0.83002   0.75000   0.00000  Uiso   1.00
C741   C     0.75000   0.50000   0.64410   0.00000  Uiso   1.00
C742   C     0.58002   0.66998   0.25000   0.00000  Uiso   1.00
C743   C     0.83002   0.58002   0.75000   0.00000  Uiso   1.00
C744   C     0.66998   0.91998   0.25000   0.00000  Uiso   1.00
C745   C     0.58002   0.66998   0.75000   0.00000  Uiso   1.00
C746   C     0.91998   0.83002   0.25000   0.00000  Uiso   1.00
C747   C     0.63833   0.88833   0.25000   0.00000  Uiso   1.00
C748   C     0.86167   0.61167   0.75000   0.00000  Uiso   1.00
C749   C     0.61167   0.63833   0.25000   0.00000  Uiso   1.00
C750   C     0.88833   0.86167   0.75000   0.00000  Uiso   1.00
C751   C     0.86167   0.61167   0.25000   0.00000  Uiso   1.00
C752   C     0.50000   0.75000   0.35590   0.00000  Uiso   1.00
C753   C     0.63833   0.88833   0.75000   0.00000  Uiso   1.00
C754   C     0.88833   0.86167   0.25000   0.00000  Uiso   1.00
C755   C     0.61167   0.63833   0.75000   0.00000  Uiso   1.00
C756   C     0.63833   0.61167   0.75000   0.00000  Uiso   1.00
C757   C     0.86167   0.88833   0.25000   0.00000  Uiso   1.00
C758   C     0.61167   0.86167   0.75000   0.00000  Uiso   1.00
C759   C     0.88833   0.63833   0.25000   0.00000  Uiso   1.00
C760   C     0.86167   0.88833   0.75000   0.00000  Uiso   1.00
C761   C     0.63833   0.61167   0.25000   0.00000  Uiso   1.00
C762   C     0.88833   0.63833   0.75000   0.00000  Uiso   1.00
C763   C     0.50000   0.75000   0.64410   0.00000  Uiso   1.00
C764   C     0.61167   0.86167   0.25000   0.00000  Uiso   1.00
C765   C     0.51031   0.78694   0.41828   0.00000  Uiso   1.00
C766   C     0.51031   0.71306   0.58172   0.00000  Uiso   1.00
C767   C     0.71306   0.98969   0.41828   0.00000  Uiso   1.00
C768   C     0.78694   0.98969   0.58172   0.00000  Uiso   1.00
C769   C     0.98969   0.71306   0.41828   0.00000  Uiso   1.00
C770   C     0.98969   0.78694   0.58172   0.00000  Uiso   1.00
C771   C     0.78694   0.51031   0.41828   0.00000  Uiso   1.00
C772   C     0.71306   0.51031   0.58172   0.00000  Uiso   1.00
C773   C     0.73968   0.53693   0.91828   0.00000  Uiso   1.00
C774   C     0.50000   0.75000   0.85590   0.00000  Uiso   1.00
C775   C     0.73969   0.96306   0.08172   0.00000  Uiso   1.00
C776   C     0.96307   0.76032   0.91828   0.00000  Uiso   1.00
C777   C     0.53694   0.76031   0.08172   0.00000  Uiso   1.00
C778   C     0.76032   0.96307   0.91828   0.00000  Uiso   1.00
C779   C     0.76031   0.53694   0.08172   0.00000  Uiso   1.00
C780   C     0.53693   0.73968   0.91828   0.00000  Uiso   1.00
C781   C     0.96306   0.73969   0.08172   0.00000  Uiso   1.00
C782   C     0.50000   0.75000   0.39822   0.00000  Uiso   1.00
C783   C     0.50000   0.75000   0.60178   0.00000  Uiso   1.00
C784   C     0.75000   0.50000   0.39822   0.00000  Uiso   1.00
C785   C     0.50000   0.75000   0.14410   0.00000  Uiso   1.00
C786   C     0.75000   0.50000   0.60178   0.00000  Uiso   1.00
C787   C     0.75000   0.50000   0.89822   0.00000  Uiso   1.00
C788   C     0.75000   0.50000   0.10178   0.00000  Uiso   1.00
C789   C     0.50000   0.75000   0.89822   0.00000  Uiso   1.00
C790   C     0.50000   0.75000   0.10178   0.00000  Uiso   1.00
C791   C     0.99686   0.71131   0.45891   0.00000  Uiso   1.00
C792   C     0.99686   0.78869   0.54109   0.00000  Uiso   1.00
C793   C     0.78869   0.50314   0.45891   0.00000  Uiso   1.00
C794   C     0.71131   0.50314   0.54109   0.00000  Uiso   1.00
C795   C     0.50314   0.78869   0.45891   0.00000  Uiso   1.00
C796   C     0.75000   0.50000   0.85590   0.00000  Uiso   1.00
C797   C     0.50314   0.71131   0.54109   0.00000  Uiso   1.00
C798   C     0.71131   0.99686   0.45891   0.00000  Uiso   1.00
C799   C     0.78869   0.99686   0.54109   0.00000  Uiso   1.00
C800   C     0.75315   0.96131   0.95891   0.00000  Uiso   1.00
C801   C     0.75313   0.53869   0.04109   0.00000  Uiso   1.00
C802   C     0.53869   0.74685   0.95891   0.00000  Uiso   1.00
C803   C     0.96131   0.74686   0.04109   0.00000  Uiso   1.00
C804   C     0.74685   0.53869   0.95891   0.00000  Uiso   1.00
C805   C     0.74687   0.96131   0.04109   0.00000  Uiso   1.00
C806   C     0.96131   0.75315   0.95891   0.00000  Uiso   1.00
C807   C     0.75000   0.50000   0.14410   0.00000  Uiso   1.00
C808   C     0.53869   0.75313   0.04109   0.00000  Uiso   1.00
C809   C     0.50000   0.75000   0.47950   0.00000  Uiso   1.00
C810   C     0.50000   0.75000   0.52050   0.00000  Uiso   1.00
C811   C     0.75000   0.50000   0.47950   0.00000  Uiso   1.00
C812   C     0.75000   0.50000   0.52050   0.00000  Uiso   1.00
C813   C     0.75000   0.50000   0.97950   0.00000  Uiso   1.00
C814   C     0.75000   0.50000   0.02050   0.00000  Uiso   1.00
C815   C     0.50000   0.75000   0.97950   0.00000  Uiso   1.00
C816   C     0.50000   0.75000   0.02050   0.00000  Uiso   1.00
C817   C     0.99944   0.67268   0.47948   0.00000  Uiso   1.00
C818   C     0.66998   0.58002   0.25000   0.00000  Uiso   1.00
C819   C     0.99944   0.82732   0.52052   0.00000  Uiso   1.00
C820   C     0.82732   0.50056   0.47948   0.00000  Uiso   1.00
C821   C     0.67268   0.50056   0.52051   0.00000  Uiso   1.00
C822   C     0.50056   0.82732   0.47949   0.00000  Uiso   1.00
C823   C     0.50056   0.67268   0.52051   0.00000  Uiso   1.00
C824   C     0.67268   0.99944   0.47949   0.00000  Uiso   1.00
C825   C     0.82732   0.99944   0.52052   0.00000  Uiso   1.00
C826   C     0.75057   0.92268   0.97949   0.00000  Uiso   1.00
C827   C     0.75055   0.57732   0.02052   0.00000  Uiso   1.00
C828   C     0.57732   0.74943   0.97948   0.00000  Uiso   1.00
H829   H     0.53096   0.63130   0.43609   0.00000  Uiso   1.00
H830   H     0.71902   0.61870   0.06391   0.00000  Uiso   1.00
H831   H     0.61871   0.78094   0.93609   0.00000  Uiso   1.00
H832   H     0.88130   0.78097   0.06391   0.00000  Uiso   1.00
H833   H     0.78094   0.61871   0.93609   0.00000  Uiso   1.00
H834   H     0.78098   0.88130   0.06391   0.00000  Uiso   1.00
H835   H     0.88129   0.71906   0.93609   0.00000  Uiso   1.00
H836   H     0.61870   0.71902   0.06391   0.00000  Uiso   1.00
H837   H     0.53096   0.86870   0.56391   0.00000  Uiso   1.00
H838   H     0.86871   0.96904   0.43610   0.00000  Uiso   1.00
H839   H     0.63130   0.96904   0.56391   0.00000  Uiso   1.00
H840   H     0.96904   0.86871   0.43610   0.00000  Uiso   1.00
H841   H     0.96904   0.63130   0.56390   0.00000  Uiso   1.00
H842   H     0.63129   0.53095   0.43609   0.00000  Uiso   1.00
H843   H     0.86870   0.53096   0.56390   0.00000  Uiso   1.00
H844   H     0.71906   0.88129   0.93609   0.00000  Uiso   1.00
I845   I     0.54300   0.83549   0.38625   0.00000  Uiso   1.00
I846   I     0.70702   0.91450   0.11375   0.00000  Uiso   1.00
I847   I     0.91451   0.79301   0.88625   0.00000  Uiso   1.00
I848   I     0.58550   0.79298   0.11375   0.00000  Uiso   1.00
I849   I     0.79301   0.91451   0.88625   0.00000  Uiso   1.00
I850   I     0.79298   0.58550   0.11375   0.00000  Uiso   1.00
I851   I     0.58549   0.70699   0.88625   0.00000  Uiso   1.00
I852   I     0.91450   0.70702   0.11375   0.00000  Uiso   1.00
I853   I     0.54299   0.66451   0.61375   0.00000  Uiso   1.00
I854   I     0.66451   0.95700   0.38625   0.00000  Uiso   1.00
I855   I     0.83550   0.95701   0.61375   0.00000  Uiso   1.00
I856   I     0.95700   0.66451   0.38625   0.00000  Uiso   1.00
I857   I     0.95701   0.83550   0.61375   0.00000  Uiso   1.00
I858   I     0.83549   0.54300   0.38625   0.00000  Uiso   1.00
I859   I     0.66450   0.54299   0.61375   0.00000  Uiso   1.00
I860   I     0.70699   0.58549   0.88625   0.00000  Uiso   1.00
O861   O     0.75000   0.50000   0.25000   0.00000  Uiso   1.00
O862   O     0.75000   0.96539   0.66251   0.00000  Uiso   1.00
O863   O     0.96538   0.75000   0.33749   0.00000  Uiso   1.00
O864   O     0.53461   0.75000   0.66251   0.00000  Uiso   1.00
O865   O     0.50000   0.71539   0.83749   0.00000  Uiso   1.00
O866   O     0.50000   0.78461   0.16251   0.00000  Uiso   1.00
O867   O     0.78461   0.50000   0.83749   0.00000  Uiso   1.00
O868   O     0.71538   0.50000   0.16251   0.00000  Uiso   1.00
O869   O     0.50000   0.78461   0.83749   0.00000  Uiso   1.00
O870   O     0.50000   0.71538   0.16251   0.00000  Uiso   1.00
O871   O     0.71538   0.50000   0.83749   0.00000  Uiso   1.00
O872   O     0.75000   0.50000   0.75000   0.00000  Uiso   1.00
O873   O     0.78461   0.50000   0.16251   0.00000  Uiso   1.00
O874   O     0.70126   0.58332   0.27298   0.00000  Uiso   1.00
O875   O     0.79873   0.91668   0.72702   0.00000  Uiso   1.00
O876   O     0.91668   0.70127   0.27298   0.00000  Uiso   1.00
O877   O     0.58332   0.79874   0.72702   0.00000  Uiso   1.00
O878   O     0.79873   0.91668   0.27298   0.00000  Uiso   1.00
O879   O     0.70126   0.58332   0.72702   0.00000  Uiso   1.00
O880   O     0.58332   0.79874   0.27298   0.00000  Uiso   1.00
O881   O     0.91668   0.70127   0.72702   0.00000  Uiso   1.00
O882   O     0.70126   0.91668   0.72702   0.00000  Uiso   1.00
O883   O     0.50000   0.75000   0.25000   0.00000  Uiso   1.00
O884   O     0.79873   0.58332   0.27298   0.00000  Uiso   1.00
O885   O     0.91668   0.79874   0.72702   0.00000  Uiso   1.00
O886   O     0.58332   0.70127   0.27298   0.00000  Uiso   1.00
O887   O     0.79873   0.58332   0.72702   0.00000  Uiso   1.00
O888   O     0.70126   0.91668   0.27298   0.00000  Uiso   1.00
O889   O     0.58332   0.70127   0.72702   0.00000  Uiso   1.00
O890   O     0.91668   0.79874   0.27298   0.00000  Uiso   1.00
O891   O     0.95126   0.83332   0.77298   0.00000  Uiso   1.00
O892   O     0.54873   0.66668   0.22702   0.00000  Uiso   1.00
O893   O     0.66668   0.95127   0.77298   0.00000  Uiso   1.00
O894   O     0.50000   0.75000   0.75000   0.00000  Uiso   1.00
O895   O     0.83332   0.54874   0.22702   0.00000  Uiso   1.00
O896   O     0.54873   0.66668   0.77298   0.00000  Uiso   1.00
O897   O     0.95126   0.83332   0.22702   0.00000  Uiso   1.00
O898   O     0.83332   0.54874   0.77298   0.00000  Uiso   1.00
O899   O     0.66668   0.95127   0.22702   0.00000  Uiso   1.00
O900   O     0.95126   0.66668   0.22702   0.00000  Uiso   1.00
O901   O     0.54873   0.83332   0.77298   0.00000  Uiso   1.00
O902   O     0.66668   0.54874   0.22702   0.00000  Uiso   1.00
O903   O     0.83332   0.95127   0.77298   0.00000  Uiso   1.00
O904   O     0.54873   0.83332   0.22702   0.00000  Uiso   1.00
O905   O     0.75000   0.96539   0.33749   0.00000  Uiso   1.00
O906   O     0.95126   0.66668   0.77298   0.00000  Uiso   1.00
O907   O     0.83332   0.95127   0.22702   0.00000  Uiso   1.00
O908   O     0.66668   0.54874   0.77298   0.00000  Uiso   1.00
O909   O     0.98447   0.60188   0.46375   0.00000  Uiso   1.00
O910   O     0.98448   0.89812   0.53625   0.00000  Uiso   1.00
O911   O     0.89812   0.51553   0.46375   0.00000  Uiso   1.00
O912   O     0.60188   0.51552   0.53625   0.00000  Uiso   1.00
O913   O     0.51553   0.89812   0.46375   0.00000  Uiso   1.00
O914   O     0.51553   0.60188   0.53625   0.00000  Uiso   1.00
O915   O     0.60188   0.98447   0.46375   0.00000  Uiso   1.00
O916   O     0.75000   0.53462   0.66251   0.00000  Uiso   1.00
O917   O     0.89812   0.98448   0.53625   0.00000  Uiso   1.00
O918   O     0.76555   0.85189   0.96375   0.00000  Uiso   1.00
O919   O     0.76551   0.64812   0.03625   0.00000  Uiso   1.00
O920   O     0.64811   0.73445   0.96375   0.00000  Uiso   1.00
O921   O     0.85188   0.73449   0.03625   0.00000  Uiso   1.00
O922   O     0.73445   0.64811   0.96375   0.00000  Uiso   1.00
O923   O     0.73450   0.85188   0.03625   0.00000  Uiso   1.00
O924   O     0.85188   0.76555   0.96375   0.00000  Uiso   1.00
O925   O     0.64812   0.76551   0.03625   0.00000  Uiso   1.00
O926   O     0.53461   0.75000   0.33749   0.00000  Uiso   1.00
O927   O     0.96538   0.75000   0.66251   0.00000  Uiso   1.00
O928   O     0.75000   0.53462   0.33749   0.00000  Uiso   1.00
Zn929  Zn    0.70052   0.50000   0.21730   0.00000  Uiso   1.00
Zn930  Zn    0.54947   0.75000   0.28270   0.00000  Uiso   1.00
Zn931  Zn    0.75000   0.95053   0.71730   0.00000  Uiso   1.00
Zn932  Zn    0.75000   0.54948   0.28270   0.00000  Uiso   1.00
Zn933  Zn    0.54947   0.75000   0.71730   0.00000  Uiso   1.00
Zn934  Zn    0.95052   0.75000   0.28270   0.00000  Uiso   1.00
Zn935  Zn    0.75000   0.54948   0.71730   0.00000  Uiso   1.00
Zn936  Zn    0.75000   0.95053   0.28270   0.00000  Uiso   1.00
Zn937  Zn    0.79947   0.50000   0.78270   0.00000  Uiso   1.00
Zn938  Zn    0.50000   0.70052   0.21730   0.00000  Uiso   1.00
Zn939  Zn    0.50000   0.79947   0.78270   0.00000  Uiso   1.00
Zn940  Zn    0.79947   0.50000   0.21730   0.00000  Uiso   1.00
Zn941  Zn    0.70052   0.50000   0.78270   0.00000  Uiso   1.00
Zn942  Zn    0.50000   0.79947   0.21730   0.00000  Uiso   1.00
Zn943  Zn    0.50000   0.70052   0.78270   0.00000  Uiso   1.00
Zn944  Zn    0.95052   0.75000   0.71730   0.00000  Uiso   1.00
loop_
_geom_bond_atom_site_label_1
_geom_bond_atom_site_label_2
_geom_bond_distance
_geom_bond_site_symmetry_2
_ccdc_geom_bond_type
C1     O220    1.270   .     A
C1     C76     1.458   .     S
C1     O669    1.270   1_545 S
C2     O195    1.275   .     A
C2     C52     1.422   .     S
C2     O167    1.275   .     A
C3     C20     1.485   .     S
C3     C95     1.420   .     A
C3     C6      1.414   1_554 S
C4     C96     1.420   .     A
C4     C21     1.485   .     S
C4     C119    1.414   1_556 S
C5     C22     1.485   .     S
C5     C97     1.420   .     A
C5     C118    1.414   1_554 S
C6     C98     1.420   .     A
C6     C23     1.485   .     S
C6     C3      1.414   1_556 S
C7     C100    1.420   .     A
C7     C25     1.485   .     S
C7     C120    1.414   1_554 S
C8     H121    1.086   .     S
C8     C345    1.485   1_455 S
C8     O437    1.222   1_455 S
C9     H129    1.085   .     S
C9     C347    1.485   1_455 S
C9     O438    1.222   1_455 S
C10    H130    1.085   .     S
C10    C584    1.485   .     S
C10    O675    1.222   .     S
C11    H131    1.085   .     S
C11    C585    1.485   .     S
C11    O676    1.222   .     S
C12    H132    1.085   .     S
C12    C350    1.485   .     S
C12    O441    1.222   .     S
C13    O192    1.275   .     A
C13    C51     1.422   .     S
C13    O168    1.275   .     A
C14    H133    1.085   .     S
C14    C351    1.485   .     S
C14    O442    1.221   .     S
C15    H134    1.085   .     S
C15    C588    1.485   1_545 S
C15    O679    1.221   1_545 S
C16    H135    1.085   .     S
C16    C589    1.485   1_545 S
C16    O681    1.222   1_545 S
C17    O210    1.221   .     D
C17    H136    1.086   .     S
C17    C118    1.485   .     S
C18    H122    1.085   .     S
C18    C119    1.485   .     S
C18    O211    1.221   .     D
C19    H123    1.086   .     S
C19    O212    1.221   .     D
C19    C120    1.485   .     S
C20    H124    1.085   .     S
C20    O213    1.222   .     D
C21    H125    1.085   .     S
C21    O214    1.221   .     D
C22    H126    1.086   .     S
C22    O215    1.222   .     D
C23    O216    1.222   .     D
C23    H127    1.085   .     S
C24    C50     1.422   .     S
C24    O169    1.275   .     A
C24    O193    1.275   .     A
C25    O217    1.221   .     D
C25    H128    1.085   .     S
C26    C49     1.422   .     S
C26    O199    1.275   .     A
C26    O170    1.275   .     A
C27    O200    1.275   .     A
C27    C48     1.422   .     S
C27    O171    1.275   .     A
C28    C56     1.422   .     S
C28    O172    1.275   .     A
C28    O196    1.275   .     A
C29    C54     1.422   .     S
C29    O173    1.275   .     A
C29    O198    1.275   .     A
C30    O185    1.275   .     A
C30    C45     1.422   .     S
C30    O174    1.275   .     A
C31    C43     1.422   .     S
C31    O176    1.275   .     A
C31    O187    1.275   .     A
C32    O183    1.275   .     A
C32    O177    1.275   .     A
C32    C42     1.422   .     S
C33    O626    1.270   1_545 A
C33    C78     1.458   .     S
C33    O208    1.270   .     S
C34    O184    1.275   .     A
C34    C41     1.422   .     S
C34    O178    1.275   .     A
C35    O179    1.275   .     A
C35    C40     1.422   .     S
C35    O190    1.275   .     A
C36    O191    1.275   .     A
C36    O180    1.275   .     A
C36    C39     1.422   .     S
C37    O188    1.275   .     A
C37    O181    1.275   .     A
C37    C47     1.422   .     S
C38    O182    1.275   .     A
C38    O189    1.275   .     A
C38    C46     1.422   .     S
C39    C56     1.198   .     T
C40    C54     1.198   .     T
C41    C53     1.198   .     T
C42    C52     1.198   .     T
C43    C51     1.198   .     T
C44    O218    1.270   .     A
C44    C74     1.458   .     S
C44    O391    1.270   1_455 S
C45    C50     1.198   .     T
C46    C49     1.198   .     T
C47    C48     1.198   .     T
C53    C110    1.422   .     S
C55    O156    1.270   .     A
C55    C75     1.458   .     S
C55    O455    1.270   1_455 S
C57    C87     1.419   .     A
C57    C74     1.401   .     A
C57    I137    2.163   .     S
C58    I145    2.163   .     S
C58    C75     1.401   .     A
C58    C89     1.419   .     A
C59    C548    1.401   .     A
C59    I146    2.163   .     S
C59    C90     1.419   .     A
C60    I147    2.163   .     S
C60    C550    1.401   .     A
C60    C91     1.419   .     A
C61    I148    2.163   .     S
C61    C83     1.419   .     A
C61    C310    1.401   .     S
C62    I149    2.163   .     S
C62    C84     1.419   .     A
C62    C311    1.401   .     S
C63    C85     1.419   .     A
C63    I150    2.163   .     S
C63    C76     1.401   .     S
C64    C86     1.419   .     A
C64    I151    2.163   .     S
C64    C78     1.401   .     S
C65    C96     1.419   .     A
C65    I152    2.163   .     S
C65    C79     1.401   .     S
C66    O157    1.270   .     A
C66    C81     1.458   .     S
C66    O161    1.270   .     S
C67    I138    2.163   .     S
C67    C97     1.419   .     A
C67    C552    1.401   .     S
C68    C98     1.419   .     A
C68    I139    2.163   .     S
C68    C317    1.401   .     S
C69    I140    2.163   .     S
C69    C100    1.419   .     A
C69    C82     1.401   .     S
C70    I141    2.163   .     S
C70    C551    1.401   .     A
C70    C92     1.419   .     A
C71    C80     1.401   .     A
C71    I142    2.163   .     S
C71    C93     1.419   .     A
C72    I143    2.163   .     S
C72    C81     1.401   .     A
C72    C94     1.419   .     A
C73    C95     1.419   .     A
C73    C318    1.401   .     A
C73    I144    2.163   .     S
C74    C297    1.401   1_455 S
C75    C298    1.401   1_455 S
C76    C531    1.401   1_545 A
C77    C82     1.458   .     S
C77    O158    1.270   .     S
C77    O162    1.270   .     S
C78    C532    1.401   1_545 A
C79    C88     1.458   .     S
C79    C542    1.401   1_545 A
C80    C539    1.401   1_545 S
C80    C99     1.458   .     S
C81    C304    1.401   1_455 S
C82    C309    1.401   1_455 A
C83    C109    1.420   .     A
C83    C337    1.423   .     S
C84    C111    1.420   .     A
C84    C338    1.423   .     S
C85    C112    1.420   .     A
C85    C103    1.423   .     S
C86    C113    1.420   .     A
C86    C104    1.423   .     S
C87    C114    1.420   .     A
C87    C101    1.423   .     A
C88    O159    1.270   .     S
C88    O163    1.270   .     S
C89    C115    1.420   .     A
C89    C102    1.423   .     A
C90    C116    1.420   .     A
C90    C575    1.423   .     A
C91    C576    1.423   .     A
C91    C117    1.420   .     A
C92    C118    1.420   .     A
C92    C577    1.423   .     A
C93    C106    1.423   .     A
C93    C119    1.420   .     A
C94    C120    1.420   .     A
C94    C107    1.423   .     A
C95    C344    1.423   .     A
C96    C105    1.423   .     S
C97    C578    1.423   .     S
C98    C343    1.423   .     S
C99    O160    1.270   .     A
C99    O165    1.270   .     A
C100   C108    1.423   .     S
C101   C102    1.412   .     A
C101   C319    1.423   1_455 S
C102   C320    1.423   1_455 S
C103   C562    1.423   1_545 A
C103   C104    1.412   .     A
C104   C563    1.423   1_545 A
C105   C564    1.423   1_545 A
C105   C106    1.412   1_556 S
C106   C569    1.423   1_545 S
C106   C105    1.412   1_554 S
C107   C334    1.423   1_455 S
C107   C108    1.412   1_556 S
C108   C331    1.423   1_455 A
C108   C107    1.412   1_554 S
C109   C244    1.485   .     S
C109   C351    1.414   .     S
C110   O194    1.275   .     A
C110   O166    1.275   .     A
C111   C245    1.485   .     S
C111   C350    1.414   .     S
C112   C482    1.485   1_545 S
C112   C589    1.414   1_545 S
C113   C483    1.485   1_545 S
C113   C588    1.414   1_545 S
C114   C248    1.485   1_455 S
C114   C347    1.414   1_455 S
C115   C345    1.414   1_455 S
C115   C250    1.485   1_455 S
C116   C487    1.485   .     S
C116   C585    1.414   .     S
C117   C584    1.414   .     S
C117   C488    1.485   .     S
C118   C5      1.414   1_556 S
C119   C4      1.414   1_554 S
C120   C7      1.414   1_556 S
O153   Zn232   1.934   .     S
O153   Zn224   1.934   .     S
O153   Zn221   1.934   .     S
O153   Zn700   1.934   1_545 S
O154   Zn223   1.946   .     S
O154   C505    1.270   .     A
O155   Zn226   1.946   .     S
O155   C280    1.270   .     S
O156   Zn225   1.946   .     S
O157   Zn235   1.946   .     S
O158   Zn234   1.946   .     S
O159   Zn229   1.946   .     S
O160   Zn221   1.946   .     S
O161   Zn231   1.946   .     S
O162   Zn230   1.946   .     S
O163   Zn233   1.946   .     S
O164   Zn695   1.934   1_545 S
O164   Zn227   1.934   .     S
O164   Zn229   1.934   .     S
O164   Zn233   1.934   .     S
O165   Zn232   1.946   .     S
O166   Zn224   1.915   .     S
O167   Zn223   1.915   .     S
O168   Zn226   1.915   .     S
O169   Zn225   1.915   .     S
O170   Zn228   1.915   .     S
O171   Zn227   1.915   .     S
O172   Zn222   1.915   .     S
O173   Zn236   1.915   .     S
O174   Zn223   1.915   .     S
O175   Zn462   1.934   1_455 S
O175   Zn222   1.934   .     S
O175   Zn230   1.934   .     S
O175   Zn234   1.934   .     S
O176   Zn224   1.915   .     S
O177   Zn236   1.915   .     S
O178   Zn222   1.915   .     S
O179   Zn227   1.915   .     S
O180   Zn228   1.915   .     S
O181   Zn225   1.915   .     S
O182   Zn226   1.915   .     S
O183   Zn467   1.915   .     S
O184   Zn230   1.915   .     S
O185   Zn705   1.915   .     S
O186   Zn231   1.934   .     S
O186   Zn235   1.934   .     S
O186   Zn225   1.934   .     S
O186   Zn472   1.934   1_455 S
O187   Zn232   1.915   .     S
O188   Zn235   1.915   .     S
O189   Zn470   1.915   .     S
O190   Zn229   1.915   .     S
O191   Zn693   1.915   .     S
O192   Zn466   1.915   .     S
O193   Zn231   1.915   .     S
O194   Zn221   1.915   .     S
O195   Zn701   1.915   .     S
O196   Zn234   1.915   .     S
O197   Zn228   1.946   .     S
O197   C473    1.270   .     S
O198   Zn471   1.915   .     S
O199   Zn704   1.915   .     S
O200   Zn233   1.915   .     S
O201   C244    1.222   .     S
O202   C245    1.222   .     S
O203   C482    1.222   1_545 S
O204   C483    1.222   1_545 S
O205   C248    1.222   1_455 S
O206   C250    1.221   1_455 S
O207   C487    1.221   .     S
O208   Zn227   1.946   .     S
O209   C488    1.222   .     S
O218   Zn222   1.946   .     S
O219   Zn236   1.946   .     S
O219   C291    1.270   .     S
O220   Zn224   1.946   .     S
Zn221  O663    1.915   1_545 S
Zn223  O636    1.934   .     S
Zn226  O411    1.934   .     S
Zn228  O625    1.934   .     S
Zn229  O667    1.915   1_545 S
Zn230  O428    1.915   1_455 S
Zn231  O419    1.915   1_455 S
Zn232  O671    1.915   1_545 S
Zn233  O657    1.915   1_545 S
Zn234  O425    1.915   1_455 S
Zn235  O434    1.915   1_455 S
Zn236  O422    1.934   .     S
C237   O456    1.270   .     A
C237   C312    1.458   .     S
C237   O905    1.270   1_545 S
C238   O431    1.275   .     A
C238   C288    1.422   .     S
C238   O403    1.275   .     A
C239   C256    1.485   .     S
C239   C331    1.420   .     A
C239   C242    1.414   1_554 S
C240   C332    1.420   .     A
C240   C257    1.485   .     S
C240   C355    1.414   1_556 S
C241   C258    1.485   .     S
C241   C333    1.420   .     A
C241   C354    1.414   1_554 S
C242   C334    1.420   .     A
C242   C259    1.485   .     S
C242   C239    1.414   1_556 S
C243   C336    1.420   .     A
C243   C261    1.485   .     S
C243   C356    1.414   1_554 S
C244   H357    1.086   .     S
C245   H365    1.085   .     S
C246   H366    1.085   .     S
C246   C820    1.485   .     S
C246   O911    1.222   .     S
C247   H367    1.085   .     S
C247   C821    1.485   .     S
C247   O912    1.222   .     S
C248   H368    1.085   .     S
C248   C114    1.485   1_655 S
C248   O205    1.222   1_655 S
C249   O428    1.275   .     A
C249   C287    1.422   .     S
C249   O404    1.275   .     A
C250   H369    1.085   .     S
C250   C115    1.485   1_655 S
C250   O206    1.221   1_655 S
C251   H370    1.085   .     S
C251   C824    1.485   1_545 S
C251   O915    1.221   1_545 S
C252   H371    1.085   .     S
C252   C825    1.485   1_545 S
C252   O917    1.222   1_545 S
C253   O446    1.221   .     D
C253   H372    1.086   .     S
C253   C354    1.485   .     S
C254   H358    1.085   .     S
C254   C355    1.485   .     S
C254   O447    1.221   .     D
C255   H359    1.086   .     S
C255   O448    1.221   .     D
C255   C356    1.485   .     S
C256   H360    1.085   .     S
C256   O449    1.222   .     D
C257   H361    1.085   .     S
C257   O450    1.221   .     D
C258   H362    1.086   .     S
C258   O451    1.222   .     D
C259   O452    1.222   .     D
C259   H363    1.085   .     S
C260   C286    1.422   .     S
C260   O405    1.275   .     A
C260   O429    1.275   .     A
C261   O453    1.221   .     D
C261   H364    1.085   .     S
C262   C285    1.422   .     S
C262   O435    1.275   .     A
C262   O406    1.275   .     A
C263   O436    1.275   .     A
C263   C284    1.422   .     S
C263   O407    1.275   .     A
C264   C292    1.422   .     S
C264   O408    1.275   .     A
C264   O432    1.275   .     A
C265   C290    1.422   .     S
C265   O409    1.275   .     A
C265   O434    1.275   .     A
C266   O421    1.275   .     A
C266   C281    1.422   .     S
C266   O410    1.275   .     A
C267   C279    1.422   .     S
C267   O412    1.275   .     A
C267   O423    1.275   .     A
C268   O419    1.275   .     A
C268   O413    1.275   .     A
C268   C278    1.422   .     S
C269   O862    1.270   1_545 A
C269   C314    1.458   .     S
C269   O444    1.270   .     S
C270   O420    1.275   .     A
C270   C277    1.422   .     S
C270   O414    1.275   .     A
C271   O415    1.275   .     A
C271   C276    1.422   .     S
C271   O426    1.275   .     A
C272   O427    1.275   .     A
C272   O416    1.275   .     A
C272   C275    1.422   .     S
C273   O424    1.275   .     A
C273   O417    1.275   .     A
C273   C283    1.422   .     S
C274   O418    1.275   .     A
C274   O425    1.275   .     A
C274   C282    1.422   .     S
C275   C292    1.198   .     T
C276   C290    1.198   .     T
C277   C289    1.198   .     T
C278   C288    1.198   .     T
C279   C287    1.198   .     T
C280   O454    1.270   .     A
C280   C310    1.458   .     S
C281   C286    1.198   .     T
C282   C285    1.198   .     T
C283   C284    1.198   .     T
C289   C346    1.422   .     S
C291   O392    1.270   .     A
C291   C311    1.458   .     S
C293   C323    1.419   .     A
C293   C310    1.401   .     A
C293   I373    2.163   .     S
C294   I381    2.163   .     S
C294   C311    1.401   .     A
C294   C325    1.419   .     A
C295   C784    1.401   .     A
C295   I382    2.163   .     S
C295   C326    1.419   .     A
C296   I383    2.163   .     S
C296   C786    1.401   .     A
C296   C327    1.419   .     A
C297   I384    2.163   .     S
C297   C319    1.419   .     A
C297   C74     1.401   1_655 S
C298   I385    2.163   .     S
C298   C320    1.419   .     A
C298   C75     1.401   1_655 S
C299   C321    1.419   .     A
C299   I386    2.163   .     S
C299   C312    1.401   .     S
C300   C322    1.419   .     A
C300   I387    2.163   .     S
C300   C314    1.401   .     S
C301   C332    1.419   .     A
C301   I388    2.163   .     S
C301   C315    1.401   .     S
C302   O393    1.270   .     A
C302   C317    1.458   .     S
C302   O397    1.270   .     S
C303   I374    2.163   .     S
C303   C333    1.419   .     A
C303   C788    1.401   .     S
C304   C334    1.419   .     A
C304   I375    2.163   .     S
C304   C81     1.401   1_655 S
C305   I376    2.163   .     S
C305   C336    1.419   .     A
C305   C318    1.401   .     S
C306   I377    2.163   .     S
C306   C787    1.401   .     A
C306   C328    1.419   .     A
C307   C316    1.401   .     A
C307   I378    2.163   .     S
C307   C329    1.419   .     A
C308   I379    2.163   .     S
C308   C317    1.401   .     A
C308   C330    1.419   .     A
C309   C331    1.419   .     A
C309   C82     1.401   1_655 A
C309   I380    2.163   .     S
C312   C767    1.401   1_545 A
C313   C318    1.458   .     S
C313   O394    1.270   .     S
C313   O398    1.270   .     S
C314   C768    1.401   1_545 A
C315   C324    1.458   .     S
C315   C778    1.401   1_545 A
C316   C775    1.401   1_545 S
C316   C335    1.458   .     S
C319   C345    1.420   .     A
C319   C101    1.423   1_655 S
C320   C347    1.420   .     A
C320   C102    1.423   1_655 S
C321   C348    1.420   .     A
C321   C339    1.423   .     S
C322   C349    1.420   .     A
C322   C340    1.423   .     S
C323   C350    1.420   .     A
C323   C337    1.423   .     A
C324   O395    1.270   .     S
C324   O399    1.270   .     S
C325   C351    1.420   .     A
C325   C338    1.423   .     A
C326   C352    1.420   .     A
C326   C811    1.423   .     A
C327   C812    1.423   .     A
C327   C353    1.420   .     A
C328   C354    1.420   .     A
C328   C813    1.423   .     A
C329   C342    1.423   .     A
C329   C355    1.420   .     A
C330   C356    1.420   .     A
C330   C343    1.423   .     A
C331   C108    1.423   1_655 A
C332   C341    1.423   .     S
C333   C814    1.423   .     S
C334   C107    1.423   1_655 S
C335   O396    1.270   .     A
C335   O401    1.270   .     A
C336   C344    1.423   .     S
C337   C338    1.412   .     A
C339   C798    1.423   1_545 A
C339   C340    1.412   .     A
C340   C799    1.423   1_545 A
C341   C800    1.423   1_545 A
C341   C342    1.412   1_556 S
C342   C805    1.423   1_545 S
C342   C341    1.412   1_554 S
C343   C344    1.412   1_556 S
C344   C343    1.412   1_554 S
C345   C8      1.485   1_655 S
C345   C115    1.414   1_655 S
C346   O430    1.275   .     A
C346   O402    1.275   .     A
C347   C9      1.485   1_655 S
C347   C114    1.414   1_655 S
C348   C718    1.485   1_545 S
C348   C825    1.414   1_545 S
C349   C719    1.485   1_545 S
C349   C824    1.414   1_545 S
C352   C723    1.485   .     S
C352   C821    1.414   .     S
C353   C820    1.414   .     S
C353   C724    1.485   .     S
C354   C241    1.414   1_556 S
C355   C240    1.414   1_554 S
C356   C243    1.414   1_556 S
O389   Zn468   1.934   .     S
O389   Zn460   1.934   .     S
O389   Zn457   1.934   .     S
O389   Zn936   1.934   1_545 S
O390   Zn459   1.946   .     S
O390   C741    1.270   .     A
O391   Zn462   1.946   .     S
O391   C44     1.270   1_655 S
O392   Zn461   1.946   .     S
O393   Zn471   1.946   .     S
O394   Zn470   1.946   .     S
O395   Zn465   1.946   .     S
O396   Zn457   1.946   .     S
O397   Zn467   1.946   .     S
O398   Zn466   1.946   .     S
O399   Zn469   1.946   .     S
O400   Zn931   1.934   1_545 S
O400   Zn463   1.934   .     S
O400   Zn465   1.934   .     S
O400   Zn469   1.934   .     S
O401   Zn468   1.946   .     S
O402   Zn460   1.915   .     S
O403   Zn459   1.915   .     S
O404   Zn462   1.915   .     S
O405   Zn461   1.915   .     S
O406   Zn464   1.915   .     S
O407   Zn463   1.915   .     S
O408   Zn458   1.915   .     S
O409   Zn472   1.915   .     S
O410   Zn459   1.915   .     S
O411   Zn458   1.934   .     S
O411   Zn466   1.934   .     S
O411   Zn470   1.934   .     S
O412   Zn460   1.915   .     S
O413   Zn472   1.915   .     S
O414   Zn458   1.915   .     S
O415   Zn463   1.915   .     S
O416   Zn464   1.915   .     S
O417   Zn461   1.915   .     S
O418   Zn462   1.915   .     S
O419   Zn231   1.915   1_655 S
O420   Zn466   1.915   .     S
O421   Zn941   1.915   .     S
O422   Zn467   1.934   .     S
O422   Zn471   1.934   .     S
O422   Zn461   1.934   .     S
O423   Zn468   1.915   .     S
O424   Zn471   1.915   .     S
O425   Zn234   1.915   1_655 S
O426   Zn465   1.915   .     S
O427   Zn929   1.915   .     S
O428   Zn230   1.915   1_655 S
O429   Zn467   1.915   .     S
O430   Zn457   1.915   .     S
O431   Zn937   1.915   .     S
O432   Zn470   1.915   .     S
O433   Zn464   1.946   .     S
O433   C709    1.270   .     S
O434   Zn235   1.915   1_655 S
O435   Zn940   1.915   .     S
O436   Zn469   1.915   .     S
O437   C8      1.222   1_655 S
O438   C9      1.222   1_655 S
O439   C718    1.222   1_545 S
O440   C719    1.222   1_545 S
O443   C723    1.221   .     S
O444   Zn463   1.946   .     S
O445   C724    1.222   .     S
O454   Zn458   1.946   .     S
O455   Zn472   1.946   .     S
O455   C55     1.270   1_655 S
O456   Zn460   1.946   .     S
Zn457  O899    1.915   1_545 S
Zn459  O872    1.934   .     S
Zn462  O175    1.934   1_655 S
Zn464  O861    1.934   .     S
Zn465  O903    1.915   1_545 S
Zn468  O907    1.915   1_545 S
Zn469  O893    1.915   1_545 S
Zn472  O186    1.934   1_655 S
C473   O692    1.270   .     A
C473   C548    1.458   .     S
C474   O667    1.275   .     A
C474   C524    1.422   .     S
C474   O639    1.275   .     A
C475   C492    1.485   .     S
C475   C567    1.420   .     A
C475   C478    1.414   1_554 S
C476   C568    1.420   .     A
C476   C493    1.485   .     S
C476   C591    1.414   1_556 S
C477   C494    1.485   .     S
C477   C569    1.420   .     A
C477   C590    1.414   1_554 S
C478   C570    1.420   .     A
C478   C495    1.485   .     S
C478   C475    1.414   1_556 S
C479   C572    1.420   .     A
C479   C497    1.485   .     S
C479   C592    1.414   1_554 S
C480   H593    1.086   .     S
C480   C817    1.485   1_455 S
C480   O909    1.222   1_455 S
C481   H601    1.085   .     S
C481   C819    1.485   1_455 S
C481   O910    1.222   1_455 S
C482   H602    1.085   .     S
C482   C112    1.485   1_565 S
C482   O203    1.222   1_565 S
C483   H603    1.085   .     S
C483   C113    1.485   1_565 S
C483   O204    1.222   1_565 S
C484   H604    1.085   .     S
C484   C822    1.485   .     S
C484   O913    1.222   .     S
C485   O664    1.275   .     A
C485   C523    1.422   .     S
C485   O640    1.275   .     A
C486   H605    1.085   .     S
C486   C823    1.485   .     S
C486   O914    1.221   .     S
C487   H606    1.085   .     S
C488   H607    1.085   .     S
C489   O682    1.221   .     D
C489   H608    1.086   .     S
C489   C590    1.485   .     S
C490   H594    1.085   .     S
C490   C591    1.485   .     S
C490   O683    1.221   .     D
C491   H595    1.086   .     S
C491   O684    1.221   .     D
C491   C592    1.485   .     S
C492   H596    1.085   .     S
C492   O685    1.222   .     D
C493   H597    1.085   .     S
C493   O686    1.221   .     D
C494   H598    1.086   .     S
C494   O687    1.222   .     D
C495   O688    1.222   .     D
C495   H599    1.085   .     S
C496   C522    1.422   .     S
C496   O641    1.275   .     A
C496   O665    1.275   .     A
C497   O689    1.221   .     D
C497   H600    1.085   .     S
C498   C521    1.422   .     S
C498   O671    1.275   .     A
C498   O642    1.275   .     A
C499   O672    1.275   .     A
C499   C520    1.422   .     S
C499   O643    1.275   .     A
C500   C528    1.422   .     S
C500   O644    1.275   .     A
C500   O668    1.275   .     A
C501   C526    1.422   .     S
C501   O645    1.275   .     A
C501   O670    1.275   .     A
C502   O657    1.275   .     A
C502   C517    1.422   .     S
C502   O646    1.275   .     A
C503   C515    1.422   .     S
C503   O648    1.275   .     A
C503   O659    1.275   .     A
C504   O655    1.275   .     A
C504   O649    1.275   .     A
C504   C514    1.422   .     S
C505   C550    1.458   .     S
C505   O680    1.270   .     S
C506   O656    1.275   .     A
C506   C513    1.422   .     S
C506   O650    1.275   .     A
C507   O651    1.275   .     A
C507   C512    1.422   .     S
C507   O662    1.275   .     A
C508   O663    1.275   .     A
C508   O652    1.275   .     A
C508   C511    1.422   .     S
C509   O660    1.275   .     A
C509   O653    1.275   .     A
C509   C519    1.422   .     S
C510   O654    1.275   .     A
C510   O661    1.275   .     A
C510   C518    1.422   .     S
C511   C528    1.198   .     T
C512   C526    1.198   .     T
C513   C525    1.198   .     T
C514   C524    1.198   .     T
C515   C523    1.198   .     T
C516   O690    1.270   .     A
C516   C546    1.458   .     S
C516   O863    1.270   1_455 S
C517   C522    1.198   .     T
C518   C521    1.198   .     T
C519   C520    1.198   .     T
C525   C582    1.422   .     S
C527   O628    1.270   .     A
C527   C547    1.458   .     S
C527   O927    1.270   1_455 S
C529   C559    1.419   .     A
C529   C546    1.401   .     A
C529   I609    2.163   .     S
C530   I617    2.163   .     S
C530   C547    1.401   .     A
C530   C561    1.419   .     A
C531   C76     1.401   1_565 A
C531   I618    2.163   .     S
C531   C562    1.419   .     A
C532   I619    2.163   .     S
C532   C78     1.401   1_565 A
C532   C563    1.419   .     A
C533   I620    2.163   .     S
C533   C555    1.419   .     A
C533   C782    1.401   .     S
C534   I621    2.163   .     S
C534   C556    1.419   .     A
C534   C783    1.401   .     S
C535   C557    1.419   .     A
C535   I622    2.163   .     S
C535   C548    1.401   .     S
C536   C558    1.419   .     A
C536   I623    2.163   .     S
C536   C550    1.401   .     S
C537   C568    1.419   .     A
C537   I624    2.163   .     S
C537   C551    1.401   .     S
C538   O629    1.270   .     A
C538   C553    1.458   .     S
C538   O633    1.270   .     S
C539   I610    2.163   .     S
C539   C569    1.419   .     A
C539   C80     1.401   1_565 S
C540   C570    1.419   .     A
C540   I611    2.163   .     S
C540   C789    1.401   .     S
C541   I612    2.163   .     S
C541   C572    1.419   .     A
C541   C554    1.401   .     S
C542   I613    2.163   .     S
C542   C79     1.401   1_565 A
C542   C564    1.419   .     A
C543   C552    1.401   .     A
C543   I614    2.163   .     S
C543   C565    1.419   .     A
C544   I615    2.163   .     S
C544   C553    1.401   .     A
C544   C566    1.419   .     A
C545   C567    1.419   .     A
C545   C790    1.401   .     A
C545   I616    2.163   .     S
C546   C769    1.401   1_455 S
C547   C770    1.401   1_455 S
C549   C554    1.458   .     S
C549   O630    1.270   .     S
C549   O634    1.270   .     S
C551   C560    1.458   .     S
C552   C571    1.458   .     S
C553   C776    1.401   1_455 S
C554   C781    1.401   1_455 A
C555   C581    1.420   .     A
C555   C809    1.423   .     S
C556   C583    1.420   .     A
C556   C810    1.423   .     S
C557   C584    1.420   .     A
C557   C575    1.423   .     S
C558   C585    1.420   .     A
C558   C576    1.423   .     S
C559   C586    1.420   .     A
C559   C573    1.423   .     A
C560   O631    1.270   .     S
C560   O635    1.270   .     S
C561   C587    1.420   .     A
C561   C574    1.423   .     A
C562   C588    1.420   .     A
C562   C103    1.423   1_565 A
C563   C104    1.423   1_565 A
C563   C589    1.420   .     A
C564   C590    1.420   .     A
C564   C105    1.423   1_565 A
C565   C578    1.423   .     A
C565   C591    1.420   .     A
C566   C592    1.420   .     A
C566   C579    1.423   .     A
C567   C816    1.423   .     A
C568   C577    1.423   .     S
C569   C106    1.423   1_565 S
C570   C815    1.423   .     S
C571   O632    1.270   .     A
C571   O637    1.270   .     A
C572   C580    1.423   .     S
C573   C574    1.412   .     A
C573   C791    1.423   1_455 S
C574   C792    1.423   1_455 S
C575   C576    1.412   .     A
C577   C578    1.412   1_556 S
C578   C577    1.412   1_554 S
C579   C806    1.423   1_455 S
C579   C580    1.412   1_556 S
C580   C803    1.423   1_455 A
C580   C579    1.412   1_554 S
C581   C716    1.485   .     S
C581   C823    1.414   .     S
C582   O666    1.275   .     A
C582   O638    1.275   .     A
C583   C717    1.485   .     S
C583   C822    1.414   .     S
C586   C720    1.485   1_455 S
C586   C819    1.414   1_455 S
C587   C817    1.414   1_455 S
C587   C722    1.485   1_455 S
C588   C15     1.485   1_565 S
C588   C113    1.414   1_565 S
C589   C112    1.414   1_565 S
C589   C16     1.485   1_565 S
C590   C477    1.414   1_556 S
C591   C476    1.414   1_554 S
C592   C479    1.414   1_556 S
O625   Zn704   1.934   .     S
O625   Zn696   1.934   .     S
O625   Zn693   1.934   .     S
O626   Zn695   1.946   .     S
O626   C33     1.270   1_565 A
O627   Zn698   1.946   .     S
O627   C752    1.270   .     S
O628   Zn697   1.946   .     S
O629   Zn707   1.946   .     S
O630   Zn706   1.946   .     S
O631   Zn701   1.946   .     S
O632   Zn693   1.946   .     S
O633   Zn703   1.946   .     S
O634   Zn702   1.946   .     S
O635   Zn705   1.946   .     S
O636   Zn699   1.934   .     S
O636   Zn701   1.934   .     S
O636   Zn705   1.934   .     S
O637   Zn704   1.946   .     S
O638   Zn696   1.915   .     S
O639   Zn695   1.915   .     S
O640   Zn698   1.915   .     S
O641   Zn697   1.915   .     S
O642   Zn700   1.915   .     S
O643   Zn699   1.915   .     S
O644   Zn694   1.915   .     S
O645   Zn708   1.915   .     S
O646   Zn695   1.915   .     S
O647   Zn934   1.934   1_455 S
O647   Zn694   1.934   .     S
O647   Zn702   1.934   .     S
O647   Zn706   1.934   .     S
O648   Zn696   1.915   .     S
O649   Zn708   1.915   .     S
O650   Zn694   1.915   .     S
O651   Zn699   1.915   .     S
O652   Zn700   1.915   .     S
O653   Zn697   1.915   .     S
O654   Zn698   1.915   .     S
O655   Zn939   1.915   .     S
O656   Zn702   1.915   .     S
O657   Zn233   1.915   1_565 S
O658   Zn703   1.934   .     S
O658   Zn707   1.934   .     S
O658   Zn697   1.934   .     S
O658   Zn944   1.934   1_455 S
O659   Zn704   1.915   .     S
O660   Zn707   1.915   .     S
O661   Zn942   1.915   .     S
O662   Zn701   1.915   .     S
O663   Zn221   1.915   1_565 S
O664   Zn938   1.915   .     S
O665   Zn703   1.915   .     S
O666   Zn693   1.915   .     S
O667   Zn229   1.915   1_565 S
O668   Zn706   1.915   .     S
O669   Zn700   1.946   .     S
O669   C1      1.270   1_565 S
O670   Zn943   1.915   .     S
O671   Zn232   1.915   1_565 S
O672   Zn705   1.915   .     S
O673   C716    1.222   .     S
O674   C717    1.222   .     S
O677   C720    1.222   1_455 S
O678   C722    1.221   1_455 S
O679   C15     1.221   1_565 S
O680   Zn699   1.946   .     S
O681   C16     1.222   1_565 S
O690   Zn694   1.946   .     S
O691   Zn708   1.946   .     S
O691   C763    1.270   .     S
O692   Zn696   1.946   .     S
Zn695  O164    1.934   1_565 S
Zn698  O883    1.934   .     S
Zn700  O153    1.934   1_565 S
Zn702  O900    1.915   1_455 S
Zn703  O891    1.915   1_455 S
Zn706  O897    1.915   1_455 S
Zn707  O906    1.915   1_455 S
Zn708  O894    1.934   .     S
C709   O928    1.270   .     A
C709   C784    1.458   .     S
C710   O903    1.275   .     A
C710   C760    1.422   .     S
C710   O875    1.275   .     A
C711   C728    1.485   .     S
C711   C803    1.420   .     A
C711   C714    1.414   1_554 S
C712   C804    1.420   .     A
C712   C729    1.485   .     S
C712   C827    1.414   1_556 S
C713   C730    1.485   .     S
C713   C805    1.420   .     A
C713   C826    1.414   1_554 S
C714   C806    1.420   .     A
C714   C731    1.485   .     S
C714   C711    1.414   1_556 S
C715   C808    1.420   .     A
C715   C733    1.485   .     S
C715   C828    1.414   1_554 S
C716   H829    1.086   .     S
C717   H837    1.085   .     S
C718   H838    1.085   .     S
C718   C348    1.485   1_565 S
C718   O439    1.222   1_565 S
C719   H839    1.085   .     S
C719   C349    1.485   1_565 S
C719   O440    1.222   1_565 S
C720   H840    1.085   .     S
C720   C586    1.485   1_655 S
C720   O677    1.222   1_655 S
C721   O900    1.275   .     A
C721   C759    1.422   .     S
C721   O876    1.275   .     A
C722   H841    1.085   .     S
C722   C587    1.485   1_655 S
C722   O678    1.221   1_655 S
C723   H842    1.085   .     S
C724   H843    1.085   .     S
C725   O918    1.221   .     D
C725   H844    1.086   .     S
C725   C826    1.485   .     S
C726   H830    1.085   .     S
C726   C827    1.485   .     S
C726   O919    1.221   .     D
C727   H831    1.086   .     S
C727   O920    1.221   .     D
C727   C828    1.485   .     S
C728   H832    1.085   .     S
C728   O921    1.222   .     D
C729   H833    1.085   .     S
C729   O922    1.221   .     D
C730   H834    1.086   .     S
C730   O923    1.222   .     D
C731   O924    1.222   .     D
C731   H835    1.085   .     S
C732   C758    1.422   .     S
C732   O877    1.275   .     A
C732   O901    1.275   .     A
C733   O925    1.221   .     D
C733   H836    1.085   .     S
C734   C757    1.422   .     S
C734   O907    1.275   .     A
C734   O878    1.275   .     A
C735   O908    1.275   .     A
C735   C756    1.422   .     S
C735   O879    1.275   .     A
C736   C764    1.422   .     S
C736   O880    1.275   .     A
C736   O904    1.275   .     A
C737   C762    1.422   .     S
C737   O881    1.275   .     A
C737   O906    1.275   .     A
C738   O893    1.275   .     A
C738   C753    1.422   .     S
C738   O882    1.275   .     A
C739   C751    1.422   .     S
C739   O884    1.275   .     A
C739   O895    1.275   .     A
C740   O891    1.275   .     A
C740   O885    1.275   .     A
C740   C750    1.422   .     S
C741   C786    1.458   .     S
C741   O916    1.270   .     S
C742   O892    1.275   .     A
C742   C749    1.422   .     S
C742   O886    1.275   .     A
C743   O887    1.275   .     A
C743   C748    1.422   .     S
C743   O898    1.275   .     A
C744   O899    1.275   .     A
C744   O888    1.275   .     A
C744   C747    1.422   .     S
C745   O896    1.275   .     A
C745   O889    1.275   .     A
C745   C755    1.422   .     S
C746   O890    1.275   .     A
C746   O897    1.275   .     A
C746   C754    1.422   .     S
C747   C764    1.198   .     T
C748   C762    1.198   .     T
C749   C761    1.198   .     T
C750   C760    1.198   .     T
C751   C759    1.198   .     T
C752   O926    1.270   .     A
C752   C782    1.458   .     S
C753   C758    1.198   .     T
C754   C757    1.198   .     T
C755   C756    1.198   .     T
C761   C818    1.422   .     S
C763   O864    1.270   .     A
C763   C783    1.458   .     S
C765   C795    1.419   .     A
C765   C782    1.401   .     A
C765   I845    2.163   .     S
C766   I853    2.163   .     S
C766   C783    1.401   .     A
C766   C797    1.419   .     A
C767   C312    1.401   1_565 A
C767   I854    2.163   .     S
C767   C798    1.419   .     A
C768   I855    2.163   .     S
C768   C314    1.401   1_565 A
C768   C799    1.419   .     A
C769   I856    2.163   .     S
C769   C791    1.419   .     A
C769   C546    1.401   1_655 S
C770   I857    2.163   .     S
C770   C792    1.419   .     A
C770   C547    1.401   1_655 S
C771   C793    1.419   .     A
C771   I858    2.163   .     S
C771   C784    1.401   .     S
C772   C794    1.419   .     A
C772   I859    2.163   .     S
C772   C786    1.401   .     S
C773   C804    1.419   .     A
C773   I860    2.163   .     S
C773   C787    1.401   .     S
C774   O865    1.270   .     A
C774   C789    1.458   .     S
C774   O869    1.270   .     S
C775   I846    2.163   .     S
C775   C805    1.419   .     A
C775   C316    1.401   1_565 S
C776   C806    1.419   .     A
C776   I847    2.163   .     S
C776   C553    1.401   1_655 S
C777   I848    2.163   .     S
C777   C808    1.419   .     A
C777   C790    1.401   .     S
C778   I849    2.163   .     S
C778   C315    1.401   1_565 A
C778   C800    1.419   .     A
C779   C788    1.401   .     A
C779   I850    2.163   .     S
C779   C801    1.419   .     A
C780   I851    2.163   .     S
C780   C789    1.401   .     A
C780   C802    1.419   .     A
C781   C803    1.419   .     A
C781   C554    1.401   1_655 A
C781   I852    2.163   .     S
C785   C790    1.458   .     S
C785   O866    1.270   .     S
C785   O870    1.270   .     S
C787   C796    1.458   .     S
C788   C807    1.458   .     S
C791   C817    1.420   .     A
C791   C573    1.423   1_655 S
C792   C819    1.420   .     A
C792   C574    1.423   1_655 S
C793   C820    1.420   .     A
C793   C811    1.423   .     S
C794   C821    1.420   .     A
C794   C812    1.423   .     S
C795   C822    1.420   .     A
C795   C809    1.423   .     A
C796   O867    1.270   .     S
C796   O871    1.270   .     S
C797   C823    1.420   .     A
C797   C810    1.423   .     A
C798   C824    1.420   .     A
C798   C339    1.423   1_565 A
C799   C340    1.423   1_565 A
C799   C825    1.420   .     A
C800   C826    1.420   .     A
C800   C341    1.423   1_565 A
C801   C814    1.423   .     A
C801   C827    1.420   .     A
C802   C828    1.420   .     A
C802   C815    1.423   .     A
C803   C580    1.423   1_655 A
C804   C813    1.423   .     S
C805   C342    1.423   1_565 S
C806   C579    1.423   1_655 S
C807   O868    1.270   .     A
C807   O873    1.270   .     A
C808   C816    1.423   .     S
C809   C810    1.412   .     A
C811   C812    1.412   .     A
C813   C814    1.412   1_556 S
C814   C813    1.412   1_554 S
C815   C816    1.412   1_556 S
C816   C815    1.412   1_554 S
C817   C480    1.485   1_655 S
C817   C587    1.414   1_655 S
C818   O902    1.275   .     A
C818   O874    1.275   .     A
C819   C481    1.485   1_655 S
C819   C586    1.414   1_655 S
C824   C251    1.485   1_565 S
C824   C349    1.414   1_565 S
C825   C348    1.414   1_565 S
C825   C252    1.485   1_565 S
C826   C713    1.414   1_556 S
C827   C712    1.414   1_554 S
C828   C715    1.414   1_556 S
O861   Zn940   1.934   .     S
O861   Zn932   1.934   .     S
O861   Zn929   1.934   .     S
O862   Zn931   1.946   .     S
O862   C269    1.270   1_565 A
O863   Zn934   1.946   .     S
O863   C516    1.270   1_655 S
O864   Zn933   1.946   .     S
O865   Zn943   1.946   .     S
O866   Zn942   1.946   .     S
O867   Zn937   1.946   .     S
O868   Zn929   1.946   .     S
O869   Zn939   1.946   .     S
O870   Zn938   1.946   .     S
O871   Zn941   1.946   .     S
O872   Zn935   1.934   .     S
O872   Zn937   1.934   .     S
O872   Zn941   1.934   .     S
O873   Zn940   1.946   .     S
O874   Zn932   1.915   .     S
O875   Zn931   1.915   .     S
O876   Zn934   1.915   .     S
O877   Zn933   1.915   .     S
O878   Zn936   1.915   .     S
O879   Zn935   1.915   .     S
O880   Zn930   1.915   .     S
O881   Zn944   1.915   .     S
O882   Zn931   1.915   .     S
O883   Zn930   1.934   .     S
O883   Zn938   1.934   .     S
O883   Zn942   1.934   .     S
O884   Zn932   1.915   .     S
O885   Zn944   1.915   .     S
O886   Zn930   1.915   .     S
O887   Zn935   1.915   .     S
O888   Zn936   1.915   .     S
O889   Zn933   1.915   .     S
O890   Zn934   1.915   .     S
O891   Zn703   1.915   1_655 S
O892   Zn938   1.915   .     S
O893   Zn469   1.915   1_565 S
O894   Zn939   1.934   .     S
O894   Zn943   1.934   .     S
O894   Zn933   1.934   .     S
O895   Zn940   1.915   .     S
O896   Zn943   1.915   .     S
O897   Zn706   1.915   1_655 S
O898   Zn937   1.915   .     S
O899   Zn457   1.915   1_565 S
O900   Zn702   1.915   1_655 S
O901   Zn939   1.915   .     S
O902   Zn929   1.915   .     S
O903   Zn465   1.915   1_565 S
O904   Zn942   1.915   .     S
O905   Zn936   1.946   .     S
O905   C237    1.270   1_565 S
O906   Zn707   1.915   1_655 S
O907   Zn468   1.915   1_565 S
O908   Zn941   1.915   .     S
O909   C480    1.222   1_655 S
O910   C481    1.222   1_655 S
O915   C251    1.221   1_565 S
O916   Zn935   1.946   .     S
O917   C252    1.222   1_565 S
O926   Zn930   1.946   .     S
O927   Zn944   1.946   .     S
O927   C527    1.270   1_655 S
O928   Zn932   1.946   .     S
Zn931  O400    1.934   1_565 S
Zn934  O647    1.934   1_655 S
Zn936  O389    1.934   1_565 S
Zn944  O658    1.934   1_655 S
