data_str_m2_o1_o10_pcu_sym.126
_audit_creation_date              2020-01-03
_audit_creation_method            'Materials Studio'
_symmetry_space_group_name_H-M    'P1'
_symmetry_Int_Tables_number       1
_symmetry_cell_setting            triclinic
loop_
_symmetry_equiv_pos_as_xyz
  x,y,z
_cell_length_a                    26.4294
_cell_length_b                    32.6200
_cell_length_c                    28.7417
_cell_angle_alpha                 90.6057
_cell_angle_beta                  96.8843
_cell_angle_gamma                 91.3870
loop_
_atom_site_label
_atom_site_type_symbol
_atom_site_fract_x
_atom_site_fract_y
_atom_site_fract_z
_atom_site_U_iso_or_equiv
_atom_site_adp_type
_atom_site_occupancy
C1     C     0.16774   0.08746   0.16634   0.00000  Uiso   1.00
C2     C     0.16559   0.24588   0.16699   0.00000  Uiso   1.00
C3     C     0.06824   0.16641   0.15506   0.00000  Uiso   1.00
C4     C     0.26510   0.16692   0.17828   0.00000  Uiso   1.00
C5     C     0.01372   0.16161   0.14910   0.00000  Uiso   1.00
C6     C     0.31961   0.17173   0.18423   0.00000  Uiso   1.00
C7     C     0.18321   0.02000   0.12783   0.00000  Uiso   1.00
C8     C     0.15013   0.31333   0.20551   0.00000  Uiso   1.00
C9     C     0.18159   0.31094   0.12939   0.00000  Uiso   1.00
C10    C     0.15174   0.02239   0.20394   0.00000  Uiso   1.00
C11    C     0.16536   0.29052   0.16773   0.00000  Uiso   1.00
C12    C     0.16797   0.04282   0.16560   0.00000  Uiso   1.00
C13    C     0.13801   0.13832   0.02221   0.00000  Uiso   1.00
C14    C     0.19533   0.19501   0.31112   0.00000  Uiso   1.00
C15    C     0.13820   0.13792   0.30590   0.00000  Uiso   1.00
C16    C     0.19513   0.19541   0.02744   0.00000  Uiso   1.00
Cu17   Cu    0.16667   0.16667   0.21355   0.00000  Uiso   1.00
Cu18   Cu    0.16667   0.16666   0.11978   0.00000  Uiso   1.00
H19    H     0.19395   0.29388   0.10046   0.00000  Uiso   1.00
H20    H     0.13938   0.03945   0.23287   0.00000  Uiso   1.00
N21    N     0.16668   0.16668   0.28403   0.00000  Uiso   1.00
N22    N     0.16665   0.16666   0.04931   0.00000  Uiso   1.00
O23    O     0.16666   0.10655   0.20625   0.00000  Uiso   1.00
O24    O     0.16667   0.22678   0.12709   0.00000  Uiso   1.00
O25    O     0.16666   0.10654   0.12706   0.00000  Uiso   1.00
O26    O     0.16667   0.22679   0.20628   0.00000  Uiso   1.00
O27    O     0.09161   0.16667   0.19712   0.00000  Uiso   1.00
O28    O     0.24172   0.16666   0.13621   0.00000  Uiso   1.00
O29    O     0.09161   0.16666   0.11793   0.00000  Uiso   1.00
O30    O     0.24172   0.16667   0.21540   0.00000  Uiso   1.00
I31    I     0.31817   0.13206   0.08353   0.00000  Uiso   1.00
I32    I     0.01516   0.20128   0.24980   0.00000  Uiso   1.00
I33    I     0.21162   0.04435   0.06732   0.00000  Uiso   1.00
I34    I     0.12171   0.28899   0.26601   0.00000  Uiso   1.00
O35    O     0.10845   0.11094   0.04429   0.00000  Uiso   1.00
H36    H     0.08789   0.09289   0.02105   0.00000  Uiso   1.00
O37    O     0.22488   0.22240   0.28904   0.00000  Uiso   1.00
H38    H     0.24545   0.24045   0.31228   0.00000  Uiso   1.00
O39    O     0.11036   0.10692   0.28120   0.00000  Uiso   1.00
H40    H     0.09892   0.11648   0.24970   0.00000  Uiso   1.00
O41    O     0.22297   0.22641   0.05213   0.00000  Uiso   1.00
H42    H     0.23441   0.21686   0.08364   0.00000  Uiso   1.00
C43    C     0.50107   0.08746   0.16634   0.00000  Uiso   1.00
C44    C     0.49893   0.24588   0.16699   0.00000  Uiso   1.00
C45    C     0.40157   0.16641   0.15506   0.00000  Uiso   1.00
C46    C     0.59843   0.16692   0.17828   0.00000  Uiso   1.00
C47    C     0.34706   0.16161   0.14910   0.00000  Uiso   1.00
C48    C     0.65294   0.17173   0.18423   0.00000  Uiso   1.00
C49    C     0.51654   0.02000   0.12783   0.00000  Uiso   1.00
C50    C     0.48346   0.31333   0.20551   0.00000  Uiso   1.00
C51    C     0.51492   0.31094   0.12939   0.00000  Uiso   1.00
C52    C     0.48508   0.02239   0.20394   0.00000  Uiso   1.00
C53    C     0.49869   0.29052   0.16773   0.00000  Uiso   1.00
C54    C     0.50131   0.04282   0.16560   0.00000  Uiso   1.00
C55    C     0.47134   0.13832   0.02221   0.00000  Uiso   1.00
C56    C     0.52866   0.19501   0.31112   0.00000  Uiso   1.00
C57    C     0.47153   0.13792   0.30590   0.00000  Uiso   1.00
C58    C     0.52847   0.19541   0.02744   0.00000  Uiso   1.00
Cu59   Cu    0.50000   0.16667   0.21355   0.00000  Uiso   1.00
Cu60   Cu    0.50000   0.16666   0.11978   0.00000  Uiso   1.00
H61    H     0.52729   0.29388   0.10046   0.00000  Uiso   1.00
H62    H     0.47271   0.03945   0.23287   0.00000  Uiso   1.00
N63    N     0.50001   0.16668   0.28403   0.00000  Uiso   1.00
N64    N     0.49999   0.16666   0.04931   0.00000  Uiso   1.00
O65    O     0.50000   0.10655   0.20625   0.00000  Uiso   1.00
O66    O     0.50000   0.22678   0.12709   0.00000  Uiso   1.00
O67    O     0.50000   0.10654   0.12706   0.00000  Uiso   1.00
O68    O     0.50000   0.22679   0.20628   0.00000  Uiso   1.00
O69    O     0.42495   0.16667   0.19712   0.00000  Uiso   1.00
O70    O     0.57505   0.16666   0.13621   0.00000  Uiso   1.00
O71    O     0.42494   0.16666   0.11793   0.00000  Uiso   1.00
O72    O     0.57506   0.16667   0.21540   0.00000  Uiso   1.00
I73    I     0.65150   0.13206   0.08353   0.00000  Uiso   1.00
I74    I     0.34850   0.20128   0.24980   0.00000  Uiso   1.00
I75    I     0.54496   0.04435   0.06732   0.00000  Uiso   1.00
I76    I     0.45504   0.28899   0.26601   0.00000  Uiso   1.00
O77    O     0.44179   0.11094   0.04429   0.00000  Uiso   1.00
H78    H     0.42122   0.09289   0.02105   0.00000  Uiso   1.00
O79    O     0.55821   0.22240   0.28904   0.00000  Uiso   1.00
H80    H     0.57878   0.24045   0.31228   0.00000  Uiso   1.00
O81    O     0.44370   0.10692   0.28120   0.00000  Uiso   1.00
H82    H     0.43225   0.11648   0.24970   0.00000  Uiso   1.00
O83    O     0.55630   0.22641   0.05213   0.00000  Uiso   1.00
H84    H     0.56775   0.21686   0.08364   0.00000  Uiso   1.00
C85    C     0.83441   0.08746   0.16634   0.00000  Uiso   1.00
C86    C     0.83226   0.24588   0.16699   0.00000  Uiso   1.00
C87    C     0.73490   0.16641   0.15506   0.00000  Uiso   1.00
C88    C     0.93176   0.16692   0.17828   0.00000  Uiso   1.00
C89    C     0.68039   0.16161   0.14910   0.00000  Uiso   1.00
C90    C     0.98628   0.17173   0.18423   0.00000  Uiso   1.00
C91    C     0.84987   0.02000   0.12783   0.00000  Uiso   1.00
C92    C     0.81679   0.31333   0.20551   0.00000  Uiso   1.00
C93    C     0.84825   0.31094   0.12939   0.00000  Uiso   1.00
C94    C     0.81841   0.02239   0.20394   0.00000  Uiso   1.00
C95    C     0.83203   0.29052   0.16773   0.00000  Uiso   1.00
C96    C     0.83464   0.04282   0.16560   0.00000  Uiso   1.00
C97    C     0.80467   0.13832   0.02221   0.00000  Uiso   1.00
C98    C     0.86199   0.19501   0.31112   0.00000  Uiso   1.00
C99    C     0.80487   0.13792   0.30590   0.00000  Uiso   1.00
C100   C     0.86180   0.19541   0.02744   0.00000  Uiso   1.00
Cu101  Cu    0.83333   0.16667   0.21355   0.00000  Uiso   1.00
Cu102  Cu    0.83333   0.16666   0.11978   0.00000  Uiso   1.00
H103   H     0.86062   0.29388   0.10046   0.00000  Uiso   1.00
H104   H     0.80605   0.03945   0.23287   0.00000  Uiso   1.00
N105   N     0.83335   0.16668   0.28403   0.00000  Uiso   1.00
N106   N     0.83332   0.16666   0.04931   0.00000  Uiso   1.00
O107   O     0.83333   0.10655   0.20625   0.00000  Uiso   1.00
O108   O     0.83334   0.22678   0.12709   0.00000  Uiso   1.00
O109   O     0.83333   0.10654   0.12706   0.00000  Uiso   1.00
O110   O     0.83334   0.22679   0.20628   0.00000  Uiso   1.00
O111   O     0.75828   0.16667   0.19712   0.00000  Uiso   1.00
O112   O     0.90839   0.16666   0.13621   0.00000  Uiso   1.00
O113   O     0.75828   0.16666   0.11793   0.00000  Uiso   1.00
O114   O     0.90839   0.16667   0.21540   0.00000  Uiso   1.00
I115   I     0.98484   0.13206   0.08353   0.00000  Uiso   1.00
I116   I     0.68183   0.20128   0.24980   0.00000  Uiso   1.00
I117   I     0.87829   0.04435   0.06732   0.00000  Uiso   1.00
I118   I     0.78838   0.28899   0.26601   0.00000  Uiso   1.00
O119   O     0.77512   0.11094   0.04429   0.00000  Uiso   1.00
H120   H     0.75455   0.09289   0.02105   0.00000  Uiso   1.00
O121   O     0.89155   0.22240   0.28904   0.00000  Uiso   1.00
H122   H     0.91211   0.24045   0.31228   0.00000  Uiso   1.00
O123   O     0.77703   0.10692   0.28120   0.00000  Uiso   1.00
H124   H     0.76559   0.11648   0.24970   0.00000  Uiso   1.00
O125   O     0.88963   0.22641   0.05213   0.00000  Uiso   1.00
H126   H     0.90108   0.21686   0.08364   0.00000  Uiso   1.00
C127   C     0.16774   0.42079   0.16634   0.00000  Uiso   1.00
C128   C     0.16559   0.57921   0.16699   0.00000  Uiso   1.00
C129   C     0.06824   0.49974   0.15506   0.00000  Uiso   1.00
C130   C     0.26510   0.50026   0.17828   0.00000  Uiso   1.00
C131   C     0.01372   0.49494   0.14910   0.00000  Uiso   1.00
C132   C     0.31961   0.50506   0.18423   0.00000  Uiso   1.00
C133   C     0.18321   0.35334   0.12783   0.00000  Uiso   1.00
C134   C     0.15013   0.64666   0.20551   0.00000  Uiso   1.00
C135   C     0.18159   0.64428   0.12939   0.00000  Uiso   1.00
C136   C     0.15174   0.35572   0.20394   0.00000  Uiso   1.00
C137   C     0.16536   0.62385   0.16773   0.00000  Uiso   1.00
C138   C     0.16797   0.37615   0.16560   0.00000  Uiso   1.00
C139   C     0.13801   0.47165   0.02221   0.00000  Uiso   1.00
C140   C     0.19533   0.52835   0.31112   0.00000  Uiso   1.00
C141   C     0.13820   0.47126   0.30590   0.00000  Uiso   1.00
C142   C     0.19513   0.52874   0.02744   0.00000  Uiso   1.00
Cu143  Cu    0.16667   0.50001   0.21355   0.00000  Uiso   1.00
Cu144  Cu    0.16667   0.49999   0.11978   0.00000  Uiso   1.00
H145   H     0.19395   0.62721   0.10046   0.00000  Uiso   1.00
H146   H     0.13938   0.37279   0.23287   0.00000  Uiso   1.00
N147   N     0.16668   0.50001   0.28403   0.00000  Uiso   1.00
N148   N     0.16665   0.49999   0.04931   0.00000  Uiso   1.00
O149   O     0.16666   0.43989   0.20625   0.00000  Uiso   1.00
O150   O     0.16667   0.56011   0.12709   0.00000  Uiso   1.00
O151   O     0.16666   0.43988   0.12706   0.00000  Uiso   1.00
O152   O     0.16667   0.56012   0.20628   0.00000  Uiso   1.00
O153   O     0.09161   0.50000   0.19712   0.00000  Uiso   1.00
O154   O     0.24172   0.50000   0.13621   0.00000  Uiso   1.00
O155   O     0.09161   0.49999   0.11793   0.00000  Uiso   1.00
O156   O     0.24172   0.50001   0.21540   0.00000  Uiso   1.00
I157   I     0.31817   0.46539   0.08353   0.00000  Uiso   1.00
I158   I     0.01516   0.53461   0.24980   0.00000  Uiso   1.00
I159   I     0.21162   0.37768   0.06732   0.00000  Uiso   1.00
I160   I     0.12171   0.62232   0.26601   0.00000  Uiso   1.00
O161   O     0.10845   0.44427   0.04429   0.00000  Uiso   1.00
H162   H     0.08789   0.42622   0.02105   0.00000  Uiso   1.00
O163   O     0.22488   0.55573   0.28904   0.00000  Uiso   1.00
H164   H     0.24545   0.57378   0.31228   0.00000  Uiso   1.00
O165   O     0.11036   0.44025   0.28120   0.00000  Uiso   1.00
H166   H     0.09892   0.44981   0.24970   0.00000  Uiso   1.00
O167   O     0.22297   0.55975   0.05213   0.00000  Uiso   1.00
H168   H     0.23441   0.55019   0.08364   0.00000  Uiso   1.00
C169   C     0.50107   0.42079   0.16634   0.00000  Uiso   1.00
C170   C     0.49893   0.57921   0.16699   0.00000  Uiso   1.00
C171   C     0.40157   0.49974   0.15506   0.00000  Uiso   1.00
C172   C     0.59843   0.50026   0.17828   0.00000  Uiso   1.00
C173   C     0.34706   0.49494   0.14910   0.00000  Uiso   1.00
C174   C     0.65294   0.50506   0.18423   0.00000  Uiso   1.00
C175   C     0.51654   0.35334   0.12783   0.00000  Uiso   1.00
C176   C     0.48346   0.64666   0.20551   0.00000  Uiso   1.00
C177   C     0.51492   0.64428   0.12939   0.00000  Uiso   1.00
C178   C     0.48508   0.35572   0.20394   0.00000  Uiso   1.00
C179   C     0.49869   0.62385   0.16773   0.00000  Uiso   1.00
C180   C     0.50131   0.37615   0.16560   0.00000  Uiso   1.00
C181   C     0.47134   0.47165   0.02221   0.00000  Uiso   1.00
C182   C     0.52866   0.52835   0.31112   0.00000  Uiso   1.00
C183   C     0.47153   0.47126   0.30590   0.00000  Uiso   1.00
C184   C     0.52847   0.52874   0.02744   0.00000  Uiso   1.00
Cu185  Cu    0.50000   0.50001   0.21355   0.00000  Uiso   1.00
Cu186  Cu    0.50000   0.49999   0.11978   0.00000  Uiso   1.00
H187   H     0.52729   0.62721   0.10046   0.00000  Uiso   1.00
H188   H     0.47271   0.37279   0.23287   0.00000  Uiso   1.00
N189   N     0.50001   0.50001   0.28403   0.00000  Uiso   1.00
N190   N     0.49999   0.49999   0.04931   0.00000  Uiso   1.00
O191   O     0.50000   0.43989   0.20625   0.00000  Uiso   1.00
O192   O     0.50000   0.56011   0.12709   0.00000  Uiso   1.00
O193   O     0.50000   0.43988   0.12706   0.00000  Uiso   1.00
O194   O     0.50000   0.56012   0.20628   0.00000  Uiso   1.00
O195   O     0.42495   0.50000   0.19712   0.00000  Uiso   1.00
O196   O     0.57505   0.50000   0.13621   0.00000  Uiso   1.00
O197   O     0.42494   0.49999   0.11793   0.00000  Uiso   1.00
O198   O     0.57506   0.50001   0.21540   0.00000  Uiso   1.00
I199   I     0.65150   0.46539   0.08353   0.00000  Uiso   1.00
I200   I     0.34850   0.53461   0.24980   0.00000  Uiso   1.00
I201   I     0.54496   0.37768   0.06732   0.00000  Uiso   1.00
I202   I     0.45504   0.62232   0.26601   0.00000  Uiso   1.00
O203   O     0.44179   0.44427   0.04429   0.00000  Uiso   1.00
H204   H     0.42122   0.42622   0.02105   0.00000  Uiso   1.00
O205   O     0.55821   0.55573   0.28904   0.00000  Uiso   1.00
H206   H     0.57878   0.57378   0.31228   0.00000  Uiso   1.00
O207   O     0.44370   0.44025   0.28120   0.00000  Uiso   1.00
H208   H     0.43225   0.44981   0.24970   0.00000  Uiso   1.00
O209   O     0.55630   0.55975   0.05213   0.00000  Uiso   1.00
H210   H     0.56775   0.55019   0.08364   0.00000  Uiso   1.00
C211   C     0.83441   0.42079   0.16634   0.00000  Uiso   1.00
C212   C     0.83226   0.57921   0.16699   0.00000  Uiso   1.00
C213   C     0.73490   0.49974   0.15506   0.00000  Uiso   1.00
C214   C     0.93176   0.50026   0.17828   0.00000  Uiso   1.00
C215   C     0.68039   0.49494   0.14910   0.00000  Uiso   1.00
C216   C     0.98628   0.50506   0.18423   0.00000  Uiso   1.00
C217   C     0.84987   0.35334   0.12783   0.00000  Uiso   1.00
C218   C     0.81679   0.64666   0.20551   0.00000  Uiso   1.00
C219   C     0.84825   0.64428   0.12939   0.00000  Uiso   1.00
C220   C     0.81841   0.35572   0.20394   0.00000  Uiso   1.00
C221   C     0.83203   0.62385   0.16773   0.00000  Uiso   1.00
C222   C     0.83464   0.37615   0.16560   0.00000  Uiso   1.00
C223   C     0.80467   0.47165   0.02221   0.00000  Uiso   1.00
C224   C     0.86199   0.52835   0.31112   0.00000  Uiso   1.00
C225   C     0.80487   0.47126   0.30590   0.00000  Uiso   1.00
C226   C     0.86180   0.52874   0.02744   0.00000  Uiso   1.00
Cu227  Cu    0.83333   0.50001   0.21355   0.00000  Uiso   1.00
Cu228  Cu    0.83333   0.49999   0.11978   0.00000  Uiso   1.00
H229   H     0.86062   0.62721   0.10046   0.00000  Uiso   1.00
H230   H     0.80605   0.37279   0.23287   0.00000  Uiso   1.00
N231   N     0.83335   0.50001   0.28403   0.00000  Uiso   1.00
N232   N     0.83332   0.49999   0.04931   0.00000  Uiso   1.00
O233   O     0.83333   0.43989   0.20625   0.00000  Uiso   1.00
O234   O     0.83334   0.56011   0.12709   0.00000  Uiso   1.00
O235   O     0.83333   0.43988   0.12706   0.00000  Uiso   1.00
O236   O     0.83334   0.56012   0.20628   0.00000  Uiso   1.00
O237   O     0.75828   0.50000   0.19712   0.00000  Uiso   1.00
O238   O     0.90839   0.50000   0.13621   0.00000  Uiso   1.00
O239   O     0.75828   0.49999   0.11793   0.00000  Uiso   1.00
O240   O     0.90839   0.50001   0.21540   0.00000  Uiso   1.00
I241   I     0.98484   0.46539   0.08353   0.00000  Uiso   1.00
I242   I     0.68183   0.53461   0.24980   0.00000  Uiso   1.00
I243   I     0.87829   0.37768   0.06732   0.00000  Uiso   1.00
I244   I     0.78838   0.62232   0.26601   0.00000  Uiso   1.00
O245   O     0.77512   0.44427   0.04429   0.00000  Uiso   1.00
H246   H     0.75455   0.42622   0.02105   0.00000  Uiso   1.00
O247   O     0.89155   0.55573   0.28904   0.00000  Uiso   1.00
H248   H     0.91211   0.57378   0.31228   0.00000  Uiso   1.00
O249   O     0.77703   0.44025   0.28120   0.00000  Uiso   1.00
H250   H     0.76559   0.44981   0.24970   0.00000  Uiso   1.00
O251   O     0.88963   0.55975   0.05213   0.00000  Uiso   1.00
H252   H     0.90108   0.55019   0.08364   0.00000  Uiso   1.00
C253   C     0.16774   0.75412   0.16634   0.00000  Uiso   1.00
C254   C     0.16559   0.91254   0.16699   0.00000  Uiso   1.00
C255   C     0.06824   0.83308   0.15506   0.00000  Uiso   1.00
C256   C     0.26510   0.83359   0.17828   0.00000  Uiso   1.00
C257   C     0.01372   0.82827   0.14910   0.00000  Uiso   1.00
C258   C     0.31961   0.83839   0.18423   0.00000  Uiso   1.00
C259   C     0.18321   0.68667   0.12783   0.00000  Uiso   1.00
C260   C     0.15013   0.98000   0.20551   0.00000  Uiso   1.00
C261   C     0.18159   0.97761   0.12939   0.00000  Uiso   1.00
C262   C     0.15174   0.68906   0.20394   0.00000  Uiso   1.00
C263   C     0.16536   0.95718   0.16773   0.00000  Uiso   1.00
C264   C     0.16797   0.70949   0.16560   0.00000  Uiso   1.00
C265   C     0.13801   0.80499   0.02221   0.00000  Uiso   1.00
C266   C     0.19533   0.86168   0.31112   0.00000  Uiso   1.00
C267   C     0.13820   0.80459   0.30590   0.00000  Uiso   1.00
C268   C     0.19513   0.86208   0.02744   0.00000  Uiso   1.00
Cu269  Cu    0.16667   0.83334   0.21355   0.00000  Uiso   1.00
Cu270  Cu    0.16667   0.83333   0.11978   0.00000  Uiso   1.00
H271   H     0.19395   0.96055   0.10046   0.00000  Uiso   1.00
H272   H     0.13938   0.70612   0.23287   0.00000  Uiso   1.00
N273   N     0.16668   0.83334   0.28403   0.00000  Uiso   1.00
N274   N     0.16665   0.83332   0.04931   0.00000  Uiso   1.00
O275   O     0.16666   0.77322   0.20625   0.00000  Uiso   1.00
O276   O     0.16667   0.89345   0.12709   0.00000  Uiso   1.00
O277   O     0.16666   0.77321   0.12706   0.00000  Uiso   1.00
O278   O     0.16667   0.89346   0.20628   0.00000  Uiso   1.00
O279   O     0.09161   0.83334   0.19712   0.00000  Uiso   1.00
O280   O     0.24172   0.83333   0.13621   0.00000  Uiso   1.00
O281   O     0.09161   0.83333   0.11793   0.00000  Uiso   1.00
O282   O     0.24172   0.83334   0.21540   0.00000  Uiso   1.00
I283   I     0.31817   0.79872   0.08353   0.00000  Uiso   1.00
I284   I     0.01516   0.86794   0.24980   0.00000  Uiso   1.00
I285   I     0.21162   0.71102   0.06732   0.00000  Uiso   1.00
I286   I     0.12171   0.95565   0.26601   0.00000  Uiso   1.00
O287   O     0.10845   0.77760   0.04429   0.00000  Uiso   1.00
H288   H     0.08789   0.75955   0.02105   0.00000  Uiso   1.00
O289   O     0.22488   0.88906   0.28904   0.00000  Uiso   1.00
H290   H     0.24545   0.90712   0.31228   0.00000  Uiso   1.00
O291   O     0.11036   0.77359   0.28120   0.00000  Uiso   1.00
H292   H     0.09892   0.78314   0.24970   0.00000  Uiso   1.00
O293   O     0.22297   0.89308   0.05213   0.00000  Uiso   1.00
H294   H     0.23441   0.88352   0.08364   0.00000  Uiso   1.00
C295   C     0.50107   0.75412   0.16634   0.00000  Uiso   1.00
C296   C     0.49893   0.91254   0.16699   0.00000  Uiso   1.00
C297   C     0.40157   0.83308   0.15506   0.00000  Uiso   1.00
C298   C     0.59843   0.83359   0.17828   0.00000  Uiso   1.00
C299   C     0.34706   0.82827   0.14910   0.00000  Uiso   1.00
C300   C     0.65294   0.83839   0.18423   0.00000  Uiso   1.00
C301   C     0.51654   0.68667   0.12783   0.00000  Uiso   1.00
C302   C     0.48346   0.98000   0.20551   0.00000  Uiso   1.00
C303   C     0.51492   0.97761   0.12939   0.00000  Uiso   1.00
C304   C     0.48508   0.68906   0.20394   0.00000  Uiso   1.00
C305   C     0.49869   0.95718   0.16773   0.00000  Uiso   1.00
C306   C     0.50131   0.70949   0.16560   0.00000  Uiso   1.00
C307   C     0.47134   0.80499   0.02221   0.00000  Uiso   1.00
C308   C     0.52866   0.86168   0.31112   0.00000  Uiso   1.00
C309   C     0.47153   0.80459   0.30590   0.00000  Uiso   1.00
C310   C     0.52847   0.86208   0.02744   0.00000  Uiso   1.00
Cu311  Cu    0.50000   0.83334   0.21355   0.00000  Uiso   1.00
Cu312  Cu    0.50000   0.83333   0.11978   0.00000  Uiso   1.00
H313   H     0.52729   0.96055   0.10046   0.00000  Uiso   1.00
H314   H     0.47271   0.70612   0.23287   0.00000  Uiso   1.00
N315   N     0.50001   0.83334   0.28403   0.00000  Uiso   1.00
N316   N     0.49999   0.83332   0.04931   0.00000  Uiso   1.00
O317   O     0.50000   0.77322   0.20625   0.00000  Uiso   1.00
O318   O     0.50000   0.89345   0.12709   0.00000  Uiso   1.00
O319   O     0.50000   0.77321   0.12706   0.00000  Uiso   1.00
O320   O     0.50000   0.89346   0.20628   0.00000  Uiso   1.00
O321   O     0.42495   0.83334   0.19712   0.00000  Uiso   1.00
O322   O     0.57505   0.83333   0.13621   0.00000  Uiso   1.00
O323   O     0.42494   0.83333   0.11793   0.00000  Uiso   1.00
O324   O     0.57506   0.83334   0.21540   0.00000  Uiso   1.00
I325   I     0.65150   0.79872   0.08353   0.00000  Uiso   1.00
I326   I     0.34850   0.86794   0.24980   0.00000  Uiso   1.00
I327   I     0.54496   0.71102   0.06732   0.00000  Uiso   1.00
I328   I     0.45504   0.95565   0.26601   0.00000  Uiso   1.00
O329   O     0.44179   0.77760   0.04429   0.00000  Uiso   1.00
H330   H     0.42122   0.75955   0.02105   0.00000  Uiso   1.00
O331   O     0.55821   0.88906   0.28904   0.00000  Uiso   1.00
H332   H     0.57878   0.90712   0.31228   0.00000  Uiso   1.00
O333   O     0.44370   0.77359   0.28120   0.00000  Uiso   1.00
H334   H     0.43225   0.78314   0.24970   0.00000  Uiso   1.00
O335   O     0.55630   0.89308   0.05213   0.00000  Uiso   1.00
H336   H     0.56775   0.88352   0.08364   0.00000  Uiso   1.00
C337   C     0.83441   0.75412   0.16634   0.00000  Uiso   1.00
C338   C     0.83226   0.91254   0.16699   0.00000  Uiso   1.00
C339   C     0.73490   0.83308   0.15506   0.00000  Uiso   1.00
C340   C     0.93176   0.83359   0.17828   0.00000  Uiso   1.00
C341   C     0.68039   0.82827   0.14910   0.00000  Uiso   1.00
C342   C     0.98628   0.83839   0.18423   0.00000  Uiso   1.00
C343   C     0.84987   0.68667   0.12783   0.00000  Uiso   1.00
C344   C     0.81679   0.98000   0.20551   0.00000  Uiso   1.00
C345   C     0.84825   0.97761   0.12939   0.00000  Uiso   1.00
C346   C     0.81841   0.68906   0.20394   0.00000  Uiso   1.00
C347   C     0.83203   0.95718   0.16773   0.00000  Uiso   1.00
C348   C     0.83464   0.70949   0.16560   0.00000  Uiso   1.00
C349   C     0.80467   0.80499   0.02221   0.00000  Uiso   1.00
C350   C     0.86199   0.86168   0.31112   0.00000  Uiso   1.00
C351   C     0.80487   0.80459   0.30590   0.00000  Uiso   1.00
C352   C     0.86180   0.86208   0.02744   0.00000  Uiso   1.00
Cu353  Cu    0.83333   0.83334   0.21355   0.00000  Uiso   1.00
Cu354  Cu    0.83333   0.83333   0.11978   0.00000  Uiso   1.00
H355   H     0.86062   0.96055   0.10046   0.00000  Uiso   1.00
H356   H     0.80605   0.70612   0.23287   0.00000  Uiso   1.00
N357   N     0.83335   0.83334   0.28403   0.00000  Uiso   1.00
N358   N     0.83332   0.83332   0.04931   0.00000  Uiso   1.00
O359   O     0.83333   0.77322   0.20625   0.00000  Uiso   1.00
O360   O     0.83334   0.89345   0.12709   0.00000  Uiso   1.00
O361   O     0.83333   0.77321   0.12706   0.00000  Uiso   1.00
O362   O     0.83334   0.89346   0.20628   0.00000  Uiso   1.00
O363   O     0.75828   0.83334   0.19712   0.00000  Uiso   1.00
O364   O     0.90839   0.83333   0.13621   0.00000  Uiso   1.00
O365   O     0.75828   0.83333   0.11793   0.00000  Uiso   1.00
O366   O     0.90839   0.83334   0.21540   0.00000  Uiso   1.00
I367   I     0.98484   0.79872   0.08353   0.00000  Uiso   1.00
I368   I     0.68183   0.86794   0.24980   0.00000  Uiso   1.00
I369   I     0.87829   0.71102   0.06732   0.00000  Uiso   1.00
I370   I     0.78838   0.95565   0.26601   0.00000  Uiso   1.00
O371   O     0.77512   0.77760   0.04429   0.00000  Uiso   1.00
H372   H     0.75455   0.75955   0.02105   0.00000  Uiso   1.00
O373   O     0.89155   0.88906   0.28904   0.00000  Uiso   1.00
H374   H     0.91211   0.90712   0.31228   0.00000  Uiso   1.00
O375   O     0.77703   0.77359   0.28120   0.00000  Uiso   1.00
H376   H     0.76559   0.78314   0.24970   0.00000  Uiso   1.00
O377   O     0.88963   0.89308   0.05213   0.00000  Uiso   1.00
H378   H     0.90108   0.88352   0.08364   0.00000  Uiso   1.00
C379   C     0.16774   0.08746   0.49968   0.00000  Uiso   1.00
C380   C     0.16559   0.24588   0.50032   0.00000  Uiso   1.00
C381   C     0.06824   0.16641   0.48839   0.00000  Uiso   1.00
C382   C     0.26510   0.16692   0.51161   0.00000  Uiso   1.00
C383   C     0.01372   0.16161   0.48244   0.00000  Uiso   1.00
C384   C     0.31961   0.17173   0.51756   0.00000  Uiso   1.00
C385   C     0.18321   0.02000   0.46116   0.00000  Uiso   1.00
C386   C     0.15013   0.31333   0.53884   0.00000  Uiso   1.00
C387   C     0.18159   0.31094   0.46272   0.00000  Uiso   1.00
C388   C     0.15174   0.02239   0.53728   0.00000  Uiso   1.00
C389   C     0.16536   0.29052   0.50106   0.00000  Uiso   1.00
C390   C     0.16797   0.04282   0.49894   0.00000  Uiso   1.00
C391   C     0.13801   0.13832   0.35555   0.00000  Uiso   1.00
C392   C     0.19533   0.19501   0.64445   0.00000  Uiso   1.00
C393   C     0.13820   0.13792   0.63923   0.00000  Uiso   1.00
C394   C     0.19513   0.19541   0.36077   0.00000  Uiso   1.00
Cu395  Cu    0.16667   0.16667   0.54689   0.00000  Uiso   1.00
Cu396  Cu    0.16667   0.16666   0.45311   0.00000  Uiso   1.00
H397   H     0.19395   0.29388   0.43379   0.00000  Uiso   1.00
H398   H     0.13938   0.03945   0.56621   0.00000  Uiso   1.00
N399   N     0.16668   0.16668   0.61736   0.00000  Uiso   1.00
N400   N     0.16665   0.16666   0.38264   0.00000  Uiso   1.00
O401   O     0.16666   0.10655   0.53958   0.00000  Uiso   1.00
O402   O     0.16667   0.22678   0.46042   0.00000  Uiso   1.00
O403   O     0.16666   0.10654   0.46039   0.00000  Uiso   1.00
O404   O     0.16667   0.22679   0.53961   0.00000  Uiso   1.00
O405   O     0.09161   0.16667   0.53046   0.00000  Uiso   1.00
O406   O     0.24172   0.16666   0.46954   0.00000  Uiso   1.00
O407   O     0.09161   0.16666   0.45127   0.00000  Uiso   1.00
O408   O     0.24172   0.16667   0.54873   0.00000  Uiso   1.00
I409   I     0.31817   0.13206   0.41686   0.00000  Uiso   1.00
I410   I     0.01516   0.20128   0.58314   0.00000  Uiso   1.00
I411   I     0.21162   0.04435   0.40065   0.00000  Uiso   1.00
I412   I     0.12171   0.28899   0.59935   0.00000  Uiso   1.00
O413   O     0.10845   0.11094   0.37763   0.00000  Uiso   1.00
H414   H     0.08789   0.09289   0.35438   0.00000  Uiso   1.00
O415   O     0.22488   0.22240   0.62237   0.00000  Uiso   1.00
H416   H     0.24545   0.24045   0.64562   0.00000  Uiso   1.00
O417   O     0.11036   0.10692   0.61453   0.00000  Uiso   1.00
H418   H     0.09892   0.11648   0.58303   0.00000  Uiso   1.00
O419   O     0.22297   0.22641   0.38547   0.00000  Uiso   1.00
H420   H     0.23441   0.21686   0.41697   0.00000  Uiso   1.00
C421   C     0.50107   0.08746   0.49968   0.00000  Uiso   1.00
C422   C     0.49893   0.24588   0.50032   0.00000  Uiso   1.00
C423   C     0.40157   0.16641   0.48839   0.00000  Uiso   1.00
C424   C     0.59843   0.16692   0.51161   0.00000  Uiso   1.00
C425   C     0.34706   0.16161   0.48244   0.00000  Uiso   1.00
C426   C     0.65294   0.17173   0.51756   0.00000  Uiso   1.00
C427   C     0.51654   0.02000   0.46116   0.00000  Uiso   1.00
C428   C     0.48346   0.31333   0.53884   0.00000  Uiso   1.00
C429   C     0.51492   0.31094   0.46272   0.00000  Uiso   1.00
C430   C     0.48508   0.02239   0.53728   0.00000  Uiso   1.00
C431   C     0.49869   0.29052   0.50106   0.00000  Uiso   1.00
C432   C     0.50131   0.04282   0.49894   0.00000  Uiso   1.00
C433   C     0.47134   0.13832   0.35555   0.00000  Uiso   1.00
C434   C     0.52866   0.19501   0.64445   0.00000  Uiso   1.00
C435   C     0.47153   0.13792   0.63923   0.00000  Uiso   1.00
C436   C     0.52847   0.19541   0.36077   0.00000  Uiso   1.00
Cu437  Cu    0.50000   0.16667   0.54689   0.00000  Uiso   1.00
Cu438  Cu    0.50000   0.16666   0.45311   0.00000  Uiso   1.00
H439   H     0.52729   0.29388   0.43379   0.00000  Uiso   1.00
H440   H     0.47271   0.03945   0.56621   0.00000  Uiso   1.00
N441   N     0.50001   0.16668   0.61736   0.00000  Uiso   1.00
N442   N     0.49999   0.16666   0.38264   0.00000  Uiso   1.00
O443   O     0.50000   0.10655   0.53958   0.00000  Uiso   1.00
O444   O     0.50000   0.22678   0.46042   0.00000  Uiso   1.00
O445   O     0.50000   0.10654   0.46039   0.00000  Uiso   1.00
O446   O     0.50000   0.22679   0.53961   0.00000  Uiso   1.00
O447   O     0.42495   0.16667   0.53046   0.00000  Uiso   1.00
O448   O     0.57505   0.16666   0.46954   0.00000  Uiso   1.00
O449   O     0.42494   0.16666   0.45127   0.00000  Uiso   1.00
O450   O     0.57506   0.16667   0.54873   0.00000  Uiso   1.00
I451   I     0.65150   0.13206   0.41686   0.00000  Uiso   1.00
I452   I     0.34850   0.20128   0.58314   0.00000  Uiso   1.00
I453   I     0.54496   0.04435   0.40065   0.00000  Uiso   1.00
I454   I     0.45504   0.28899   0.59935   0.00000  Uiso   1.00
O455   O     0.44179   0.11094   0.37763   0.00000  Uiso   1.00
H456   H     0.42122   0.09289   0.35438   0.00000  Uiso   1.00
O457   O     0.55821   0.22240   0.62237   0.00000  Uiso   1.00
H458   H     0.57878   0.24045   0.64562   0.00000  Uiso   1.00
O459   O     0.44370   0.10692   0.61453   0.00000  Uiso   1.00
H460   H     0.43225   0.11648   0.58303   0.00000  Uiso   1.00
O461   O     0.55630   0.22641   0.38547   0.00000  Uiso   1.00
H462   H     0.56775   0.21686   0.41697   0.00000  Uiso   1.00
C463   C     0.83441   0.08746   0.49968   0.00000  Uiso   1.00
C464   C     0.83226   0.24588   0.50032   0.00000  Uiso   1.00
C465   C     0.73490   0.16641   0.48839   0.00000  Uiso   1.00
C466   C     0.93176   0.16692   0.51161   0.00000  Uiso   1.00
C467   C     0.68039   0.16161   0.48244   0.00000  Uiso   1.00
C468   C     0.98628   0.17173   0.51756   0.00000  Uiso   1.00
C469   C     0.84987   0.02000   0.46116   0.00000  Uiso   1.00
C470   C     0.81679   0.31333   0.53884   0.00000  Uiso   1.00
C471   C     0.84825   0.31094   0.46272   0.00000  Uiso   1.00
C472   C     0.81841   0.02239   0.53728   0.00000  Uiso   1.00
C473   C     0.83203   0.29052   0.50106   0.00000  Uiso   1.00
C474   C     0.83464   0.04282   0.49894   0.00000  Uiso   1.00
C475   C     0.80467   0.13832   0.35555   0.00000  Uiso   1.00
C476   C     0.86199   0.19501   0.64445   0.00000  Uiso   1.00
C477   C     0.80487   0.13792   0.63923   0.00000  Uiso   1.00
C478   C     0.86180   0.19541   0.36077   0.00000  Uiso   1.00
Cu479  Cu    0.83333   0.16667   0.54689   0.00000  Uiso   1.00
Cu480  Cu    0.83333   0.16666   0.45311   0.00000  Uiso   1.00
H481   H     0.86062   0.29388   0.43379   0.00000  Uiso   1.00
H482   H     0.80605   0.03945   0.56621   0.00000  Uiso   1.00
N483   N     0.83335   0.16668   0.61736   0.00000  Uiso   1.00
N484   N     0.83332   0.16666   0.38264   0.00000  Uiso   1.00
O485   O     0.83333   0.10655   0.53958   0.00000  Uiso   1.00
O486   O     0.83334   0.22678   0.46042   0.00000  Uiso   1.00
O487   O     0.83333   0.10654   0.46039   0.00000  Uiso   1.00
O488   O     0.83334   0.22679   0.53961   0.00000  Uiso   1.00
O489   O     0.75828   0.16667   0.53046   0.00000  Uiso   1.00
O490   O     0.90839   0.16666   0.46954   0.00000  Uiso   1.00
O491   O     0.75828   0.16666   0.45127   0.00000  Uiso   1.00
O492   O     0.90839   0.16667   0.54873   0.00000  Uiso   1.00
I493   I     0.98484   0.13206   0.41686   0.00000  Uiso   1.00
I494   I     0.68183   0.20128   0.58314   0.00000  Uiso   1.00
I495   I     0.87829   0.04435   0.40065   0.00000  Uiso   1.00
I496   I     0.78838   0.28899   0.59935   0.00000  Uiso   1.00
O497   O     0.77512   0.11094   0.37763   0.00000  Uiso   1.00
H498   H     0.75455   0.09289   0.35438   0.00000  Uiso   1.00
O499   O     0.89155   0.22240   0.62237   0.00000  Uiso   1.00
H500   H     0.91211   0.24045   0.64562   0.00000  Uiso   1.00
O501   O     0.77703   0.10692   0.61453   0.00000  Uiso   1.00
H502   H     0.76559   0.11648   0.58303   0.00000  Uiso   1.00
O503   O     0.88963   0.22641   0.38547   0.00000  Uiso   1.00
H504   H     0.90108   0.21686   0.41697   0.00000  Uiso   1.00
C505   C     0.16774   0.42079   0.49968   0.00000  Uiso   1.00
C506   C     0.16559   0.57921   0.50032   0.00000  Uiso   1.00
C507   C     0.06824   0.49974   0.48839   0.00000  Uiso   1.00
C508   C     0.26510   0.50026   0.51161   0.00000  Uiso   1.00
C509   C     0.01372   0.49494   0.48244   0.00000  Uiso   1.00
C510   C     0.31961   0.50506   0.51756   0.00000  Uiso   1.00
C511   C     0.18321   0.35334   0.46116   0.00000  Uiso   1.00
C512   C     0.15013   0.64666   0.53884   0.00000  Uiso   1.00
C513   C     0.18159   0.64428   0.46272   0.00000  Uiso   1.00
C514   C     0.15174   0.35572   0.53728   0.00000  Uiso   1.00
C515   C     0.16536   0.62385   0.50106   0.00000  Uiso   1.00
C516   C     0.16797   0.37615   0.49894   0.00000  Uiso   1.00
C517   C     0.13801   0.47165   0.35555   0.00000  Uiso   1.00
C518   C     0.19533   0.52835   0.64445   0.00000  Uiso   1.00
C519   C     0.13820   0.47126   0.63923   0.00000  Uiso   1.00
C520   C     0.19513   0.52874   0.36077   0.00000  Uiso   1.00
Cu521  Cu    0.16667   0.50001   0.54689   0.00000  Uiso   1.00
Cu522  Cu    0.16667   0.49999   0.45311   0.00000  Uiso   1.00
H523   H     0.19395   0.62721   0.43379   0.00000  Uiso   1.00
H524   H     0.13938   0.37279   0.56621   0.00000  Uiso   1.00
N525   N     0.16668   0.50001   0.61736   0.00000  Uiso   1.00
N526   N     0.16665   0.49999   0.38264   0.00000  Uiso   1.00
O527   O     0.16666   0.43989   0.53958   0.00000  Uiso   1.00
O528   O     0.16667   0.56011   0.46042   0.00000  Uiso   1.00
O529   O     0.16666   0.43988   0.46039   0.00000  Uiso   1.00
O530   O     0.16667   0.56012   0.53961   0.00000  Uiso   1.00
O531   O     0.09161   0.50000   0.53046   0.00000  Uiso   1.00
O532   O     0.24172   0.50000   0.46954   0.00000  Uiso   1.00
O533   O     0.09161   0.49999   0.45127   0.00000  Uiso   1.00
O534   O     0.24172   0.50001   0.54873   0.00000  Uiso   1.00
I535   I     0.31817   0.46539   0.41686   0.00000  Uiso   1.00
I536   I     0.01516   0.53461   0.58314   0.00000  Uiso   1.00
I537   I     0.21162   0.37768   0.40065   0.00000  Uiso   1.00
I538   I     0.12171   0.62232   0.59935   0.00000  Uiso   1.00
O539   O     0.10845   0.44427   0.37763   0.00000  Uiso   1.00
H540   H     0.08789   0.42622   0.35438   0.00000  Uiso   1.00
O541   O     0.22488   0.55573   0.62237   0.00000  Uiso   1.00
H542   H     0.24545   0.57378   0.64562   0.00000  Uiso   1.00
O543   O     0.11036   0.44025   0.61453   0.00000  Uiso   1.00
H544   H     0.09892   0.44981   0.58303   0.00000  Uiso   1.00
O545   O     0.22297   0.55975   0.38547   0.00000  Uiso   1.00
H546   H     0.23441   0.55019   0.41697   0.00000  Uiso   1.00
C547   C     0.50107   0.42079   0.49968   0.00000  Uiso   1.00
C548   C     0.49893   0.57921   0.50032   0.00000  Uiso   1.00
C549   C     0.40157   0.49974   0.48839   0.00000  Uiso   1.00
C550   C     0.59843   0.50026   0.51161   0.00000  Uiso   1.00
C551   C     0.34706   0.49494   0.48244   0.00000  Uiso   1.00
C552   C     0.65294   0.50506   0.51756   0.00000  Uiso   1.00
C553   C     0.51654   0.35334   0.46116   0.00000  Uiso   1.00
C554   C     0.48346   0.64666   0.53884   0.00000  Uiso   1.00
C555   C     0.51492   0.64428   0.46272   0.00000  Uiso   1.00
C556   C     0.48508   0.35572   0.53728   0.00000  Uiso   1.00
C557   C     0.49869   0.62385   0.50106   0.00000  Uiso   1.00
C558   C     0.50131   0.37615   0.49894   0.00000  Uiso   1.00
C559   C     0.47134   0.47165   0.35555   0.00000  Uiso   1.00
C560   C     0.52866   0.52835   0.64445   0.00000  Uiso   1.00
C561   C     0.47153   0.47126   0.63923   0.00000  Uiso   1.00
C562   C     0.52847   0.52874   0.36077   0.00000  Uiso   1.00
Cu563  Cu    0.50000   0.50001   0.54689   0.00000  Uiso   1.00
Cu564  Cu    0.50000   0.49999   0.45311   0.00000  Uiso   1.00
H565   H     0.52729   0.62721   0.43379   0.00000  Uiso   1.00
H566   H     0.47271   0.37279   0.56621   0.00000  Uiso   1.00
N567   N     0.50001   0.50001   0.61736   0.00000  Uiso   1.00
N568   N     0.49999   0.49999   0.38264   0.00000  Uiso   1.00
O569   O     0.50000   0.43989   0.53958   0.00000  Uiso   1.00
O570   O     0.50000   0.56011   0.46042   0.00000  Uiso   1.00
O571   O     0.50000   0.43988   0.46039   0.00000  Uiso   1.00
O572   O     0.50000   0.56012   0.53961   0.00000  Uiso   1.00
O573   O     0.42495   0.50000   0.53046   0.00000  Uiso   1.00
O574   O     0.57505   0.50000   0.46954   0.00000  Uiso   1.00
O575   O     0.42494   0.49999   0.45127   0.00000  Uiso   1.00
O576   O     0.57506   0.50001   0.54873   0.00000  Uiso   1.00
I577   I     0.65150   0.46539   0.41686   0.00000  Uiso   1.00
I578   I     0.34850   0.53461   0.58314   0.00000  Uiso   1.00
I579   I     0.54496   0.37768   0.40065   0.00000  Uiso   1.00
I580   I     0.45504   0.62232   0.59935   0.00000  Uiso   1.00
O581   O     0.44179   0.44427   0.37763   0.00000  Uiso   1.00
H582   H     0.42122   0.42622   0.35438   0.00000  Uiso   1.00
O583   O     0.55821   0.55573   0.62237   0.00000  Uiso   1.00
H584   H     0.57878   0.57378   0.64562   0.00000  Uiso   1.00
O585   O     0.44370   0.44025   0.61453   0.00000  Uiso   1.00
H586   H     0.43225   0.44981   0.58303   0.00000  Uiso   1.00
O587   O     0.55630   0.55975   0.38547   0.00000  Uiso   1.00
H588   H     0.56775   0.55019   0.41697   0.00000  Uiso   1.00
C589   C     0.83441   0.42079   0.49968   0.00000  Uiso   1.00
C590   C     0.83226   0.57921   0.50032   0.00000  Uiso   1.00
C591   C     0.73490   0.49974   0.48839   0.00000  Uiso   1.00
C592   C     0.93176   0.50026   0.51161   0.00000  Uiso   1.00
C593   C     0.68039   0.49494   0.48244   0.00000  Uiso   1.00
C594   C     0.98628   0.50506   0.51756   0.00000  Uiso   1.00
C595   C     0.84987   0.35334   0.46116   0.00000  Uiso   1.00
C596   C     0.81679   0.64666   0.53884   0.00000  Uiso   1.00
C597   C     0.84825   0.64428   0.46272   0.00000  Uiso   1.00
C598   C     0.81841   0.35572   0.53728   0.00000  Uiso   1.00
C599   C     0.83203   0.62385   0.50106   0.00000  Uiso   1.00
C600   C     0.83464   0.37615   0.49894   0.00000  Uiso   1.00
C601   C     0.80467   0.47165   0.35555   0.00000  Uiso   1.00
C602   C     0.86199   0.52835   0.64445   0.00000  Uiso   1.00
C603   C     0.80487   0.47126   0.63923   0.00000  Uiso   1.00
C604   C     0.86180   0.52874   0.36077   0.00000  Uiso   1.00
Cu605  Cu    0.83333   0.50001   0.54689   0.00000  Uiso   1.00
Cu606  Cu    0.83333   0.49999   0.45311   0.00000  Uiso   1.00
H607   H     0.86062   0.62721   0.43379   0.00000  Uiso   1.00
H608   H     0.80605   0.37279   0.56621   0.00000  Uiso   1.00
N609   N     0.83335   0.50001   0.61736   0.00000  Uiso   1.00
N610   N     0.83332   0.49999   0.38264   0.00000  Uiso   1.00
O611   O     0.83333   0.43989   0.53958   0.00000  Uiso   1.00
O612   O     0.83334   0.56011   0.46042   0.00000  Uiso   1.00
O613   O     0.83333   0.43988   0.46039   0.00000  Uiso   1.00
O614   O     0.83334   0.56012   0.53961   0.00000  Uiso   1.00
O615   O     0.75828   0.50000   0.53046   0.00000  Uiso   1.00
O616   O     0.90839   0.50000   0.46954   0.00000  Uiso   1.00
O617   O     0.75828   0.49999   0.45127   0.00000  Uiso   1.00
O618   O     0.90839   0.50001   0.54873   0.00000  Uiso   1.00
I619   I     0.98484   0.46539   0.41686   0.00000  Uiso   1.00
I620   I     0.68183   0.53461   0.58314   0.00000  Uiso   1.00
I621   I     0.87829   0.37768   0.40065   0.00000  Uiso   1.00
I622   I     0.78838   0.62232   0.59935   0.00000  Uiso   1.00
O623   O     0.77512   0.44427   0.37763   0.00000  Uiso   1.00
H624   H     0.75455   0.42622   0.35438   0.00000  Uiso   1.00
O625   O     0.89155   0.55573   0.62237   0.00000  Uiso   1.00
H626   H     0.91211   0.57378   0.64562   0.00000  Uiso   1.00
O627   O     0.77703   0.44025   0.61453   0.00000  Uiso   1.00
H628   H     0.76559   0.44981   0.58303   0.00000  Uiso   1.00
O629   O     0.88963   0.55975   0.38547   0.00000  Uiso   1.00
H630   H     0.90108   0.55019   0.41697   0.00000  Uiso   1.00
C631   C     0.16774   0.75412   0.49968   0.00000  Uiso   1.00
C632   C     0.16559   0.91254   0.50032   0.00000  Uiso   1.00
C633   C     0.06824   0.83308   0.48839   0.00000  Uiso   1.00
C634   C     0.26510   0.83359   0.51161   0.00000  Uiso   1.00
C635   C     0.01372   0.82827   0.48244   0.00000  Uiso   1.00
C636   C     0.31961   0.83839   0.51756   0.00000  Uiso   1.00
C637   C     0.18321   0.68667   0.46116   0.00000  Uiso   1.00
C638   C     0.15013   0.98000   0.53884   0.00000  Uiso   1.00
C639   C     0.18159   0.97761   0.46272   0.00000  Uiso   1.00
C640   C     0.15174   0.68906   0.53728   0.00000  Uiso   1.00
C641   C     0.16536   0.95718   0.50106   0.00000  Uiso   1.00
C642   C     0.16797   0.70949   0.49894   0.00000  Uiso   1.00
C643   C     0.13801   0.80499   0.35555   0.00000  Uiso   1.00
C644   C     0.19533   0.86168   0.64445   0.00000  Uiso   1.00
C645   C     0.13820   0.80459   0.63923   0.00000  Uiso   1.00
C646   C     0.19513   0.86208   0.36077   0.00000  Uiso   1.00
Cu647  Cu    0.16667   0.83334   0.54689   0.00000  Uiso   1.00
Cu648  Cu    0.16667   0.83333   0.45311   0.00000  Uiso   1.00
H649   H     0.19395   0.96055   0.43379   0.00000  Uiso   1.00
H650   H     0.13938   0.70612   0.56621   0.00000  Uiso   1.00
N651   N     0.16668   0.83334   0.61736   0.00000  Uiso   1.00
N652   N     0.16665   0.83332   0.38264   0.00000  Uiso   1.00
O653   O     0.16666   0.77322   0.53958   0.00000  Uiso   1.00
O654   O     0.16667   0.89345   0.46042   0.00000  Uiso   1.00
O655   O     0.16666   0.77321   0.46039   0.00000  Uiso   1.00
O656   O     0.16667   0.89346   0.53961   0.00000  Uiso   1.00
O657   O     0.09161   0.83334   0.53046   0.00000  Uiso   1.00
O658   O     0.24172   0.83333   0.46954   0.00000  Uiso   1.00
O659   O     0.09161   0.83333   0.45127   0.00000  Uiso   1.00
O660   O     0.24172   0.83334   0.54873   0.00000  Uiso   1.00
I661   I     0.31817   0.79872   0.41686   0.00000  Uiso   1.00
I662   I     0.01516   0.86794   0.58314   0.00000  Uiso   1.00
I663   I     0.21162   0.71102   0.40065   0.00000  Uiso   1.00
I664   I     0.12171   0.95565   0.59935   0.00000  Uiso   1.00
O665   O     0.10845   0.77760   0.37763   0.00000  Uiso   1.00
H666   H     0.08789   0.75955   0.35438   0.00000  Uiso   1.00
O667   O     0.22488   0.88906   0.62237   0.00000  Uiso   1.00
H668   H     0.24545   0.90712   0.64562   0.00000  Uiso   1.00
O669   O     0.11036   0.77359   0.61453   0.00000  Uiso   1.00
H670   H     0.09892   0.78314   0.58303   0.00000  Uiso   1.00
O671   O     0.22297   0.89308   0.38547   0.00000  Uiso   1.00
H672   H     0.23441   0.88352   0.41697   0.00000  Uiso   1.00
C673   C     0.50107   0.75412   0.49968   0.00000  Uiso   1.00
C674   C     0.49893   0.91254   0.50032   0.00000  Uiso   1.00
C675   C     0.40157   0.83308   0.48839   0.00000  Uiso   1.00
C676   C     0.59843   0.83359   0.51161   0.00000  Uiso   1.00
C677   C     0.34706   0.82827   0.48244   0.00000  Uiso   1.00
C678   C     0.65294   0.83839   0.51756   0.00000  Uiso   1.00
C679   C     0.51654   0.68667   0.46116   0.00000  Uiso   1.00
C680   C     0.48346   0.98000   0.53884   0.00000  Uiso   1.00
C681   C     0.51492   0.97761   0.46272   0.00000  Uiso   1.00
C682   C     0.48508   0.68906   0.53728   0.00000  Uiso   1.00
C683   C     0.49869   0.95718   0.50106   0.00000  Uiso   1.00
C684   C     0.50131   0.70949   0.49894   0.00000  Uiso   1.00
C685   C     0.47134   0.80499   0.35555   0.00000  Uiso   1.00
C686   C     0.52866   0.86168   0.64445   0.00000  Uiso   1.00
C687   C     0.47153   0.80459   0.63923   0.00000  Uiso   1.00
C688   C     0.52847   0.86208   0.36077   0.00000  Uiso   1.00
Cu689  Cu    0.50000   0.83334   0.54689   0.00000  Uiso   1.00
Cu690  Cu    0.50000   0.83333   0.45311   0.00000  Uiso   1.00
H691   H     0.52729   0.96055   0.43379   0.00000  Uiso   1.00
H692   H     0.47271   0.70612   0.56621   0.00000  Uiso   1.00
N693   N     0.50001   0.83334   0.61736   0.00000  Uiso   1.00
N694   N     0.49999   0.83332   0.38264   0.00000  Uiso   1.00
O695   O     0.50000   0.77322   0.53958   0.00000  Uiso   1.00
O696   O     0.50000   0.89345   0.46042   0.00000  Uiso   1.00
O697   O     0.50000   0.77321   0.46039   0.00000  Uiso   1.00
O698   O     0.50000   0.89346   0.53961   0.00000  Uiso   1.00
O699   O     0.42495   0.83334   0.53046   0.00000  Uiso   1.00
O700   O     0.57505   0.83333   0.46954   0.00000  Uiso   1.00
O701   O     0.42494   0.83333   0.45127   0.00000  Uiso   1.00
O702   O     0.57506   0.83334   0.54873   0.00000  Uiso   1.00
I703   I     0.65150   0.79872   0.41686   0.00000  Uiso   1.00
I704   I     0.34850   0.86794   0.58314   0.00000  Uiso   1.00
I705   I     0.54496   0.71102   0.40065   0.00000  Uiso   1.00
I706   I     0.45504   0.95565   0.59935   0.00000  Uiso   1.00
O707   O     0.44179   0.77760   0.37763   0.00000  Uiso   1.00
H708   H     0.42122   0.75955   0.35438   0.00000  Uiso   1.00
O709   O     0.55821   0.88906   0.62237   0.00000  Uiso   1.00
H710   H     0.57878   0.90712   0.64562   0.00000  Uiso   1.00
O711   O     0.44370   0.77359   0.61453   0.00000  Uiso   1.00
H712   H     0.43225   0.78314   0.58303   0.00000  Uiso   1.00
O713   O     0.55630   0.89308   0.38547   0.00000  Uiso   1.00
H714   H     0.56775   0.88352   0.41697   0.00000  Uiso   1.00
C715   C     0.83441   0.75412   0.49968   0.00000  Uiso   1.00
C716   C     0.83226   0.91254   0.50032   0.00000  Uiso   1.00
C717   C     0.73490   0.83308   0.48839   0.00000  Uiso   1.00
C718   C     0.93176   0.83359   0.51161   0.00000  Uiso   1.00
C719   C     0.68039   0.82827   0.48244   0.00000  Uiso   1.00
C720   C     0.98628   0.83839   0.51756   0.00000  Uiso   1.00
C721   C     0.84987   0.68667   0.46116   0.00000  Uiso   1.00
C722   C     0.81679   0.98000   0.53884   0.00000  Uiso   1.00
C723   C     0.84825   0.97761   0.46272   0.00000  Uiso   1.00
C724   C     0.81841   0.68906   0.53728   0.00000  Uiso   1.00
C725   C     0.83203   0.95718   0.50106   0.00000  Uiso   1.00
C726   C     0.83464   0.70949   0.49894   0.00000  Uiso   1.00
C727   C     0.80467   0.80499   0.35555   0.00000  Uiso   1.00
C728   C     0.86199   0.86168   0.64445   0.00000  Uiso   1.00
C729   C     0.80487   0.80459   0.63923   0.00000  Uiso   1.00
C730   C     0.86180   0.86208   0.36077   0.00000  Uiso   1.00
Cu731  Cu    0.83333   0.83334   0.54689   0.00000  Uiso   1.00
Cu732  Cu    0.83333   0.83333   0.45311   0.00000  Uiso   1.00
H733   H     0.86062   0.96055   0.43379   0.00000  Uiso   1.00
H734   H     0.80605   0.70612   0.56621   0.00000  Uiso   1.00
N735   N     0.83335   0.83334   0.61736   0.00000  Uiso   1.00
N736   N     0.83332   0.83332   0.38264   0.00000  Uiso   1.00
O737   O     0.83333   0.77322   0.53958   0.00000  Uiso   1.00
O738   O     0.83334   0.89345   0.46042   0.00000  Uiso   1.00
O739   O     0.83333   0.77321   0.46039   0.00000  Uiso   1.00
O740   O     0.83334   0.89346   0.53961   0.00000  Uiso   1.00
O741   O     0.75828   0.83334   0.53046   0.00000  Uiso   1.00
O742   O     0.90839   0.83333   0.46954   0.00000  Uiso   1.00
O743   O     0.75828   0.83333   0.45127   0.00000  Uiso   1.00
O744   O     0.90839   0.83334   0.54873   0.00000  Uiso   1.00
I745   I     0.98484   0.79872   0.41686   0.00000  Uiso   1.00
I746   I     0.68183   0.86794   0.58314   0.00000  Uiso   1.00
I747   I     0.87829   0.71102   0.40065   0.00000  Uiso   1.00
I748   I     0.78838   0.95565   0.59935   0.00000  Uiso   1.00
O749   O     0.77512   0.77760   0.37763   0.00000  Uiso   1.00
H750   H     0.75455   0.75955   0.35438   0.00000  Uiso   1.00
O751   O     0.89155   0.88906   0.62237   0.00000  Uiso   1.00
H752   H     0.91211   0.90712   0.64562   0.00000  Uiso   1.00
O753   O     0.77703   0.77359   0.61453   0.00000  Uiso   1.00
H754   H     0.76559   0.78314   0.58303   0.00000  Uiso   1.00
O755   O     0.88963   0.89308   0.38547   0.00000  Uiso   1.00
H756   H     0.90108   0.88352   0.41697   0.00000  Uiso   1.00
C757   C     0.16774   0.08746   0.83301   0.00000  Uiso   1.00
C758   C     0.16559   0.24588   0.83366   0.00000  Uiso   1.00
C759   C     0.06824   0.16641   0.82172   0.00000  Uiso   1.00
C760   C     0.26510   0.16692   0.84494   0.00000  Uiso   1.00
C761   C     0.01372   0.16161   0.81577   0.00000  Uiso   1.00
C762   C     0.31961   0.17173   0.85090   0.00000  Uiso   1.00
C763   C     0.18321   0.02000   0.79449   0.00000  Uiso   1.00
C764   C     0.15013   0.31333   0.87217   0.00000  Uiso   1.00
C765   C     0.18159   0.31094   0.79606   0.00000  Uiso   1.00
C766   C     0.15174   0.02239   0.87061   0.00000  Uiso   1.00
C767   C     0.16536   0.29052   0.83440   0.00000  Uiso   1.00
C768   C     0.16797   0.04282   0.83227   0.00000  Uiso   1.00
C769   C     0.13801   0.13832   0.68888   0.00000  Uiso   1.00
C770   C     0.19533   0.19501   0.97779   0.00000  Uiso   1.00
C771   C     0.13820   0.13792   0.97256   0.00000  Uiso   1.00
C772   C     0.19513   0.19541   0.69410   0.00000  Uiso   1.00
Cu773  Cu    0.16667   0.16667   0.88022   0.00000  Uiso   1.00
Cu774  Cu    0.16667   0.16666   0.78645   0.00000  Uiso   1.00
H775   H     0.19395   0.29388   0.76713   0.00000  Uiso   1.00
H776   H     0.13938   0.03945   0.89954   0.00000  Uiso   1.00
N777   N     0.16668   0.16668   0.95069   0.00000  Uiso   1.00
N778   N     0.16665   0.16666   0.71597   0.00000  Uiso   1.00
O779   O     0.16666   0.10655   0.87291   0.00000  Uiso   1.00
O780   O     0.16667   0.22678   0.79375   0.00000  Uiso   1.00
O781   O     0.16666   0.10654   0.79372   0.00000  Uiso   1.00
O782   O     0.16667   0.22679   0.87294   0.00000  Uiso   1.00
O783   O     0.09161   0.16667   0.86379   0.00000  Uiso   1.00
O784   O     0.24172   0.16666   0.80288   0.00000  Uiso   1.00
O785   O     0.09161   0.16666   0.78460   0.00000  Uiso   1.00
O786   O     0.24172   0.16667   0.88207   0.00000  Uiso   1.00
I787   I     0.31817   0.13206   0.75020   0.00000  Uiso   1.00
I788   I     0.01516   0.20128   0.91647   0.00000  Uiso   1.00
I789   I     0.21162   0.04435   0.73399   0.00000  Uiso   1.00
I790   I     0.12171   0.28899   0.93268   0.00000  Uiso   1.00
O791   O     0.10845   0.11094   0.71096   0.00000  Uiso   1.00
H792   H     0.08789   0.09289   0.68772   0.00000  Uiso   1.00
O793   O     0.22488   0.22240   0.95571   0.00000  Uiso   1.00
H794   H     0.24545   0.24045   0.97895   0.00000  Uiso   1.00
O795   O     0.11036   0.10692   0.94787   0.00000  Uiso   1.00
H796   H     0.09892   0.11648   0.91636   0.00000  Uiso   1.00
O797   O     0.22297   0.22641   0.71880   0.00000  Uiso   1.00
H798   H     0.23441   0.21686   0.75030   0.00000  Uiso   1.00
C799   C     0.50107   0.08746   0.83301   0.00000  Uiso   1.00
C800   C     0.49893   0.24588   0.83366   0.00000  Uiso   1.00
C801   C     0.40157   0.16641   0.82172   0.00000  Uiso   1.00
C802   C     0.59843   0.16692   0.84494   0.00000  Uiso   1.00
C803   C     0.34706   0.16161   0.81577   0.00000  Uiso   1.00
C804   C     0.65294   0.17173   0.85090   0.00000  Uiso   1.00
C805   C     0.51654   0.02000   0.79449   0.00000  Uiso   1.00
C806   C     0.48346   0.31333   0.87217   0.00000  Uiso   1.00
C807   C     0.51492   0.31094   0.79606   0.00000  Uiso   1.00
C808   C     0.48508   0.02239   0.87061   0.00000  Uiso   1.00
C809   C     0.49869   0.29052   0.83440   0.00000  Uiso   1.00
C810   C     0.50131   0.04282   0.83227   0.00000  Uiso   1.00
C811   C     0.47134   0.13832   0.68888   0.00000  Uiso   1.00
C812   C     0.52866   0.19501   0.97779   0.00000  Uiso   1.00
C813   C     0.47153   0.13792   0.97256   0.00000  Uiso   1.00
C814   C     0.52847   0.19541   0.69410   0.00000  Uiso   1.00
Cu815  Cu    0.50000   0.16667   0.88022   0.00000  Uiso   1.00
Cu816  Cu    0.50000   0.16666   0.78645   0.00000  Uiso   1.00
H817   H     0.52729   0.29388   0.76713   0.00000  Uiso   1.00
H818   H     0.47271   0.03945   0.89954   0.00000  Uiso   1.00
N819   N     0.50001   0.16668   0.95069   0.00000  Uiso   1.00
N820   N     0.49999   0.16666   0.71597   0.00000  Uiso   1.00
O821   O     0.50000   0.10655   0.87291   0.00000  Uiso   1.00
O822   O     0.50000   0.22678   0.79375   0.00000  Uiso   1.00
O823   O     0.50000   0.10654   0.79372   0.00000  Uiso   1.00
O824   O     0.50000   0.22679   0.87294   0.00000  Uiso   1.00
O825   O     0.42495   0.16667   0.86379   0.00000  Uiso   1.00
O826   O     0.57505   0.16666   0.80288   0.00000  Uiso   1.00
O827   O     0.42494   0.16666   0.78460   0.00000  Uiso   1.00
O828   O     0.57506   0.16667   0.88207   0.00000  Uiso   1.00
I829   I     0.65150   0.13206   0.75020   0.00000  Uiso   1.00
I830   I     0.34850   0.20128   0.91647   0.00000  Uiso   1.00
I831   I     0.54496   0.04435   0.73399   0.00000  Uiso   1.00
I832   I     0.45504   0.28899   0.93268   0.00000  Uiso   1.00
O833   O     0.44179   0.11094   0.71096   0.00000  Uiso   1.00
H834   H     0.42122   0.09289   0.68772   0.00000  Uiso   1.00
O835   O     0.55821   0.22240   0.95571   0.00000  Uiso   1.00
H836   H     0.57878   0.24045   0.97895   0.00000  Uiso   1.00
O837   O     0.44370   0.10692   0.94787   0.00000  Uiso   1.00
H838   H     0.43225   0.11648   0.91636   0.00000  Uiso   1.00
O839   O     0.55630   0.22641   0.71880   0.00000  Uiso   1.00
H840   H     0.56775   0.21686   0.75030   0.00000  Uiso   1.00
C841   C     0.83441   0.08746   0.83301   0.00000  Uiso   1.00
C842   C     0.83226   0.24588   0.83366   0.00000  Uiso   1.00
C843   C     0.73490   0.16641   0.82172   0.00000  Uiso   1.00
C844   C     0.93176   0.16692   0.84494   0.00000  Uiso   1.00
C845   C     0.68039   0.16161   0.81577   0.00000  Uiso   1.00
C846   C     0.98628   0.17173   0.85090   0.00000  Uiso   1.00
C847   C     0.84987   0.02000   0.79449   0.00000  Uiso   1.00
C848   C     0.81679   0.31333   0.87217   0.00000  Uiso   1.00
C849   C     0.84825   0.31094   0.79606   0.00000  Uiso   1.00
C850   C     0.81841   0.02239   0.87061   0.00000  Uiso   1.00
C851   C     0.83203   0.29052   0.83440   0.00000  Uiso   1.00
C852   C     0.83464   0.04282   0.83227   0.00000  Uiso   1.00
C853   C     0.80467   0.13832   0.68888   0.00000  Uiso   1.00
C854   C     0.86199   0.19501   0.97779   0.00000  Uiso   1.00
C855   C     0.80487   0.13792   0.97256   0.00000  Uiso   1.00
C856   C     0.86180   0.19541   0.69410   0.00000  Uiso   1.00
Cu857  Cu    0.83333   0.16667   0.88022   0.00000  Uiso   1.00
Cu858  Cu    0.83333   0.16666   0.78645   0.00000  Uiso   1.00
H859   H     0.86062   0.29388   0.76713   0.00000  Uiso   1.00
H860   H     0.80605   0.03945   0.89954   0.00000  Uiso   1.00
N861   N     0.83335   0.16668   0.95069   0.00000  Uiso   1.00
N862   N     0.83332   0.16666   0.71597   0.00000  Uiso   1.00
O863   O     0.83333   0.10655   0.87291   0.00000  Uiso   1.00
O864   O     0.83334   0.22678   0.79375   0.00000  Uiso   1.00
O865   O     0.83333   0.10654   0.79372   0.00000  Uiso   1.00
O866   O     0.83334   0.22679   0.87294   0.00000  Uiso   1.00
O867   O     0.75828   0.16667   0.86379   0.00000  Uiso   1.00
O868   O     0.90839   0.16666   0.80288   0.00000  Uiso   1.00
O869   O     0.75828   0.16666   0.78460   0.00000  Uiso   1.00
O870   O     0.90839   0.16667   0.88207   0.00000  Uiso   1.00
I871   I     0.98484   0.13206   0.75020   0.00000  Uiso   1.00
I872   I     0.68183   0.20128   0.91647   0.00000  Uiso   1.00
I873   I     0.87829   0.04435   0.73399   0.00000  Uiso   1.00
I874   I     0.78838   0.28899   0.93268   0.00000  Uiso   1.00
O875   O     0.77512   0.11094   0.71096   0.00000  Uiso   1.00
H876   H     0.75455   0.09289   0.68772   0.00000  Uiso   1.00
O877   O     0.89155   0.22240   0.95571   0.00000  Uiso   1.00
H878   H     0.91211   0.24045   0.97895   0.00000  Uiso   1.00
O879   O     0.77703   0.10692   0.94787   0.00000  Uiso   1.00
H880   H     0.76559   0.11648   0.91636   0.00000  Uiso   1.00
O881   O     0.88963   0.22641   0.71880   0.00000  Uiso   1.00
H882   H     0.90108   0.21686   0.75030   0.00000  Uiso   1.00
C883   C     0.16774   0.42079   0.83301   0.00000  Uiso   1.00
C884   C     0.16559   0.57921   0.83366   0.00000  Uiso   1.00
C885   C     0.06824   0.49974   0.82172   0.00000  Uiso   1.00
C886   C     0.26510   0.50026   0.84494   0.00000  Uiso   1.00
C887   C     0.01372   0.49494   0.81577   0.00000  Uiso   1.00
C888   C     0.31961   0.50506   0.85090   0.00000  Uiso   1.00
C889   C     0.18321   0.35334   0.79449   0.00000  Uiso   1.00
C890   C     0.15013   0.64666   0.87217   0.00000  Uiso   1.00
C891   C     0.18159   0.64428   0.79606   0.00000  Uiso   1.00
C892   C     0.15174   0.35572   0.87061   0.00000  Uiso   1.00
C893   C     0.16536   0.62385   0.83440   0.00000  Uiso   1.00
C894   C     0.16797   0.37615   0.83227   0.00000  Uiso   1.00
C895   C     0.13801   0.47165   0.68888   0.00000  Uiso   1.00
C896   C     0.19533   0.52835   0.97779   0.00000  Uiso   1.00
C897   C     0.13820   0.47126   0.97256   0.00000  Uiso   1.00
C898   C     0.19513   0.52874   0.69410   0.00000  Uiso   1.00
Cu899  Cu    0.16667   0.50001   0.88022   0.00000  Uiso   1.00
Cu900  Cu    0.16667   0.49999   0.78645   0.00000  Uiso   1.00
H901   H     0.19395   0.62721   0.76713   0.00000  Uiso   1.00
H902   H     0.13938   0.37279   0.89954   0.00000  Uiso   1.00
N903   N     0.16668   0.50001   0.95069   0.00000  Uiso   1.00
N904   N     0.16665   0.49999   0.71597   0.00000  Uiso   1.00
O905   O     0.16666   0.43989   0.87291   0.00000  Uiso   1.00
O906   O     0.16667   0.56011   0.79375   0.00000  Uiso   1.00
O907   O     0.16666   0.43988   0.79372   0.00000  Uiso   1.00
O908   O     0.16667   0.56012   0.87294   0.00000  Uiso   1.00
O909   O     0.09161   0.50000   0.86379   0.00000  Uiso   1.00
O910   O     0.24172   0.50000   0.80288   0.00000  Uiso   1.00
O911   O     0.09161   0.49999   0.78460   0.00000  Uiso   1.00
O912   O     0.24172   0.50001   0.88207   0.00000  Uiso   1.00
I913   I     0.31817   0.46539   0.75020   0.00000  Uiso   1.00
I914   I     0.01516   0.53461   0.91647   0.00000  Uiso   1.00
I915   I     0.21162   0.37768   0.73399   0.00000  Uiso   1.00
I916   I     0.12171   0.62232   0.93268   0.00000  Uiso   1.00
O917   O     0.10845   0.44427   0.71096   0.00000  Uiso   1.00
H918   H     0.08789   0.42622   0.68772   0.00000  Uiso   1.00
O919   O     0.22488   0.55573   0.95571   0.00000  Uiso   1.00
H920   H     0.24545   0.57378   0.97895   0.00000  Uiso   1.00
O921   O     0.11036   0.44025   0.94787   0.00000  Uiso   1.00
H922   H     0.09892   0.44981   0.91636   0.00000  Uiso   1.00
O923   O     0.22297   0.55975   0.71880   0.00000  Uiso   1.00
H924   H     0.23441   0.55019   0.75030   0.00000  Uiso   1.00
C925   C     0.50107   0.42079   0.83301   0.00000  Uiso   1.00
C926   C     0.49893   0.57921   0.83366   0.00000  Uiso   1.00
C927   C     0.40157   0.49974   0.82172   0.00000  Uiso   1.00
C928   C     0.59843   0.50026   0.84494   0.00000  Uiso   1.00
C929   C     0.34706   0.49494   0.81577   0.00000  Uiso   1.00
C930   C     0.65294   0.50506   0.85090   0.00000  Uiso   1.00
C931   C     0.51654   0.35334   0.79449   0.00000  Uiso   1.00
C932   C     0.48346   0.64666   0.87217   0.00000  Uiso   1.00
C933   C     0.51492   0.64428   0.79606   0.00000  Uiso   1.00
C934   C     0.48508   0.35572   0.87061   0.00000  Uiso   1.00
C935   C     0.49869   0.62385   0.83440   0.00000  Uiso   1.00
C936   C     0.50131   0.37615   0.83227   0.00000  Uiso   1.00
C937   C     0.47134   0.47165   0.68888   0.00000  Uiso   1.00
C938   C     0.52866   0.52835   0.97779   0.00000  Uiso   1.00
C939   C     0.47153   0.47126   0.97256   0.00000  Uiso   1.00
C940   C     0.52847   0.52874   0.69410   0.00000  Uiso   1.00
Cu941  Cu    0.50000   0.50001   0.88022   0.00000  Uiso   1.00
Cu942  Cu    0.50000   0.49999   0.78645   0.00000  Uiso   1.00
H943   H     0.52729   0.62721   0.76713   0.00000  Uiso   1.00
H944   H     0.47271   0.37279   0.89954   0.00000  Uiso   1.00
N945   N     0.50001   0.50001   0.95069   0.00000  Uiso   1.00
N946   N     0.49999   0.49999   0.71597   0.00000  Uiso   1.00
O947   O     0.50000   0.43989   0.87291   0.00000  Uiso   1.00
O948   O     0.50000   0.56011   0.79375   0.00000  Uiso   1.00
O949   O     0.50000   0.43988   0.79372   0.00000  Uiso   1.00
O950   O     0.50000   0.56012   0.87294   0.00000  Uiso   1.00
O951   O     0.42495   0.50000   0.86379   0.00000  Uiso   1.00
O952   O     0.57505   0.50000   0.80288   0.00000  Uiso   1.00
O953   O     0.42494   0.49999   0.78460   0.00000  Uiso   1.00
O954   O     0.57506   0.50001   0.88207   0.00000  Uiso   1.00
I955   I     0.65150   0.46539   0.75020   0.00000  Uiso   1.00
I956   I     0.34850   0.53461   0.91647   0.00000  Uiso   1.00
I957   I     0.54496   0.37768   0.73399   0.00000  Uiso   1.00
I958   I     0.45504   0.62232   0.93268   0.00000  Uiso   1.00
O959   O     0.44179   0.44427   0.71096   0.00000  Uiso   1.00
H960   H     0.42122   0.42622   0.68772   0.00000  Uiso   1.00
O961   O     0.55821   0.55573   0.95571   0.00000  Uiso   1.00
H962   H     0.57878   0.57378   0.97895   0.00000  Uiso   1.00
O963   O     0.44370   0.44025   0.94787   0.00000  Uiso   1.00
H964   H     0.43225   0.44981   0.91636   0.00000  Uiso   1.00
O965   O     0.55630   0.55975   0.71880   0.00000  Uiso   1.00
H966   H     0.56775   0.55019   0.75030   0.00000  Uiso   1.00
C967   C     0.83441   0.42079   0.83301   0.00000  Uiso   1.00
C968   C     0.83226   0.57921   0.83366   0.00000  Uiso   1.00
C969   C     0.73490   0.49974   0.82172   0.00000  Uiso   1.00
C970   C     0.93176   0.50026   0.84494   0.00000  Uiso   1.00
C971   C     0.68039   0.49494   0.81577   0.00000  Uiso   1.00
C972   C     0.98628   0.50506   0.85090   0.00000  Uiso   1.00
C973   C     0.84987   0.35334   0.79449   0.00000  Uiso   1.00
C974   C     0.81679   0.64666   0.87217   0.00000  Uiso   1.00
C975   C     0.84825   0.64428   0.79606   0.00000  Uiso   1.00
C976   C     0.81841   0.35572   0.87061   0.00000  Uiso   1.00
C977   C     0.83203   0.62385   0.83440   0.00000  Uiso   1.00
C978   C     0.83464   0.37615   0.83227   0.00000  Uiso   1.00
C979   C     0.80467   0.47165   0.68888   0.00000  Uiso   1.00
C980   C     0.86199   0.52835   0.97779   0.00000  Uiso   1.00
C981   C     0.80487   0.47126   0.97256   0.00000  Uiso   1.00
C982   C     0.86180   0.52874   0.69410   0.00000  Uiso   1.00
Cu983  Cu    0.83333   0.50001   0.88022   0.00000  Uiso   1.00
Cu984  Cu    0.83333   0.49999   0.78645   0.00000  Uiso   1.00
H985   H     0.86062   0.62721   0.76713   0.00000  Uiso   1.00
H986   H     0.80605   0.37279   0.89954   0.00000  Uiso   1.00
N987   N     0.83335   0.50001   0.95069   0.00000  Uiso   1.00
N988   N     0.83332   0.49999   0.71597   0.00000  Uiso   1.00
O989   O     0.83333   0.43989   0.87291   0.00000  Uiso   1.00
O990   O     0.83334   0.56011   0.79375   0.00000  Uiso   1.00
O991   O     0.83333   0.43988   0.79372   0.00000  Uiso   1.00
O992   O     0.83334   0.56012   0.87294   0.00000  Uiso   1.00
O993   O     0.75828   0.50000   0.86379   0.00000  Uiso   1.00
O994   O     0.90839   0.50000   0.80288   0.00000  Uiso   1.00
O995   O     0.75828   0.49999   0.78460   0.00000  Uiso   1.00
O996   O     0.90839   0.50001   0.88207   0.00000  Uiso   1.00
I997   I     0.98484   0.46539   0.75020   0.00000  Uiso   1.00
I998   I     0.68183   0.53461   0.91647   0.00000  Uiso   1.00
I999   I     0.87829   0.37768   0.73399   0.00000  Uiso   1.00
I1000  I     0.78838   0.62232   0.93268   0.00000  Uiso   1.00
O1001  O     0.77512   0.44427   0.71096   0.00000  Uiso   1.00
H1002  H     0.75455   0.42622   0.68772   0.00000  Uiso   1.00
O1003  O     0.89155   0.55573   0.95571   0.00000  Uiso   1.00
H1004  H     0.91211   0.57378   0.97895   0.00000  Uiso   1.00
O1005  O     0.77703   0.44025   0.94787   0.00000  Uiso   1.00
H1006  H     0.76559   0.44981   0.91636   0.00000  Uiso   1.00
O1007  O     0.88963   0.55975   0.71880   0.00000  Uiso   1.00
H1008  H     0.90108   0.55019   0.75030   0.00000  Uiso   1.00
C1009  C     0.16774   0.75412   0.83301   0.00000  Uiso   1.00
C1010  C     0.16559   0.91254   0.83366   0.00000  Uiso   1.00
C1011  C     0.06824   0.83308   0.82172   0.00000  Uiso   1.00
C1012  C     0.26510   0.83359   0.84494   0.00000  Uiso   1.00
C1013  C     0.01372   0.82827   0.81577   0.00000  Uiso   1.00
C1014  C     0.31961   0.83839   0.85090   0.00000  Uiso   1.00
C1015  C     0.18321   0.68667   0.79449   0.00000  Uiso   1.00
C1016  C     0.15013   0.98000   0.87217   0.00000  Uiso   1.00
C1017  C     0.18159   0.97761   0.79606   0.00000  Uiso   1.00
C1018  C     0.15174   0.68906   0.87061   0.00000  Uiso   1.00
C1019  C     0.16536   0.95718   0.83440   0.00000  Uiso   1.00
C1020  C     0.16797   0.70949   0.83227   0.00000  Uiso   1.00
C1021  C     0.13801   0.80499   0.68888   0.00000  Uiso   1.00
C1022  C     0.19533   0.86168   0.97779   0.00000  Uiso   1.00
C1023  C     0.13820   0.80459   0.97256   0.00000  Uiso   1.00
C1024  C     0.19513   0.86208   0.69410   0.00000  Uiso   1.00
Cu1025 Cu    0.16667   0.83334   0.88022   0.00000  Uiso   1.00
Cu1026 Cu    0.16667   0.83333   0.78645   0.00000  Uiso   1.00
H1027  H     0.19395   0.96055   0.76713   0.00000  Uiso   1.00
H1028  H     0.13938   0.70612   0.89954   0.00000  Uiso   1.00
N1029  N     0.16668   0.83334   0.95069   0.00000  Uiso   1.00
N1030  N     0.16665   0.83332   0.71597   0.00000  Uiso   1.00
O1031  O     0.16666   0.77322   0.87291   0.00000  Uiso   1.00
O1032  O     0.16667   0.89345   0.79375   0.00000  Uiso   1.00
O1033  O     0.16666   0.77321   0.79372   0.00000  Uiso   1.00
O1034  O     0.16667   0.89346   0.87294   0.00000  Uiso   1.00
O1035  O     0.09161   0.83334   0.86379   0.00000  Uiso   1.00
O1036  O     0.24172   0.83333   0.80288   0.00000  Uiso   1.00
O1037  O     0.09161   0.83333   0.78460   0.00000  Uiso   1.00
O1038  O     0.24172   0.83334   0.88207   0.00000  Uiso   1.00
I1039  I     0.31817   0.79872   0.75020   0.00000  Uiso   1.00
I1040  I     0.01516   0.86794   0.91647   0.00000  Uiso   1.00
I1041  I     0.21162   0.71102   0.73399   0.00000  Uiso   1.00
I1042  I     0.12171   0.95565   0.93268   0.00000  Uiso   1.00
O1043  O     0.10845   0.77760   0.71096   0.00000  Uiso   1.00
H1044  H     0.08789   0.75955   0.68772   0.00000  Uiso   1.00
O1045  O     0.22488   0.88906   0.95571   0.00000  Uiso   1.00
H1046  H     0.24545   0.90712   0.97895   0.00000  Uiso   1.00
O1047  O     0.11036   0.77359   0.94787   0.00000  Uiso   1.00
H1048  H     0.09892   0.78314   0.91636   0.00000  Uiso   1.00
O1049  O     0.22297   0.89308   0.71880   0.00000  Uiso   1.00
H1050  H     0.23441   0.88352   0.75030   0.00000  Uiso   1.00
C1051  C     0.50107   0.75412   0.83301   0.00000  Uiso   1.00
C1052  C     0.49893   0.91254   0.83366   0.00000  Uiso   1.00
C1053  C     0.40157   0.83308   0.82172   0.00000  Uiso   1.00
C1054  C     0.59843   0.83359   0.84494   0.00000  Uiso   1.00
C1055  C     0.34706   0.82827   0.81577   0.00000  Uiso   1.00
C1056  C     0.65294   0.83839   0.85090   0.00000  Uiso   1.00
C1057  C     0.51654   0.68667   0.79449   0.00000  Uiso   1.00
C1058  C     0.48346   0.98000   0.87217   0.00000  Uiso   1.00
C1059  C     0.51492   0.97761   0.79606   0.00000  Uiso   1.00
C1060  C     0.48508   0.68906   0.87061   0.00000  Uiso   1.00
C1061  C     0.49869   0.95718   0.83440   0.00000  Uiso   1.00
C1062  C     0.50131   0.70949   0.83227   0.00000  Uiso   1.00
C1063  C     0.47134   0.80499   0.68888   0.00000  Uiso   1.00
C1064  C     0.52866   0.86168   0.97779   0.00000  Uiso   1.00
C1065  C     0.47153   0.80459   0.97256   0.00000  Uiso   1.00
C1066  C     0.52847   0.86208   0.69410   0.00000  Uiso   1.00
Cu1067 Cu    0.50000   0.83334   0.88022   0.00000  Uiso   1.00
Cu1068 Cu    0.50000   0.83333   0.78645   0.00000  Uiso   1.00
H1069  H     0.52729   0.96055   0.76713   0.00000  Uiso   1.00
H1070  H     0.47271   0.70612   0.89954   0.00000  Uiso   1.00
N1071  N     0.50001   0.83334   0.95069   0.00000  Uiso   1.00
N1072  N     0.49999   0.83332   0.71597   0.00000  Uiso   1.00
O1073  O     0.50000   0.77322   0.87291   0.00000  Uiso   1.00
O1074  O     0.50000   0.89345   0.79375   0.00000  Uiso   1.00
O1075  O     0.50000   0.77321   0.79372   0.00000  Uiso   1.00
O1076  O     0.50000   0.89346   0.87294   0.00000  Uiso   1.00
O1077  O     0.42495   0.83334   0.86379   0.00000  Uiso   1.00
O1078  O     0.57505   0.83333   0.80288   0.00000  Uiso   1.00
O1079  O     0.42494   0.83333   0.78460   0.00000  Uiso   1.00
O1080  O     0.57506   0.83334   0.88207   0.00000  Uiso   1.00
I1081  I     0.65150   0.79872   0.75020   0.00000  Uiso   1.00
I1082  I     0.34850   0.86794   0.91647   0.00000  Uiso   1.00
I1083  I     0.54496   0.71102   0.73399   0.00000  Uiso   1.00
I1084  I     0.45504   0.95565   0.93268   0.00000  Uiso   1.00
O1085  O     0.44179   0.77760   0.71096   0.00000  Uiso   1.00
H1086  H     0.42122   0.75955   0.68772   0.00000  Uiso   1.00
O1087  O     0.55821   0.88906   0.95571   0.00000  Uiso   1.00
H1088  H     0.57878   0.90712   0.97895   0.00000  Uiso   1.00
O1089  O     0.44370   0.77359   0.94787   0.00000  Uiso   1.00
H1090  H     0.43225   0.78314   0.91636   0.00000  Uiso   1.00
O1091  O     0.55630   0.89308   0.71880   0.00000  Uiso   1.00
H1092  H     0.56775   0.88352   0.75030   0.00000  Uiso   1.00
C1093  C     0.83441   0.75412   0.83301   0.00000  Uiso   1.00
C1094  C     0.83226   0.91254   0.83366   0.00000  Uiso   1.00
C1095  C     0.73490   0.83308   0.82172   0.00000  Uiso   1.00
C1096  C     0.93176   0.83359   0.84494   0.00000  Uiso   1.00
C1097  C     0.68039   0.82827   0.81577   0.00000  Uiso   1.00
C1098  C     0.98628   0.83839   0.85090   0.00000  Uiso   1.00
C1099  C     0.84987   0.68667   0.79449   0.00000  Uiso   1.00
C1100  C     0.81679   0.98000   0.87217   0.00000  Uiso   1.00
C1101  C     0.84825   0.97761   0.79606   0.00000  Uiso   1.00
C1102  C     0.81841   0.68906   0.87061   0.00000  Uiso   1.00
C1103  C     0.83203   0.95718   0.83440   0.00000  Uiso   1.00
C1104  C     0.83464   0.70949   0.83227   0.00000  Uiso   1.00
C1105  C     0.80467   0.80499   0.68888   0.00000  Uiso   1.00
C1106  C     0.86199   0.86168   0.97779   0.00000  Uiso   1.00
C1107  C     0.80487   0.80459   0.97256   0.00000  Uiso   1.00
C1108  C     0.86180   0.86208   0.69410   0.00000  Uiso   1.00
Cu1109 Cu    0.83333   0.83334   0.88022   0.00000  Uiso   1.00
Cu1110 Cu    0.83333   0.83333   0.78645   0.00000  Uiso   1.00
H1111  H     0.86062   0.96055   0.76713   0.00000  Uiso   1.00
H1112  H     0.80605   0.70612   0.89954   0.00000  Uiso   1.00
N1113  N     0.83335   0.83334   0.95069   0.00000  Uiso   1.00
N1114  N     0.83332   0.83332   0.71597   0.00000  Uiso   1.00
O1115  O     0.83333   0.77322   0.87291   0.00000  Uiso   1.00
O1116  O     0.83334   0.89345   0.79375   0.00000  Uiso   1.00
O1117  O     0.83333   0.77321   0.79372   0.00000  Uiso   1.00
O1118  O     0.83334   0.89346   0.87294   0.00000  Uiso   1.00
O1119  O     0.75828   0.83334   0.86379   0.00000  Uiso   1.00
O1120  O     0.90839   0.83333   0.80288   0.00000  Uiso   1.00
O1121  O     0.75828   0.83333   0.78460   0.00000  Uiso   1.00
O1122  O     0.90839   0.83334   0.88207   0.00000  Uiso   1.00
I1123  I     0.98484   0.79872   0.75020   0.00000  Uiso   1.00
I1124  I     0.68183   0.86794   0.91647   0.00000  Uiso   1.00
I1125  I     0.87829   0.71102   0.73399   0.00000  Uiso   1.00
I1126  I     0.78838   0.95565   0.93268   0.00000  Uiso   1.00
O1127  O     0.77512   0.77760   0.71096   0.00000  Uiso   1.00
H1128  H     0.75455   0.75955   0.68772   0.00000  Uiso   1.00
O1129  O     0.89155   0.88906   0.95571   0.00000  Uiso   1.00
H1130  H     0.91211   0.90712   0.97895   0.00000  Uiso   1.00
O1131  O     0.77703   0.77359   0.94787   0.00000  Uiso   1.00
H1132  H     0.76559   0.78314   0.91636   0.00000  Uiso   1.00
O1133  O     0.88963   0.89308   0.71880   0.00000  Uiso   1.00
H1134  H     0.90108   0.88352   0.75030   0.00000  Uiso   1.00
loop_
_geom_bond_atom_site_label_1
_geom_bond_atom_site_label_2
_geom_bond_distance
_geom_bond_site_symmetry_2
_ccdc_geom_bond_type
C1     O25     1.293   .     A
C1     O23     1.303   .     A
C1     C12     1.456   .     S
C2     O26     1.293   .     A
C2     O24     1.303   .     A
C2     C11     1.456   .     S
C3     O27     1.290   .     A
C3     O29     1.295   .     A
C3     C5      1.435   .     S
C4     O30     1.295   .     A
C4     O28     1.290   .     A
C4     C6      1.435   .     S
C5     C90     1.355   1_455 S
C5     I115    2.155   1_455 S
C6     C47     1.355   .     S
C6     I74     2.155   .     S
C7     I33     2.129   .     S
C7     C12     1.413   .     A
C7     C261    1.384   1_545 S
C8     I34     2.129   .     S
C8     C11     1.413   .     A
C8     C136    1.384   .     S
C9     C11     1.399   .     A
C9     H19     1.083   .     S
C9     C133    1.384   .     S
C10    C12     1.399   .     A
C10    H20     1.083   .     S
C10    C260    1.384   1_545 S
C13    O35     1.381   .     S
C13    N22     1.358   .     A
C13    C771    1.428   1_554 S
C14    O37     1.381   .     S
C14    N21     1.358   .     A
C14    C394    1.428   .     S
C15    O39     1.375   .     S
C15    N21     1.390   .     A
C15    C391    1.428   .     S
C16    N22     1.390   .     A
C16    O41     1.375   .     S
C16    C770    1.428   1_554 S
Cu17   Cu18    2.695   .     S
Cu17   O30     1.978   .     S
Cu17   O23     1.970   .     S
Cu17   O26     1.974   .     S
Cu17   O27     1.983   .     S
Cu17   N21     2.025   .     S
Cu18   O29     1.978   .     S
Cu18   O25     1.974   .     S
Cu18   O24     1.970   .     S
Cu18   O28     1.983   .     S
Cu18   N22     2.025   .     S
I31    C47     2.155   .     S
I32    C90     2.155   1_455 S
O35    H36     0.989   .     S
O37    H38     0.989   .     S
O39    H40     0.976   .     S
O41    H42     0.976   .     S
C43    O67     1.293   .     A
C43    O65     1.303   .     A
C43    C54     1.456   .     S
C44    O68     1.293   .     A
C44    O66     1.303   .     A
C44    C53     1.456   .     S
C45    O69     1.290   .     A
C45    O71     1.295   .     A
C45    C47     1.435   .     S
C46    O72     1.295   .     A
C46    O70     1.290   .     A
C46    C48     1.435   .     S
C48    C89     1.355   .     S
C48    I116    2.155   .     S
C49    I75     2.129   .     S
C49    C54     1.413   .     A
C49    C303    1.384   1_545 S
C50    I76     2.129   .     S
C50    C53     1.413   .     A
C50    C178    1.384   .     S
C51    C53     1.399   .     A
C51    H61     1.083   .     S
C51    C175    1.384   .     S
C52    C54     1.399   .     A
C52    H62     1.083   .     S
C52    C302    1.384   1_545 S
C55    O77     1.381   .     S
C55    N64     1.358   .     A
C55    C813    1.428   1_554 S
C56    O79     1.381   .     S
C56    N63     1.358   .     A
C56    C436    1.428   .     S
C57    O81     1.375   .     S
C57    N63     1.390   .     A
C57    C433    1.428   .     S
C58    N64     1.390   .     A
C58    O83     1.375   .     S
C58    C812    1.428   1_554 S
Cu59   Cu60    2.695   .     S
Cu59   O72     1.978   .     S
Cu59   O65     1.970   .     S
Cu59   O68     1.974   .     S
Cu59   O69     1.983   .     S
Cu59   N63     2.025   .     S
Cu60   O71     1.978   .     S
Cu60   O67     1.974   .     S
Cu60   O66     1.970   .     S
Cu60   O70     1.983   .     S
Cu60   N64     2.025   .     S
I73    C89     2.155   .     S
O77    H78     0.989   .     S
O79    H80     0.989   .     S
O81    H82     0.976   .     S
O83    H84     0.976   .     S
C85    O109    1.293   .     A
C85    O107    1.303   .     A
C85    C96     1.456   .     S
C86    O110    1.293   .     A
C86    O108    1.303   .     A
C86    C95     1.456   .     S
C87    O111    1.290   .     A
C87    O113    1.295   .     A
C87    C89     1.435   .     S
C88    O114    1.295   .     A
C88    O112    1.290   .     A
C88    C90     1.435   .     S
C90    C5      1.355   1_655 S
C90    I32     2.155   1_655 S
C91    I117    2.129   .     S
C91    C96     1.413   .     A
C91    C345    1.384   1_545 S
C92    I118    2.129   .     S
C92    C95     1.413   .     A
C92    C220    1.384   .     S
C93    C95     1.399   .     A
C93    H103    1.083   .     S
C93    C217    1.384   .     S
C94    C96     1.399   .     A
C94    H104    1.083   .     S
C94    C344    1.384   1_545 S
C97    O119    1.381   .     S
C97    N106    1.358   .     A
C97    C855    1.428   1_554 S
C98    O121    1.381   .     S
C98    N105    1.358   .     A
C98    C478    1.428   .     S
C99    O123    1.375   .     S
C99    N105    1.390   .     A
C99    C475    1.428   .     S
C100   N106    1.390   .     A
C100   O125    1.375   .     S
C100   C854    1.428   1_554 S
Cu101  Cu102   2.695   .     S
Cu101  O114    1.978   .     S
Cu101  O107    1.970   .     S
Cu101  O110    1.974   .     S
Cu101  O111    1.983   .     S
Cu101  N105    2.025   .     S
Cu102  O113    1.978   .     S
Cu102  O109    1.974   .     S
Cu102  O108    1.970   .     S
Cu102  O112    1.983   .     S
Cu102  N106    2.025   .     S
I115   C5      2.155   1_655 S
O119   H120    0.989   .     S
O121   H122    0.989   .     S
O123   H124    0.976   .     S
O125   H126    0.976   .     S
C127   O151    1.293   .     A
C127   O149    1.303   .     A
C127   C138    1.456   .     S
C128   O152    1.293   .     A
C128   O150    1.303   .     A
C128   C137    1.456   .     S
C129   O153    1.290   .     A
C129   O155    1.295   .     A
C129   C131    1.435   .     S
C130   O156    1.295   .     A
C130   O154    1.290   .     A
C130   C132    1.435   .     S
C131   C216    1.355   1_455 S
C131   I241    2.155   1_455 S
C132   C173    1.355   .     S
C132   I200    2.155   .     S
C133   I159    2.129   .     S
C133   C138    1.413   .     A
C134   I160    2.129   .     S
C134   C137    1.413   .     A
C134   C262    1.384   .     S
C135   C137    1.399   .     A
C135   H145    1.083   .     S
C135   C259    1.384   .     S
C136   C138    1.399   .     A
C136   H146    1.083   .     S
C139   O161    1.381   .     S
C139   N148    1.358   .     A
C139   C897    1.428   1_554 S
C140   O163    1.381   .     S
C140   N147    1.358   .     A
C140   C520    1.428   .     S
C141   O165    1.375   .     S
C141   N147    1.390   .     A
C141   C517    1.428   .     S
C142   N148    1.390   .     A
C142   O167    1.375   .     S
C142   C896    1.428   1_554 S
Cu143  Cu144   2.695   .     S
Cu143  O156    1.978   .     S
Cu143  O149    1.970   .     S
Cu143  O152    1.974   .     S
Cu143  O153    1.983   .     S
Cu143  N147    2.025   .     S
Cu144  O155    1.978   .     S
Cu144  O151    1.974   .     S
Cu144  O150    1.970   .     S
Cu144  O154    1.983   .     S
Cu144  N148    2.025   .     S
I157   C173    2.155   .     S
I158   C216    2.155   1_455 S
O161   H162    0.989   .     S
O163   H164    0.989   .     S
O165   H166    0.976   .     S
O167   H168    0.976   .     S
C169   O193    1.293   .     A
C169   O191    1.303   .     A
C169   C180    1.456   .     S
C170   O194    1.293   .     A
C170   O192    1.303   .     A
C170   C179    1.456   .     S
C171   O195    1.290   .     A
C171   O197    1.295   .     A
C171   C173    1.435   .     S
C172   O198    1.295   .     A
C172   O196    1.290   .     A
C172   C174    1.435   .     S
C174   C215    1.355   .     S
C174   I242    2.155   .     S
C175   I201    2.129   .     S
C175   C180    1.413   .     A
C176   I202    2.129   .     S
C176   C179    1.413   .     A
C176   C304    1.384   .     S
C177   C179    1.399   .     A
C177   H187    1.083   .     S
C177   C301    1.384   .     S
C178   C180    1.399   .     A
C178   H188    1.083   .     S
C181   O203    1.381   .     S
C181   N190    1.358   .     A
C181   C939    1.428   1_554 S
C182   O205    1.381   .     S
C182   N189    1.358   .     A
C182   C562    1.428   .     S
C183   O207    1.375   .     S
C183   N189    1.390   .     A
C183   C559    1.428   .     S
C184   N190    1.390   .     A
C184   O209    1.375   .     S
C184   C938    1.428   1_554 S
Cu185  Cu186   2.695   .     S
Cu185  O198    1.978   .     S
Cu185  O191    1.970   .     S
Cu185  O194    1.974   .     S
Cu185  O195    1.983   .     S
Cu185  N189    2.025   .     S
Cu186  O197    1.978   .     S
Cu186  O193    1.974   .     S
Cu186  O192    1.970   .     S
Cu186  O196    1.983   .     S
Cu186  N190    2.025   .     S
I199   C215    2.155   .     S
O203   H204    0.989   .     S
O205   H206    0.989   .     S
O207   H208    0.976   .     S
O209   H210    0.976   .     S
C211   O235    1.293   .     A
C211   O233    1.303   .     A
C211   C222    1.456   .     S
C212   O236    1.293   .     A
C212   O234    1.303   .     A
C212   C221    1.456   .     S
C213   O237    1.290   .     A
C213   O239    1.295   .     A
C213   C215    1.435   .     S
C214   O240    1.295   .     A
C214   O238    1.290   .     A
C214   C216    1.435   .     S
C216   C131    1.355   1_655 S
C216   I158    2.155   1_655 S
C217   I243    2.129   .     S
C217   C222    1.413   .     A
C218   I244    2.129   .     S
C218   C221    1.413   .     A
C218   C346    1.384   .     S
C219   C221    1.399   .     A
C219   H229    1.083   .     S
C219   C343    1.384   .     S
C220   C222    1.399   .     A
C220   H230    1.083   .     S
C223   O245    1.381   .     S
C223   N232    1.358   .     A
C223   C981    1.428   1_554 S
C224   O247    1.381   .     S
C224   N231    1.358   .     A
C224   C604    1.428   .     S
C225   O249    1.375   .     S
C225   N231    1.390   .     A
C225   C601    1.428   .     S
C226   N232    1.390   .     A
C226   O251    1.375   .     S
C226   C980    1.428   1_554 S
Cu227  Cu228   2.695   .     S
Cu227  O240    1.978   .     S
Cu227  O233    1.970   .     S
Cu227  O236    1.974   .     S
Cu227  O237    1.983   .     S
Cu227  N231    2.025   .     S
Cu228  O239    1.978   .     S
Cu228  O235    1.974   .     S
Cu228  O234    1.970   .     S
Cu228  O238    1.983   .     S
Cu228  N232    2.025   .     S
I241   C131    2.155   1_655 S
O245   H246    0.989   .     S
O247   H248    0.989   .     S
O249   H250    0.976   .     S
O251   H252    0.976   .     S
C253   O277    1.293   .     A
C253   O275    1.303   .     A
C253   C264    1.456   .     S
C254   O278    1.293   .     A
C254   O276    1.303   .     A
C254   C263    1.456   .     S
C255   O279    1.290   .     A
C255   O281    1.295   .     A
C255   C257    1.435   .     S
C256   O282    1.295   .     A
C256   O280    1.290   .     A
C256   C258    1.435   .     S
C257   C342    1.355   1_455 S
C257   I367    2.155   1_455 S
C258   C299    1.355   .     S
C258   I326    2.155   .     S
C259   I285    2.129   .     S
C259   C264    1.413   .     A
C260   I286    2.129   .     S
C260   C263    1.413   .     A
C260   C10     1.384   1_565 S
C261   C263    1.399   .     A
C261   H271    1.083   .     S
C261   C7      1.384   1_565 S
C262   C264    1.399   .     A
C262   H272    1.083   .     S
C265   O287    1.381   .     S
C265   N274    1.358   .     A
C265   C1023   1.428   1_554 S
C266   O289    1.381   .     S
C266   N273    1.358   .     A
C266   C646    1.428   .     S
C267   O291    1.375   .     S
C267   N273    1.390   .     A
C267   C643    1.428   .     S
C268   N274    1.390   .     A
C268   O293    1.375   .     S
C268   C1022   1.428   1_554 S
Cu269  Cu270   2.695   .     S
Cu269  O282    1.978   .     S
Cu269  O275    1.970   .     S
Cu269  O278    1.974   .     S
Cu269  O279    1.983   .     S
Cu269  N273    2.025   .     S
Cu270  O281    1.978   .     S
Cu270  O277    1.974   .     S
Cu270  O276    1.970   .     S
Cu270  O280    1.983   .     S
Cu270  N274    2.025   .     S
I283   C299    2.155   .     S
I284   C342    2.155   1_455 S
O287   H288    0.989   .     S
O289   H290    0.989   .     S
O291   H292    0.976   .     S
O293   H294    0.976   .     S
C295   O319    1.293   .     A
C295   O317    1.303   .     A
C295   C306    1.456   .     S
C296   O320    1.293   .     A
C296   O318    1.303   .     A
C296   C305    1.456   .     S
C297   O321    1.290   .     A
C297   O323    1.295   .     A
C297   C299    1.435   .     S
C298   O324    1.295   .     A
C298   O322    1.290   .     A
C298   C300    1.435   .     S
C300   C341    1.355   .     S
C300   I368    2.155   .     S
C301   I327    2.129   .     S
C301   C306    1.413   .     A
C302   I328    2.129   .     S
C302   C305    1.413   .     A
C302   C52     1.384   1_565 S
C303   C305    1.399   .     A
C303   H313    1.083   .     S
C303   C49     1.384   1_565 S
C304   C306    1.399   .     A
C304   H314    1.083   .     S
C307   O329    1.381   .     S
C307   N316    1.358   .     A
C307   C1065   1.428   1_554 S
C308   O331    1.381   .     S
C308   N315    1.358   .     A
C308   C688    1.428   .     S
C309   O333    1.375   .     S
C309   N315    1.390   .     A
C309   C685    1.428   .     S
C310   N316    1.390   .     A
C310   O335    1.375   .     S
C310   C1064   1.428   1_554 S
Cu311  Cu312   2.695   .     S
Cu311  O324    1.978   .     S
Cu311  O317    1.970   .     S
Cu311  O320    1.974   .     S
Cu311  O321    1.983   .     S
Cu311  N315    2.025   .     S
Cu312  O323    1.978   .     S
Cu312  O319    1.974   .     S
Cu312  O318    1.970   .     S
Cu312  O322    1.983   .     S
Cu312  N316    2.025   .     S
I325   C341    2.155   .     S
O329   H330    0.989   .     S
O331   H332    0.989   .     S
O333   H334    0.976   .     S
O335   H336    0.976   .     S
C337   O361    1.293   .     A
C337   O359    1.303   .     A
C337   C348    1.456   .     S
C338   O362    1.293   .     A
C338   O360    1.303   .     A
C338   C347    1.456   .     S
C339   O363    1.290   .     A
C339   O365    1.295   .     A
C339   C341    1.435   .     S
C340   O366    1.295   .     A
C340   O364    1.290   .     A
C340   C342    1.435   .     S
C342   C257    1.355   1_655 S
C342   I284    2.155   1_655 S
C343   I369    2.129   .     S
C343   C348    1.413   .     A
C344   I370    2.129   .     S
C344   C347    1.413   .     A
C344   C94     1.384   1_565 S
C345   C347    1.399   .     A
C345   H355    1.083   .     S
C345   C91     1.384   1_565 S
C346   C348    1.399   .     A
C346   H356    1.083   .     S
C349   O371    1.381   .     S
C349   N358    1.358   .     A
C349   C1107   1.428   1_554 S
C350   O373    1.381   .     S
C350   N357    1.358   .     A
C350   C730    1.428   .     S
C351   O375    1.375   .     S
C351   N357    1.390   .     A
C351   C727    1.428   .     S
C352   N358    1.390   .     A
C352   O377    1.375   .     S
C352   C1106   1.428   1_554 S
Cu353  Cu354   2.695   .     S
Cu353  O366    1.978   .     S
Cu353  O359    1.970   .     S
Cu353  O362    1.974   .     S
Cu353  O363    1.983   .     S
Cu353  N357    2.025   .     S
Cu354  O365    1.978   .     S
Cu354  O361    1.974   .     S
Cu354  O360    1.970   .     S
Cu354  O364    1.983   .     S
Cu354  N358    2.025   .     S
I367   C257    2.155   1_655 S
O371   H372    0.989   .     S
O373   H374    0.989   .     S
O375   H376    0.976   .     S
O377   H378    0.976   .     S
C379   O403    1.293   .     A
C379   O401    1.303   .     A
C379   C390    1.456   .     S
C380   O404    1.293   .     A
C380   O402    1.303   .     A
C380   C389    1.456   .     S
C381   O405    1.290   .     A
C381   O407    1.295   .     A
C381   C383    1.435   .     S
C382   O408    1.295   .     A
C382   O406    1.290   .     A
C382   C384    1.435   .     S
C383   C468    1.355   1_455 S
C383   I493    2.155   1_455 S
C384   C425    1.355   .     S
C384   I452    2.155   .     S
C385   I411    2.129   .     S
C385   C390    1.413   .     A
C385   C639    1.384   1_545 S
C386   I412    2.129   .     S
C386   C389    1.413   .     A
C386   C514    1.384   .     S
C387   C389    1.399   .     A
C387   H397    1.083   .     S
C387   C511    1.384   .     S
C388   C390    1.399   .     A
C388   H398    1.083   .     S
C388   C638    1.384   1_545 S
C391   O413    1.381   .     S
C391   N400    1.358   .     A
C392   O415    1.381   .     S
C392   N399    1.358   .     A
C392   C772    1.428   .     S
C393   O417    1.375   .     S
C393   N399    1.390   .     A
C393   C769    1.428   .     S
C394   N400    1.390   .     A
C394   O419    1.375   .     S
Cu395  Cu396   2.695   .     S
Cu395  O408    1.978   .     S
Cu395  O401    1.970   .     S
Cu395  O404    1.974   .     S
Cu395  O405    1.983   .     S
Cu395  N399    2.025   .     S
Cu396  O407    1.978   .     S
Cu396  O403    1.974   .     S
Cu396  O402    1.970   .     S
Cu396  O406    1.983   .     S
Cu396  N400    2.025   .     S
I409   C425    2.155   .     S
I410   C468    2.155   1_455 S
O413   H414    0.989   .     S
O415   H416    0.989   .     S
O417   H418    0.976   .     S
O419   H420    0.976   .     S
C421   O445    1.293   .     A
C421   O443    1.303   .     A
C421   C432    1.456   .     S
C422   O446    1.293   .     A
C422   O444    1.303   .     A
C422   C431    1.456   .     S
C423   O447    1.290   .     A
C423   O449    1.295   .     A
C423   C425    1.435   .     S
C424   O450    1.295   .     A
C424   O448    1.290   .     A
C424   C426    1.435   .     S
C426   C467    1.355   .     S
C426   I494    2.155   .     S
C427   I453    2.129   .     S
C427   C432    1.413   .     A
C427   C681    1.384   1_545 S
C428   I454    2.129   .     S
C428   C431    1.413   .     A
C428   C556    1.384   .     S
C429   C431    1.399   .     A
C429   H439    1.083   .     S
C429   C553    1.384   .     S
C430   C432    1.399   .     A
C430   H440    1.083   .     S
C430   C680    1.384   1_545 S
C433   O455    1.381   .     S
C433   N442    1.358   .     A
C434   O457    1.381   .     S
C434   N441    1.358   .     A
C434   C814    1.428   .     S
C435   O459    1.375   .     S
C435   N441    1.390   .     A
C435   C811    1.428   .     S
C436   N442    1.390   .     A
C436   O461    1.375   .     S
Cu437  Cu438   2.695   .     S
Cu437  O450    1.978   .     S
Cu437  O443    1.970   .     S
Cu437  O446    1.974   .     S
Cu437  O447    1.983   .     S
Cu437  N441    2.025   .     S
Cu438  O449    1.978   .     S
Cu438  O445    1.974   .     S
Cu438  O444    1.970   .     S
Cu438  O448    1.983   .     S
Cu438  N442    2.025   .     S
I451   C467    2.155   .     S
O455   H456    0.989   .     S
O457   H458    0.989   .     S
O459   H460    0.976   .     S
O461   H462    0.976   .     S
C463   O487    1.293   .     A
C463   O485    1.303   .     A
C463   C474    1.456   .     S
C464   O488    1.293   .     A
C464   O486    1.303   .     A
C464   C473    1.456   .     S
C465   O489    1.290   .     A
C465   O491    1.295   .     A
C465   C467    1.435   .     S
C466   O492    1.295   .     A
C466   O490    1.290   .     A
C466   C468    1.435   .     S
C468   C383    1.355   1_655 S
C468   I410    2.155   1_655 S
C469   I495    2.129   .     S
C469   C474    1.413   .     A
C469   C723    1.384   1_545 S
C470   I496    2.129   .     S
C470   C473    1.413   .     A
C470   C598    1.384   .     S
C471   C473    1.399   .     A
C471   H481    1.083   .     S
C471   C595    1.384   .     S
C472   C474    1.399   .     A
C472   H482    1.083   .     S
C472   C722    1.384   1_545 S
C475   O497    1.381   .     S
C475   N484    1.358   .     A
C476   O499    1.381   .     S
C476   N483    1.358   .     A
C476   C856    1.428   .     S
C477   O501    1.375   .     S
C477   N483    1.390   .     A
C477   C853    1.428   .     S
C478   N484    1.390   .     A
C478   O503    1.375   .     S
Cu479  Cu480   2.695   .     S
Cu479  O492    1.978   .     S
Cu479  O485    1.970   .     S
Cu479  O488    1.974   .     S
Cu479  O489    1.983   .     S
Cu479  N483    2.025   .     S
Cu480  O491    1.978   .     S
Cu480  O487    1.974   .     S
Cu480  O486    1.970   .     S
Cu480  O490    1.983   .     S
Cu480  N484    2.025   .     S
I493   C383    2.155   1_655 S
O497   H498    0.989   .     S
O499   H500    0.989   .     S
O501   H502    0.976   .     S
O503   H504    0.976   .     S
C505   O529    1.293   .     A
C505   O527    1.303   .     A
C505   C516    1.456   .     S
C506   O530    1.293   .     A
C506   O528    1.303   .     A
C506   C515    1.456   .     S
C507   O531    1.290   .     A
C507   O533    1.295   .     A
C507   C509    1.435   .     S
C508   O534    1.295   .     A
C508   O532    1.290   .     A
C508   C510    1.435   .     S
C509   C594    1.355   1_455 S
C509   I619    2.155   1_455 S
C510   C551    1.355   .     S
C510   I578    2.155   .     S
C511   I537    2.129   .     S
C511   C516    1.413   .     A
C512   I538    2.129   .     S
C512   C515    1.413   .     A
C512   C640    1.384   .     S
C513   C515    1.399   .     A
C513   H523    1.083   .     S
C513   C637    1.384   .     S
C514   C516    1.399   .     A
C514   H524    1.083   .     S
C517   O539    1.381   .     S
C517   N526    1.358   .     A
C518   O541    1.381   .     S
C518   N525    1.358   .     A
C518   C898    1.428   .     S
C519   O543    1.375   .     S
C519   N525    1.390   .     A
C519   C895    1.428   .     S
C520   N526    1.390   .     A
C520   O545    1.375   .     S
Cu521  Cu522   2.695   .     S
Cu521  O534    1.978   .     S
Cu521  O527    1.970   .     S
Cu521  O530    1.974   .     S
Cu521  O531    1.983   .     S
Cu521  N525    2.025   .     S
Cu522  O533    1.978   .     S
Cu522  O529    1.974   .     S
Cu522  O528    1.970   .     S
Cu522  O532    1.983   .     S
Cu522  N526    2.025   .     S
I535   C551    2.155   .     S
I536   C594    2.155   1_455 S
O539   H540    0.989   .     S
O541   H542    0.989   .     S
O543   H544    0.976   .     S
O545   H546    0.976   .     S
C547   O571    1.293   .     A
C547   O569    1.303   .     A
C547   C558    1.456   .     S
C548   O572    1.293   .     A
C548   O570    1.303   .     A
C548   C557    1.456   .     S
C549   O573    1.290   .     A
C549   O575    1.295   .     A
C549   C551    1.435   .     S
C550   O576    1.295   .     A
C550   O574    1.290   .     A
C550   C552    1.435   .     S
C552   C593    1.355   .     S
C552   I620    2.155   .     S
C553   I579    2.129   .     S
C553   C558    1.413   .     A
C554   I580    2.129   .     S
C554   C557    1.413   .     A
C554   C682    1.384   .     S
C555   C557    1.399   .     A
C555   H565    1.083   .     S
C555   C679    1.384   .     S
C556   C558    1.399   .     A
C556   H566    1.083   .     S
C559   O581    1.381   .     S
C559   N568    1.358   .     A
C560   O583    1.381   .     S
C560   N567    1.358   .     A
C560   C940    1.428   .     S
C561   O585    1.375   .     S
C561   N567    1.390   .     A
C561   C937    1.428   .     S
C562   N568    1.390   .     A
C562   O587    1.375   .     S
Cu563  Cu564   2.695   .     S
Cu563  O576    1.978   .     S
Cu563  O569    1.970   .     S
Cu563  O572    1.974   .     S
Cu563  O573    1.983   .     S
Cu563  N567    2.025   .     S
Cu564  O575    1.978   .     S
Cu564  O571    1.974   .     S
Cu564  O570    1.970   .     S
Cu564  O574    1.983   .     S
Cu564  N568    2.025   .     S
I577   C593    2.155   .     S
O581   H582    0.989   .     S
O583   H584    0.989   .     S
O585   H586    0.976   .     S
O587   H588    0.976   .     S
C589   O613    1.293   .     A
C589   O611    1.303   .     A
C589   C600    1.456   .     S
C590   O614    1.293   .     A
C590   O612    1.303   .     A
C590   C599    1.456   .     S
C591   O615    1.290   .     A
C591   O617    1.295   .     A
C591   C593    1.435   .     S
C592   O618    1.295   .     A
C592   O616    1.290   .     A
C592   C594    1.435   .     S
C594   C509    1.355   1_655 S
C594   I536    2.155   1_655 S
C595   I621    2.129   .     S
C595   C600    1.413   .     A
C596   I622    2.129   .     S
C596   C599    1.413   .     A
C596   C724    1.384   .     S
C597   C599    1.399   .     A
C597   H607    1.083   .     S
C597   C721    1.384   .     S
C598   C600    1.399   .     A
C598   H608    1.083   .     S
C601   O623    1.381   .     S
C601   N610    1.358   .     A
C602   O625    1.381   .     S
C602   N609    1.358   .     A
C602   C982    1.428   .     S
C603   O627    1.375   .     S
C603   N609    1.390   .     A
C603   C979    1.428   .     S
C604   N610    1.390   .     A
C604   O629    1.375   .     S
Cu605  Cu606   2.695   .     S
Cu605  O618    1.978   .     S
Cu605  O611    1.970   .     S
Cu605  O614    1.974   .     S
Cu605  O615    1.983   .     S
Cu605  N609    2.025   .     S
Cu606  O617    1.978   .     S
Cu606  O613    1.974   .     S
Cu606  O612    1.970   .     S
Cu606  O616    1.983   .     S
Cu606  N610    2.025   .     S
I619   C509    2.155   1_655 S
O623   H624    0.989   .     S
O625   H626    0.989   .     S
O627   H628    0.976   .     S
O629   H630    0.976   .     S
C631   O655    1.293   .     A
C631   O653    1.303   .     A
C631   C642    1.456   .     S
C632   O656    1.293   .     A
C632   O654    1.303   .     A
C632   C641    1.456   .     S
C633   O657    1.290   .     A
C633   O659    1.295   .     A
C633   C635    1.435   .     S
C634   O660    1.295   .     A
C634   O658    1.290   .     A
C634   C636    1.435   .     S
C635   C720    1.355   1_455 S
C635   I745    2.155   1_455 S
C636   C677    1.355   .     S
C636   I704    2.155   .     S
C637   I663    2.129   .     S
C637   C642    1.413   .     A
C638   I664    2.129   .     S
C638   C641    1.413   .     A
C638   C388    1.384   1_565 S
C639   C641    1.399   .     A
C639   H649    1.083   .     S
C639   C385    1.384   1_565 S
C640   C642    1.399   .     A
C640   H650    1.083   .     S
C643   O665    1.381   .     S
C643   N652    1.358   .     A
C644   O667    1.381   .     S
C644   N651    1.358   .     A
C644   C1024   1.428   .     S
C645   O669    1.375   .     S
C645   N651    1.390   .     A
C645   C1021   1.428   .     S
C646   N652    1.390   .     A
C646   O671    1.375   .     S
Cu647  Cu648   2.695   .     S
Cu647  O660    1.978   .     S
Cu647  O653    1.970   .     S
Cu647  O656    1.974   .     S
Cu647  O657    1.983   .     S
Cu647  N651    2.025   .     S
Cu648  O659    1.978   .     S
Cu648  O655    1.974   .     S
Cu648  O654    1.970   .     S
Cu648  O658    1.983   .     S
Cu648  N652    2.025   .     S
I661   C677    2.155   .     S
I662   C720    2.155   1_455 S
O665   H666    0.989   .     S
O667   H668    0.989   .     S
O669   H670    0.976   .     S
O671   H672    0.976   .     S
C673   O697    1.293   .     A
C673   O695    1.303   .     A
C673   C684    1.456   .     S
C674   O698    1.293   .     A
C674   O696    1.303   .     A
C674   C683    1.456   .     S
C675   O699    1.290   .     A
C675   O701    1.295   .     A
C675   C677    1.435   .     S
C676   O702    1.295   .     A
C676   O700    1.290   .     A
C676   C678    1.435   .     S
C678   C719    1.355   .     S
C678   I746    2.155   .     S
C679   I705    2.129   .     S
C679   C684    1.413   .     A
C680   I706    2.129   .     S
C680   C683    1.413   .     A
C680   C430    1.384   1_565 S
C681   C683    1.399   .     A
C681   H691    1.083   .     S
C681   C427    1.384   1_565 S
C682   C684    1.399   .     A
C682   H692    1.083   .     S
C685   O707    1.381   .     S
C685   N694    1.358   .     A
C686   O709    1.381   .     S
C686   N693    1.358   .     A
C686   C1066   1.428   .     S
C687   O711    1.375   .     S
C687   N693    1.390   .     A
C687   C1063   1.428   .     S
C688   N694    1.390   .     A
C688   O713    1.375   .     S
Cu689  Cu690   2.695   .     S
Cu689  O702    1.978   .     S
Cu689  O695    1.970   .     S
Cu689  O698    1.974   .     S
Cu689  O699    1.983   .     S
Cu689  N693    2.025   .     S
Cu690  O701    1.978   .     S
Cu690  O697    1.974   .     S
Cu690  O696    1.970   .     S
Cu690  O700    1.983   .     S
Cu690  N694    2.025   .     S
I703   C719    2.155   .     S
O707   H708    0.989   .     S
O709   H710    0.989   .     S
O711   H712    0.976   .     S
O713   H714    0.976   .     S
C715   O739    1.293   .     A
C715   O737    1.303   .     A
C715   C726    1.456   .     S
C716   O740    1.293   .     A
C716   O738    1.303   .     A
C716   C725    1.456   .     S
C717   O741    1.290   .     A
C717   O743    1.295   .     A
C717   C719    1.435   .     S
C718   O744    1.295   .     A
C718   O742    1.290   .     A
C718   C720    1.435   .     S
C720   C635    1.355   1_655 S
C720   I662    2.155   1_655 S
C721   I747    2.129   .     S
C721   C726    1.413   .     A
C722   I748    2.129   .     S
C722   C725    1.413   .     A
C722   C472    1.384   1_565 S
C723   C725    1.399   .     A
C723   H733    1.083   .     S
C723   C469    1.384   1_565 S
C724   C726    1.399   .     A
C724   H734    1.083   .     S
C727   O749    1.381   .     S
C727   N736    1.358   .     A
C728   O751    1.381   .     S
C728   N735    1.358   .     A
C728   C1108   1.428   .     S
C729   O753    1.375   .     S
C729   N735    1.390   .     A
C729   C1105   1.428   .     S
C730   N736    1.390   .     A
C730   O755    1.375   .     S
Cu731  Cu732   2.695   .     S
Cu731  O744    1.978   .     S
Cu731  O737    1.970   .     S
Cu731  O740    1.974   .     S
Cu731  O741    1.983   .     S
Cu731  N735    2.025   .     S
Cu732  O743    1.978   .     S
Cu732  O739    1.974   .     S
Cu732  O738    1.970   .     S
Cu732  O742    1.983   .     S
Cu732  N736    2.025   .     S
I745   C635    2.155   1_655 S
O749   H750    0.989   .     S
O751   H752    0.989   .     S
O753   H754    0.976   .     S
O755   H756    0.976   .     S
C757   O781    1.293   .     A
C757   O779    1.303   .     A
C757   C768    1.456   .     S
C758   O782    1.293   .     A
C758   O780    1.303   .     A
C758   C767    1.456   .     S
C759   O783    1.290   .     A
C759   O785    1.295   .     A
C759   C761    1.435   .     S
C760   O786    1.295   .     A
C760   O784    1.290   .     A
C760   C762    1.435   .     S
C761   C846    1.355   1_455 S
C761   I871    2.155   1_455 S
C762   C803    1.355   .     S
C762   I830    2.155   .     S
C763   I789    2.129   .     S
C763   C768    1.413   .     A
C763   C1017   1.384   1_545 S
C764   I790    2.129   .     S
C764   C767    1.413   .     A
C764   C892    1.384   .     S
C765   C767    1.399   .     A
C765   H775    1.083   .     S
C765   C889    1.384   .     S
C766   C768    1.399   .     A
C766   H776    1.083   .     S
C766   C1016   1.384   1_545 S
C769   O791    1.381   .     S
C769   N778    1.358   .     A
C770   O793    1.381   .     S
C770   N777    1.358   .     A
C770   C16     1.428   1_556 S
C771   O795    1.375   .     S
C771   N777    1.390   .     A
C771   C13     1.428   1_556 S
C772   N778    1.390   .     A
C772   O797    1.375   .     S
Cu773  Cu774   2.695   .     S
Cu773  O786    1.978   .     S
Cu773  O779    1.970   .     S
Cu773  O782    1.974   .     S
Cu773  O783    1.983   .     S
Cu773  N777    2.025   .     S
Cu774  O785    1.978   .     S
Cu774  O781    1.974   .     S
Cu774  O780    1.970   .     S
Cu774  O784    1.983   .     S
Cu774  N778    2.025   .     S
I787   C803    2.155   .     S
I788   C846    2.155   1_455 S
O791   H792    0.989   .     S
O793   H794    0.989   .     S
O795   H796    0.976   .     S
O797   H798    0.976   .     S
C799   O823    1.293   .     A
C799   O821    1.303   .     A
C799   C810    1.456   .     S
C800   O824    1.293   .     A
C800   O822    1.303   .     A
C800   C809    1.456   .     S
C801   O825    1.290   .     A
C801   O827    1.295   .     A
C801   C803    1.435   .     S
C802   O828    1.295   .     A
C802   O826    1.290   .     A
C802   C804    1.435   .     S
C804   C845    1.355   .     S
C804   I872    2.155   .     S
C805   I831    2.129   .     S
C805   C810    1.413   .     A
C805   C1059   1.384   1_545 S
C806   I832    2.129   .     S
C806   C809    1.413   .     A
C806   C934    1.384   .     S
C807   C809    1.399   .     A
C807   H817    1.083   .     S
C807   C931    1.384   .     S
C808   C810    1.399   .     A
C808   H818    1.083   .     S
C808   C1058   1.384   1_545 S
C811   O833    1.381   .     S
C811   N820    1.358   .     A
C812   O835    1.381   .     S
C812   N819    1.358   .     A
C812   C58     1.428   1_556 S
C813   O837    1.375   .     S
C813   N819    1.390   .     A
C813   C55     1.428   1_556 S
C814   N820    1.390   .     A
C814   O839    1.375   .     S
Cu815  Cu816   2.695   .     S
Cu815  O828    1.978   .     S
Cu815  O821    1.970   .     S
Cu815  O824    1.974   .     S
Cu815  O825    1.983   .     S
Cu815  N819    2.025   .     S
Cu816  O827    1.978   .     S
Cu816  O823    1.974   .     S
Cu816  O822    1.970   .     S
Cu816  O826    1.983   .     S
Cu816  N820    2.025   .     S
I829   C845    2.155   .     S
O833   H834    0.989   .     S
O835   H836    0.989   .     S
O837   H838    0.976   .     S
O839   H840    0.976   .     S
C841   O865    1.293   .     A
C841   O863    1.303   .     A
C841   C852    1.456   .     S
C842   O866    1.293   .     A
C842   O864    1.303   .     A
C842   C851    1.456   .     S
C843   O867    1.290   .     A
C843   O869    1.295   .     A
C843   C845    1.435   .     S
C844   O870    1.295   .     A
C844   O868    1.290   .     A
C844   C846    1.435   .     S
C846   C761    1.355   1_655 S
C846   I788    2.155   1_655 S
C847   I873    2.129   .     S
C847   C852    1.413   .     A
C847   C1101   1.384   1_545 S
C848   I874    2.129   .     S
C848   C851    1.413   .     A
C848   C976    1.384   .     S
C849   C851    1.399   .     A
C849   H859    1.083   .     S
C849   C973    1.384   .     S
C850   C852    1.399   .     A
C850   H860    1.083   .     S
C850   C1100   1.384   1_545 S
C853   O875    1.381   .     S
C853   N862    1.358   .     A
C854   O877    1.381   .     S
C854   N861    1.358   .     A
C854   C100    1.428   1_556 S
C855   O879    1.375   .     S
C855   N861    1.390   .     A
C855   C97     1.428   1_556 S
C856   N862    1.390   .     A
C856   O881    1.375   .     S
Cu857  Cu858   2.695   .     S
Cu857  O870    1.978   .     S
Cu857  O863    1.970   .     S
Cu857  O866    1.974   .     S
Cu857  O867    1.983   .     S
Cu857  N861    2.025   .     S
Cu858  O869    1.978   .     S
Cu858  O865    1.974   .     S
Cu858  O864    1.970   .     S
Cu858  O868    1.983   .     S
Cu858  N862    2.025   .     S
I871   C761    2.155   1_655 S
O875   H876    0.989   .     S
O877   H878    0.989   .     S
O879   H880    0.976   .     S
O881   H882    0.976   .     S
C883   O907    1.293   .     A
C883   O905    1.303   .     A
C883   C894    1.456   .     S
C884   O908    1.293   .     A
C884   O906    1.303   .     A
C884   C893    1.456   .     S
C885   O909    1.290   .     A
C885   O911    1.295   .     A
C885   C887    1.435   .     S
C886   O912    1.295   .     A
C886   O910    1.290   .     A
C886   C888    1.435   .     S
C887   C972    1.355   1_455 S
C887   I997    2.155   1_455 S
C888   C929    1.355   .     S
C888   I956    2.155   .     S
C889   I915    2.129   .     S
C889   C894    1.413   .     A
C890   I916    2.129   .     S
C890   C893    1.413   .     A
C890   C1018   1.384   .     S
C891   C893    1.399   .     A
C891   H901    1.083   .     S
C891   C1015   1.384   .     S
C892   C894    1.399   .     A
C892   H902    1.083   .     S
C895   O917    1.381   .     S
C895   N904    1.358   .     A
C896   O919    1.381   .     S
C896   N903    1.358   .     A
C896   C142    1.428   1_556 S
C897   O921    1.375   .     S
C897   N903    1.390   .     A
C897   C139    1.428   1_556 S
C898   N904    1.390   .     A
C898   O923    1.375   .     S
Cu899  Cu900   2.695   .     S
Cu899  O912    1.978   .     S
Cu899  O905    1.970   .     S
Cu899  O908    1.974   .     S
Cu899  O909    1.983   .     S
Cu899  N903    2.025   .     S
Cu900  O911    1.978   .     S
Cu900  O907    1.974   .     S
Cu900  O906    1.970   .     S
Cu900  O910    1.983   .     S
Cu900  N904    2.025   .     S
I913   C929    2.155   .     S
I914   C972    2.155   1_455 S
O917   H918    0.989   .     S
O919   H920    0.989   .     S
O921   H922    0.976   .     S
O923   H924    0.976   .     S
C925   O949    1.293   .     A
C925   O947    1.303   .     A
C925   C936    1.456   .     S
C926   O950    1.293   .     A
C926   O948    1.303   .     A
C926   C935    1.456   .     S
C927   O951    1.290   .     A
C927   O953    1.295   .     A
C927   C929    1.435   .     S
C928   O954    1.295   .     A
C928   O952    1.290   .     A
C928   C930    1.435   .     S
C930   C971    1.355   .     S
C930   I998    2.155   .     S
C931   I957    2.129   .     S
C931   C936    1.413   .     A
C932   I958    2.129   .     S
C932   C935    1.413   .     A
C932   C1060   1.384   .     S
C933   C935    1.399   .     A
C933   H943    1.083   .     S
C933   C1057   1.384   .     S
C934   C936    1.399   .     A
C934   H944    1.083   .     S
C937   O959    1.381   .     S
C937   N946    1.358   .     A
C938   O961    1.381   .     S
C938   N945    1.358   .     A
C938   C184    1.428   1_556 S
C939   O963    1.375   .     S
C939   N945    1.390   .     A
C939   C181    1.428   1_556 S
C940   N946    1.390   .     A
C940   O965    1.375   .     S
Cu941  Cu942   2.695   .     S
Cu941  O954    1.978   .     S
Cu941  O947    1.970   .     S
Cu941  O950    1.974   .     S
Cu941  O951    1.983   .     S
Cu941  N945    2.025   .     S
Cu942  O953    1.978   .     S
Cu942  O949    1.974   .     S
Cu942  O948    1.970   .     S
Cu942  O952    1.983   .     S
Cu942  N946    2.025   .     S
I955   C971    2.155   .     S
O959   H960    0.989   .     S
O961   H962    0.989   .     S
O963   H964    0.976   .     S
O965   H966    0.976   .     S
C967   O991    1.293   .     A
C967   O989    1.303   .     A
C967   C978    1.456   .     S
C968   O992    1.293   .     A
C968   O990    1.303   .     A
C968   C977    1.456   .     S
C969   O993    1.290   .     A
C969   O995    1.295   .     A
C969   C971    1.435   .     S
C970   O996    1.295   .     A
C970   O994    1.290   .     A
C970   C972    1.435   .     S
C972   C887    1.355   1_655 S
C972   I914    2.155   1_655 S
C973   I999    2.129   .     S
C973   C978    1.413   .     A
C974   I1000   2.129   .     S
C974   C977    1.413   .     A
C974   C1102   1.384   .     S
C975   C977    1.399   .     A
C975   H985    1.083   .     S
C975   C1099   1.384   .     S
C976   C978    1.399   .     A
C976   H986    1.083   .     S
C979   O1001   1.381   .     S
C979   N988    1.358   .     A
C980   O1003   1.381   .     S
C980   N987    1.358   .     A
C980   C226    1.428   1_556 S
C981   O1005   1.375   .     S
C981   N987    1.390   .     A
C981   C223    1.428   1_556 S
C982   N988    1.390   .     A
C982   O1007   1.375   .     S
Cu983  Cu984   2.695   .     S
Cu983  O996    1.978   .     S
Cu983  O989    1.970   .     S
Cu983  O992    1.974   .     S
Cu983  O993    1.983   .     S
Cu983  N987    2.025   .     S
Cu984  O995    1.978   .     S
Cu984  O991    1.974   .     S
Cu984  O990    1.970   .     S
Cu984  O994    1.983   .     S
Cu984  N988    2.025   .     S
I997   C887    2.155   1_655 S
O1001  H1002   0.989   .     S
O1003  H1004   0.989   .     S
O1005  H1006   0.976   .     S
O1007  H1008   0.976   .     S
C1009  O1033   1.293   .     A
C1009  O1031   1.303   .     A
C1009  C1020   1.456   .     S
C1010  O1034   1.293   .     A
C1010  O1032   1.303   .     A
C1010  C1019   1.456   .     S
C1011  O1035   1.290   .     A
C1011  O1037   1.295   .     A
C1011  C1013   1.435   .     S
C1012  O1038   1.295   .     A
C1012  O1036   1.290   .     A
C1012  C1014   1.435   .     S
C1013  C1098   1.355   1_455 S
C1013  I1123   2.155   1_455 S
C1014  C1055   1.355   .     S
C1014  I1082   2.155   .     S
C1015  I1041   2.129   .     S
C1015  C1020   1.413   .     A
C1016  I1042   2.129   .     S
C1016  C1019   1.413   .     A
C1016  C766    1.384   1_565 S
C1017  C1019   1.399   .     A
C1017  H1027   1.083   .     S
C1017  C763    1.384   1_565 S
C1018  C1020   1.399   .     A
C1018  H1028   1.083   .     S
C1021  O1043   1.381   .     S
C1021  N1030   1.358   .     A
C1022  O1045   1.381   .     S
C1022  N1029   1.358   .     A
C1022  C268    1.428   1_556 S
C1023  O1047   1.375   .     S
C1023  N1029   1.390   .     A
C1023  C265    1.428   1_556 S
C1024  N1030   1.390   .     A
C1024  O1049   1.375   .     S
Cu1025 Cu1026  2.695   .     S
Cu1025 O1038   1.978   .     S
Cu1025 O1031   1.970   .     S
Cu1025 O1034   1.974   .     S
Cu1025 O1035   1.983   .     S
Cu1025 N1029   2.025   .     S
Cu1026 O1037   1.978   .     S
Cu1026 O1033   1.974   .     S
Cu1026 O1032   1.970   .     S
Cu1026 O1036   1.983   .     S
Cu1026 N1030   2.025   .     S
I1039  C1055   2.155   .     S
I1040  C1098   2.155   1_455 S
O1043  H1044   0.989   .     S
O1045  H1046   0.989   .     S
O1047  H1048   0.976   .     S
O1049  H1050   0.976   .     S
C1051  O1075   1.293   .     A
C1051  O1073   1.303   .     A
C1051  C1062   1.456   .     S
C1052  O1076   1.293   .     A
C1052  O1074   1.303   .     A
C1052  C1061   1.456   .     S
C1053  O1077   1.290   .     A
C1053  O1079   1.295   .     A
C1053  C1055   1.435   .     S
C1054  O1080   1.295   .     A
C1054  O1078   1.290   .     A
C1054  C1056   1.435   .     S
C1056  C1097   1.355   .     S
C1056  I1124   2.155   .     S
C1057  I1083   2.129   .     S
C1057  C1062   1.413   .     A
C1058  I1084   2.129   .     S
C1058  C1061   1.413   .     A
C1058  C808    1.384   1_565 S
C1059  C1061   1.399   .     A
C1059  H1069   1.083   .     S
C1059  C805    1.384   1_565 S
C1060  C1062   1.399   .     A
C1060  H1070   1.083   .     S
C1063  O1085   1.381   .     S
C1063  N1072   1.358   .     A
C1064  O1087   1.381   .     S
C1064  N1071   1.358   .     A
C1064  C310    1.428   1_556 S
C1065  O1089   1.375   .     S
C1065  N1071   1.390   .     A
C1065  C307    1.428   1_556 S
C1066  N1072   1.390   .     A
C1066  O1091   1.375   .     S
Cu1067 Cu1068  2.695   .     S
Cu1067 O1080   1.978   .     S
Cu1067 O1073   1.970   .     S
Cu1067 O1076   1.974   .     S
Cu1067 O1077   1.983   .     S
Cu1067 N1071   2.025   .     S
Cu1068 O1079   1.978   .     S
Cu1068 O1075   1.974   .     S
Cu1068 O1074   1.970   .     S
Cu1068 O1078   1.983   .     S
Cu1068 N1072   2.025   .     S
I1081  C1097   2.155   .     S
O1085  H1086   0.989   .     S
O1087  H1088   0.989   .     S
O1089  H1090   0.976   .     S
O1091  H1092   0.976   .     S
C1093  O1117   1.293   .     A
C1093  O1115   1.303   .     A
C1093  C1104   1.456   .     S
C1094  O1118   1.293   .     A
C1094  O1116   1.303   .     A
C1094  C1103   1.456   .     S
C1095  O1119   1.290   .     A
C1095  O1121   1.295   .     A
C1095  C1097   1.435   .     S
C1096  O1122   1.295   .     A
C1096  O1120   1.290   .     A
C1096  C1098   1.435   .     S
C1098  C1013   1.355   1_655 S
C1098  I1040   2.155   1_655 S
C1099  I1125   2.129   .     S
C1099  C1104   1.413   .     A
C1100  I1126   2.129   .     S
C1100  C1103   1.413   .     A
C1100  C850    1.384   1_565 S
C1101  C1103   1.399   .     A
C1101  H1111   1.083   .     S
C1101  C847    1.384   1_565 S
C1102  C1104   1.399   .     A
C1102  H1112   1.083   .     S
C1105  O1127   1.381   .     S
C1105  N1114   1.358   .     A
C1106  O1129   1.381   .     S
C1106  N1113   1.358   .     A
C1106  C352    1.428   1_556 S
C1107  O1131   1.375   .     S
C1107  N1113   1.390   .     A
C1107  C349    1.428   1_556 S
C1108  N1114   1.390   .     A
C1108  O1133   1.375   .     S
Cu1109 Cu1110  2.695   .     S
Cu1109 O1122   1.978   .     S
Cu1109 O1115   1.970   .     S
Cu1109 O1118   1.974   .     S
Cu1109 O1119   1.983   .     S
Cu1109 N1113   2.025   .     S
Cu1110 O1121   1.978   .     S
Cu1110 O1117   1.974   .     S
Cu1110 O1116   1.970   .     S
Cu1110 O1120   1.983   .     S
Cu1110 N1114   2.025   .     S
I1123  C1013   2.155   1_655 S
O1127  H1128   0.989   .     S
O1129  H1130   0.989   .     S
O1131  H1132   0.976   .     S
O1133  H1134   0.976   .     S
