data_str_m1_o10_o16_pcu_sym.25
_audit_creation_date              2020-01-03
_audit_creation_method            'Materials Studio'
_symmetry_space_group_name_H-M    'P1'
_symmetry_Int_Tables_number       1
_symmetry_cell_setting            triclinic
loop_
_symmetry_equiv_pos_as_xyz
  x,y,z
_cell_length_a                    32.5459
_cell_length_b                    32.5739
_cell_length_c                    30.9554
_cell_angle_alpha                 96.0881
_cell_angle_beta                  74.4210
_cell_angle_gamma                 98.2242
loop_
_atom_site_label
_atom_site_type_symbol
_atom_site_fract_x
_atom_site_fract_y
_atom_site_fract_z
_atom_site_U_iso_or_equiv
_atom_site_adp_type
_atom_site_occupancy
C1     C     0.05277   0.15978   0.26010   0.00000  Uiso   1.00
C2     C     0.16855   0.15222   0.05803   0.00000  Uiso   1.00
C3     C     0.23712   0.13086   0.05678   0.00000  Uiso   1.00
C4     C     0.28085   0.17387   0.24000   0.00000  Uiso   1.00
C5     C     0.14206   0.19383   0.42049   0.00000  Uiso   1.00
C6     C     0.32674   0.17656   0.23580   0.00000  Uiso   1.00
C7     C     0.00745   0.15764   0.26431   0.00000  Uiso   1.00
C8     C     0.17705   0.32147   0.23217   0.00000  Uiso   1.00
C9     C     0.15338   0.01201   0.26435   0.00000  Uiso   1.00
C10    C     0.15634   0.05596   0.26036   0.00000  Uiso   1.00
C11    C     0.17606   0.27777   0.23943   0.00000  Uiso   1.00
C12    C     0.09165   0.20814   0.49221   0.00000  Uiso   1.00
C13    C     0.18562   0.14838   0.12927   0.00000  Uiso   1.00
C14    C     0.14960   0.18575   0.37097   0.00000  Uiso   1.00
C15    C     0.25088   0.13402   0.01006   0.00000  Uiso   1.00
C16    C     0.19624   0.14096   0.08050   0.00000  Uiso   1.00
C17    C     0.10335   0.20881   0.44551   0.00000  Uiso   1.00
C18    C     0.25329   0.08203   0.09539   0.00000  Uiso   1.00
C19    C     0.18656   0.32488   0.15715   0.00000  Uiso   1.00
C20    C     0.27376   0.10842   0.38422   0.00000  Uiso   1.00
C21    C     0.30037   0.08318   0.47731   0.00000  Uiso   1.00
C22    C     0.03858   0.20490   0.42864   0.00000  Uiso   1.00
C23    C     0.11621   0.19059   0.01400   0.00000  Uiso   1.00
C24    C     0.24689   0.23794   0.38984   0.00000  Uiso   1.00
C25    C     0.15592   0.17650   0.49024   0.00000  Uiso   1.00
C26    C     0.17068   0.18235   0.44360   0.00000  Uiso   1.00
C27    C     0.18225   0.15894   0.01187   0.00000  Uiso   1.00
C28    C     0.22391   0.14891   0.48710   0.00000  Uiso   1.00
C29    C     0.23858   0.15723   0.44110   0.00000  Uiso   1.00
C30    C     0.21416   0.17811   0.42164   0.00000  Uiso   1.00
H31    H     0.31898   0.14043   0.29120   0.00000  Uiso   1.00
H32    H     0.15520   0.00356   0.16181   0.00000  Uiso   1.00
H33    H     0.18283   0.29042   0.15129   0.00000  Uiso   1.00
H34    H     0.20881   0.00399   0.12633   0.00000  Uiso   1.00
H35    H     0.29790   0.16925   0.39640   0.00000  Uiso   1.00
H36    H     0.30598   0.09893   0.36730   0.00000  Uiso   1.00
H37    H     0.25810   0.11459   0.35816   0.00000  Uiso   1.00
H38    H     0.25414   0.08242   0.40363   0.00000  Uiso   1.00
H39    H     0.31676   0.14341   0.00159   0.00000  Uiso   1.00
H40    H     0.32859   0.08052   0.44802   0.00000  Uiso   1.00
H41    H     0.27193   0.06433   0.46888   0.00000  Uiso   1.00
H42    H     0.13415   0.33315   0.29580   0.00000  Uiso   1.00
H43    H     0.30698   0.07051   0.00633   0.00000  Uiso   1.00
H44    H     0.01779   0.20914   0.46330   0.00000  Uiso   1.00
H45    H     0.04086   0.17127   0.41848   0.00000  Uiso   1.00
H46    H     0.02294   0.21709   0.40578   0.00000  Uiso   1.00
H47    H     0.26930   0.24274   0.41199   0.00000  Uiso   1.00
H48    H     0.21859   0.25509   0.40485   0.00000  Uiso   1.00
H49    H     0.26421   0.25135   0.35749   0.00000  Uiso   1.00
H50    H     0.13733   0.15815   0.07859   0.00000  Uiso   1.00
H51    H     0.10383   0.19061   0.04988   0.00000  Uiso   1.00
H52    H     0.06288   0.22087   0.01194   0.00000  Uiso   1.00
H53    H     0.01587   0.19392   0.20935   0.00000  Uiso   1.00
H54    H     0.24319   0.05868   0.07003   0.00000  Uiso   1.00
H55    H     0.22721   0.08285   0.12695   0.00000  Uiso   1.00
H56    H     0.28111   0.07138   0.10339   0.00000  Uiso   1.00
N57    N     0.27835   0.14538   0.41371   0.00000  Uiso   1.00
N58    N     0.29371   0.12651   0.48747   0.00000  Uiso   1.00
O59    O     0.16667   0.16667   0.25000   0.00000  Uiso   1.00
O60    O     0.15451   0.12637   0.15459   0.00000  Uiso   1.00
O61    O     0.12940   0.20391   0.34968   0.00000  Uiso   1.00
O62    O     0.20824   0.17759   0.14606   0.00000  Uiso   1.00
O63    O     0.17451   0.15880   0.34968   0.00000  Uiso   1.00
O64    O     0.26601   0.12205   0.07927   0.00000  Uiso   1.00
O65    O     0.20421   0.00507   0.19391   0.00000  Uiso   1.00
O66    O     0.07938   0.22791   0.42444   0.00000  Uiso   1.00
O67    O     0.23421   0.19531   0.38112   0.00000  Uiso   1.00
O68    O     0.17930   0.08019   0.28214   0.00000  Uiso   1.00
O69    O     0.14632   0.26085   0.27014   0.00000  Uiso   1.00
O70    O     0.07412   0.13291   0.23413   0.00000  Uiso   1.00
O71    O     0.26693   0.19272   0.21361   0.00000  Uiso   1.00
O72    O     0.07071   0.18878   0.28213   0.00000  Uiso   1.00
O73    O     0.25491   0.15226   0.27014   0.00000  Uiso   1.00
O74    O     0.13760   0.06944   0.23413   0.00000  Uiso   1.00
O75    O     0.20345   0.25620   0.21361   0.00000  Uiso   1.00
Zn76   Zn    0.19338   0.13994   0.28734   0.00000  Uiso   1.00
Zn77   Zn    0.13379   0.12458   0.21876   0.00000  Uiso   1.00
Zn78   Zn    0.21056   0.19775   0.20657   0.00000  Uiso   1.00
Zn79   Zn    0.12893   0.20439   0.28734   0.00000  Uiso   1.00
C80    C     0.38610   0.15978   0.26010   0.00000  Uiso   1.00
C81    C     0.50189   0.15222   0.05803   0.00000  Uiso   1.00
C82    C     0.57046   0.13086   0.05678   0.00000  Uiso   1.00
C83    C     0.61419   0.17387   0.24000   0.00000  Uiso   1.00
C84    C     0.47539   0.19383   0.42049   0.00000  Uiso   1.00
C85    C     0.66008   0.17656   0.23580   0.00000  Uiso   1.00
C86    C     0.34079   0.15764   0.26431   0.00000  Uiso   1.00
C87    C     0.51038   0.32147   0.23217   0.00000  Uiso   1.00
C88    C     0.48672   0.01201   0.26435   0.00000  Uiso   1.00
C89    C     0.48967   0.05596   0.26036   0.00000  Uiso   1.00
C90    C     0.50939   0.27777   0.23943   0.00000  Uiso   1.00
C91    C     0.42499   0.20814   0.49221   0.00000  Uiso   1.00
C92    C     0.51895   0.14838   0.12927   0.00000  Uiso   1.00
C93    C     0.48293   0.18575   0.37097   0.00000  Uiso   1.00
C94    C     0.58421   0.13402   0.01006   0.00000  Uiso   1.00
C95    C     0.52957   0.14096   0.08050   0.00000  Uiso   1.00
C96    C     0.43668   0.20881   0.44551   0.00000  Uiso   1.00
C97    C     0.58662   0.08203   0.09539   0.00000  Uiso   1.00
C98    C     0.51990   0.32488   0.15715   0.00000  Uiso   1.00
C99    C     0.60709   0.10842   0.38422   0.00000  Uiso   1.00
C100   C     0.63370   0.08318   0.47731   0.00000  Uiso   1.00
C101   C     0.37191   0.20490   0.42864   0.00000  Uiso   1.00
C102   C     0.44955   0.19059   0.01400   0.00000  Uiso   1.00
C103   C     0.58022   0.23794   0.38984   0.00000  Uiso   1.00
C104   C     0.48925   0.17650   0.49024   0.00000  Uiso   1.00
C105   C     0.50401   0.18235   0.44360   0.00000  Uiso   1.00
C106   C     0.51558   0.15894   0.01187   0.00000  Uiso   1.00
C107   C     0.55724   0.14891   0.48710   0.00000  Uiso   1.00
C108   C     0.57191   0.15723   0.44110   0.00000  Uiso   1.00
C109   C     0.54749   0.17811   0.42164   0.00000  Uiso   1.00
H110   H     0.65232   0.14043   0.29120   0.00000  Uiso   1.00
H111   H     0.48853   0.00356   0.16181   0.00000  Uiso   1.00
H112   H     0.51616   0.29042   0.15129   0.00000  Uiso   1.00
H113   H     0.54214   0.00399   0.12633   0.00000  Uiso   1.00
H114   H     0.63123   0.16925   0.39640   0.00000  Uiso   1.00
H115   H     0.63931   0.09893   0.36730   0.00000  Uiso   1.00
H116   H     0.59143   0.11459   0.35816   0.00000  Uiso   1.00
H117   H     0.58747   0.08242   0.40363   0.00000  Uiso   1.00
H118   H     0.65010   0.14341   0.00159   0.00000  Uiso   1.00
H119   H     0.66192   0.08052   0.44802   0.00000  Uiso   1.00
H120   H     0.60527   0.06433   0.46888   0.00000  Uiso   1.00
H121   H     0.46748   0.33315   0.29580   0.00000  Uiso   1.00
H122   H     0.64031   0.07051   0.00633   0.00000  Uiso   1.00
H123   H     0.35112   0.20914   0.46330   0.00000  Uiso   1.00
H124   H     0.37419   0.17127   0.41848   0.00000  Uiso   1.00
H125   H     0.35627   0.21709   0.40578   0.00000  Uiso   1.00
H126   H     0.60263   0.24274   0.41199   0.00000  Uiso   1.00
H127   H     0.55192   0.25509   0.40485   0.00000  Uiso   1.00
H128   H     0.59754   0.25135   0.35749   0.00000  Uiso   1.00
H129   H     0.47067   0.15815   0.07859   0.00000  Uiso   1.00
H130   H     0.43716   0.19061   0.04988   0.00000  Uiso   1.00
H131   H     0.39621   0.22087   0.01194   0.00000  Uiso   1.00
H132   H     0.34920   0.19392   0.20935   0.00000  Uiso   1.00
H133   H     0.57652   0.05868   0.07003   0.00000  Uiso   1.00
H134   H     0.56054   0.08285   0.12695   0.00000  Uiso   1.00
H135   H     0.61444   0.07138   0.10339   0.00000  Uiso   1.00
N136   N     0.61168   0.14538   0.41371   0.00000  Uiso   1.00
N137   N     0.62705   0.12651   0.48747   0.00000  Uiso   1.00
O138   O     0.50000   0.16667   0.25000   0.00000  Uiso   1.00
O139   O     0.48784   0.12637   0.15459   0.00000  Uiso   1.00
O140   O     0.46274   0.20391   0.34968   0.00000  Uiso   1.00
O141   O     0.54157   0.17759   0.14606   0.00000  Uiso   1.00
O142   O     0.50785   0.15880   0.34968   0.00000  Uiso   1.00
O143   O     0.59934   0.12205   0.07927   0.00000  Uiso   1.00
O144   O     0.53754   0.00507   0.19391   0.00000  Uiso   1.00
O145   O     0.41272   0.22791   0.42444   0.00000  Uiso   1.00
O146   O     0.56755   0.19531   0.38112   0.00000  Uiso   1.00
O147   O     0.51264   0.08019   0.28214   0.00000  Uiso   1.00
O148   O     0.47965   0.26085   0.27014   0.00000  Uiso   1.00
O149   O     0.40745   0.13291   0.23413   0.00000  Uiso   1.00
O150   O     0.60026   0.19272   0.21361   0.00000  Uiso   1.00
O151   O     0.40405   0.18878   0.28213   0.00000  Uiso   1.00
O152   O     0.58824   0.15226   0.27014   0.00000  Uiso   1.00
O153   O     0.47093   0.06944   0.23413   0.00000  Uiso   1.00
O154   O     0.53678   0.25620   0.21361   0.00000  Uiso   1.00
Zn155  Zn    0.52672   0.13994   0.28734   0.00000  Uiso   1.00
Zn156  Zn    0.46713   0.12458   0.21876   0.00000  Uiso   1.00
Zn157  Zn    0.54389   0.19775   0.20657   0.00000  Uiso   1.00
Zn158  Zn    0.46226   0.20439   0.28734   0.00000  Uiso   1.00
C159   C     0.71943   0.15978   0.26010   0.00000  Uiso   1.00
C160   C     0.83522   0.15222   0.05803   0.00000  Uiso   1.00
C161   C     0.90379   0.13086   0.05678   0.00000  Uiso   1.00
C162   C     0.94752   0.17387   0.24000   0.00000  Uiso   1.00
C163   C     0.80873   0.19383   0.42049   0.00000  Uiso   1.00
C164   C     0.99341   0.17656   0.23580   0.00000  Uiso   1.00
C165   C     0.67412   0.15764   0.26431   0.00000  Uiso   1.00
C166   C     0.84371   0.32147   0.23217   0.00000  Uiso   1.00
C167   C     0.82005   0.01201   0.26435   0.00000  Uiso   1.00
C168   C     0.82301   0.05596   0.26036   0.00000  Uiso   1.00
C169   C     0.84273   0.27777   0.23943   0.00000  Uiso   1.00
C170   C     0.75832   0.20814   0.49221   0.00000  Uiso   1.00
C171   C     0.85228   0.14838   0.12927   0.00000  Uiso   1.00
C172   C     0.81626   0.18575   0.37097   0.00000  Uiso   1.00
C173   C     0.91755   0.13402   0.01006   0.00000  Uiso   1.00
C174   C     0.86290   0.14096   0.08050   0.00000  Uiso   1.00
C175   C     0.77002   0.20881   0.44551   0.00000  Uiso   1.00
C176   C     0.91995   0.08203   0.09539   0.00000  Uiso   1.00
C177   C     0.85323   0.32488   0.15715   0.00000  Uiso   1.00
C178   C     0.94043   0.10842   0.38422   0.00000  Uiso   1.00
C179   C     0.96704   0.08318   0.47731   0.00000  Uiso   1.00
C180   C     0.70525   0.20490   0.42864   0.00000  Uiso   1.00
C181   C     0.78288   0.19059   0.01400   0.00000  Uiso   1.00
C182   C     0.91355   0.23794   0.38984   0.00000  Uiso   1.00
C183   C     0.82259   0.17650   0.49024   0.00000  Uiso   1.00
C184   C     0.83735   0.18235   0.44360   0.00000  Uiso   1.00
C185   C     0.84892   0.15894   0.01187   0.00000  Uiso   1.00
C186   C     0.89058   0.14891   0.48710   0.00000  Uiso   1.00
C187   C     0.90525   0.15723   0.44110   0.00000  Uiso   1.00
C188   C     0.88083   0.17811   0.42164   0.00000  Uiso   1.00
H189   H     0.98565   0.14043   0.29120   0.00000  Uiso   1.00
H190   H     0.82187   0.00356   0.16181   0.00000  Uiso   1.00
H191   H     0.84949   0.29042   0.15129   0.00000  Uiso   1.00
H192   H     0.87547   0.00399   0.12633   0.00000  Uiso   1.00
H193   H     0.96457   0.16925   0.39640   0.00000  Uiso   1.00
H194   H     0.97265   0.09893   0.36730   0.00000  Uiso   1.00
H195   H     0.92476   0.11459   0.35816   0.00000  Uiso   1.00
H196   H     0.92081   0.08242   0.40363   0.00000  Uiso   1.00
H197   H     0.98343   0.14341   0.00159   0.00000  Uiso   1.00
H198   H     0.99525   0.08052   0.44802   0.00000  Uiso   1.00
H199   H     0.93860   0.06433   0.46888   0.00000  Uiso   1.00
H200   H     0.80082   0.33315   0.29580   0.00000  Uiso   1.00
H201   H     0.97364   0.07051   0.00633   0.00000  Uiso   1.00
H202   H     0.68445   0.20914   0.46330   0.00000  Uiso   1.00
H203   H     0.70752   0.17127   0.41848   0.00000  Uiso   1.00
H204   H     0.68961   0.21709   0.40578   0.00000  Uiso   1.00
H205   H     0.93597   0.24274   0.41199   0.00000  Uiso   1.00
H206   H     0.88526   0.25509   0.40485   0.00000  Uiso   1.00
H207   H     0.93087   0.25135   0.35749   0.00000  Uiso   1.00
H208   H     0.80400   0.15815   0.07859   0.00000  Uiso   1.00
H209   H     0.77050   0.19061   0.04988   0.00000  Uiso   1.00
H210   H     0.72955   0.22087   0.01194   0.00000  Uiso   1.00
H211   H     0.68254   0.19392   0.20935   0.00000  Uiso   1.00
H212   H     0.90986   0.05868   0.07003   0.00000  Uiso   1.00
H213   H     0.89388   0.08285   0.12695   0.00000  Uiso   1.00
H214   H     0.94778   0.07138   0.10339   0.00000  Uiso   1.00
N215   N     0.94501   0.14538   0.41371   0.00000  Uiso   1.00
N216   N     0.96038   0.12651   0.48747   0.00000  Uiso   1.00
O217   O     0.83333   0.16667   0.25000   0.00000  Uiso   1.00
O218   O     0.82118   0.12637   0.15459   0.00000  Uiso   1.00
O219   O     0.79607   0.20391   0.34968   0.00000  Uiso   1.00
O220   O     0.87491   0.17759   0.14606   0.00000  Uiso   1.00
O221   O     0.84118   0.15880   0.34968   0.00000  Uiso   1.00
O222   O     0.93268   0.12205   0.07927   0.00000  Uiso   1.00
O223   O     0.87088   0.00507   0.19391   0.00000  Uiso   1.00
O224   O     0.74605   0.22791   0.42444   0.00000  Uiso   1.00
O225   O     0.90088   0.19531   0.38112   0.00000  Uiso   1.00
O226   O     0.84597   0.08019   0.28214   0.00000  Uiso   1.00
O227   O     0.81298   0.26085   0.27014   0.00000  Uiso   1.00
O228   O     0.74078   0.13291   0.23413   0.00000  Uiso   1.00
O229   O     0.93360   0.19272   0.21361   0.00000  Uiso   1.00
O230   O     0.73738   0.18878   0.28213   0.00000  Uiso   1.00
O231   O     0.92158   0.15226   0.27014   0.00000  Uiso   1.00
O232   O     0.80426   0.06944   0.23413   0.00000  Uiso   1.00
O233   O     0.87012   0.25620   0.21361   0.00000  Uiso   1.00
Zn234  Zn    0.86005   0.13994   0.28734   0.00000  Uiso   1.00
Zn235  Zn    0.80046   0.12458   0.21876   0.00000  Uiso   1.00
Zn236  Zn    0.87723   0.19775   0.20657   0.00000  Uiso   1.00
Zn237  Zn    0.79560   0.20439   0.28734   0.00000  Uiso   1.00
C238   C     0.05277   0.49312   0.26010   0.00000  Uiso   1.00
C239   C     0.16855   0.48555   0.05803   0.00000  Uiso   1.00
C240   C     0.23712   0.46420   0.05678   0.00000  Uiso   1.00
C241   C     0.28085   0.50721   0.24000   0.00000  Uiso   1.00
C242   C     0.14206   0.52716   0.42049   0.00000  Uiso   1.00
C243   C     0.32674   0.50990   0.23580   0.00000  Uiso   1.00
C244   C     0.00745   0.49097   0.26431   0.00000  Uiso   1.00
C245   C     0.17705   0.65480   0.23217   0.00000  Uiso   1.00
C246   C     0.15338   0.34534   0.26435   0.00000  Uiso   1.00
C247   C     0.15634   0.38929   0.26036   0.00000  Uiso   1.00
C248   C     0.17606   0.61111   0.23943   0.00000  Uiso   1.00
C249   C     0.09165   0.54147   0.49221   0.00000  Uiso   1.00
C250   C     0.18562   0.48171   0.12927   0.00000  Uiso   1.00
C251   C     0.14960   0.51908   0.37097   0.00000  Uiso   1.00
C252   C     0.25088   0.46735   0.01006   0.00000  Uiso   1.00
C253   C     0.19624   0.47429   0.08050   0.00000  Uiso   1.00
C254   C     0.10335   0.54215   0.44551   0.00000  Uiso   1.00
C255   C     0.25329   0.41536   0.09539   0.00000  Uiso   1.00
C256   C     0.18656   0.65822   0.15715   0.00000  Uiso   1.00
C257   C     0.27376   0.44175   0.38422   0.00000  Uiso   1.00
C258   C     0.30037   0.41651   0.47731   0.00000  Uiso   1.00
C259   C     0.03858   0.53823   0.42864   0.00000  Uiso   1.00
C260   C     0.11621   0.52393   0.01400   0.00000  Uiso   1.00
C261   C     0.24689   0.57128   0.38984   0.00000  Uiso   1.00
C262   C     0.15592   0.50983   0.49024   0.00000  Uiso   1.00
C263   C     0.17068   0.51568   0.44360   0.00000  Uiso   1.00
C264   C     0.18225   0.49227   0.01187   0.00000  Uiso   1.00
C265   C     0.22391   0.48225   0.48710   0.00000  Uiso   1.00
C266   C     0.23858   0.49057   0.44110   0.00000  Uiso   1.00
C267   C     0.21416   0.51144   0.42164   0.00000  Uiso   1.00
H268   H     0.31898   0.47376   0.29120   0.00000  Uiso   1.00
H269   H     0.15520   0.33689   0.16181   0.00000  Uiso   1.00
H270   H     0.18283   0.62375   0.15129   0.00000  Uiso   1.00
H271   H     0.20881   0.33732   0.12633   0.00000  Uiso   1.00
H272   H     0.29790   0.50258   0.39640   0.00000  Uiso   1.00
H273   H     0.30598   0.43227   0.36730   0.00000  Uiso   1.00
H274   H     0.25810   0.44792   0.35816   0.00000  Uiso   1.00
H275   H     0.25414   0.41575   0.40363   0.00000  Uiso   1.00
H276   H     0.31676   0.47675   0.00159   0.00000  Uiso   1.00
H277   H     0.32859   0.41386   0.44802   0.00000  Uiso   1.00
H278   H     0.27193   0.39766   0.46888   0.00000  Uiso   1.00
H279   H     0.13415   0.66649   0.29580   0.00000  Uiso   1.00
H280   H     0.30698   0.40384   0.00633   0.00000  Uiso   1.00
H281   H     0.01779   0.54247   0.46330   0.00000  Uiso   1.00
H282   H     0.04086   0.50460   0.41848   0.00000  Uiso   1.00
H283   H     0.02294   0.55042   0.40578   0.00000  Uiso   1.00
H284   H     0.26930   0.57607   0.41199   0.00000  Uiso   1.00
H285   H     0.21859   0.58842   0.40485   0.00000  Uiso   1.00
H286   H     0.26421   0.58468   0.35749   0.00000  Uiso   1.00
H287   H     0.13733   0.49148   0.07859   0.00000  Uiso   1.00
H288   H     0.10383   0.52395   0.04988   0.00000  Uiso   1.00
H289   H     0.06288   0.55421   0.01194   0.00000  Uiso   1.00
H290   H     0.01587   0.52725   0.20935   0.00000  Uiso   1.00
H291   H     0.24319   0.39202   0.07003   0.00000  Uiso   1.00
H292   H     0.22721   0.41618   0.12695   0.00000  Uiso   1.00
H293   H     0.28111   0.40472   0.10339   0.00000  Uiso   1.00
N294   N     0.27835   0.47871   0.41371   0.00000  Uiso   1.00
N295   N     0.29371   0.45985   0.48747   0.00000  Uiso   1.00
O296   O     0.16667   0.50000   0.25000   0.00000  Uiso   1.00
O297   O     0.15451   0.45970   0.15459   0.00000  Uiso   1.00
O298   O     0.12940   0.53724   0.34968   0.00000  Uiso   1.00
O299   O     0.20824   0.51092   0.14606   0.00000  Uiso   1.00
O300   O     0.17451   0.49213   0.34968   0.00000  Uiso   1.00
O301   O     0.26601   0.45538   0.07927   0.00000  Uiso   1.00
O302   O     0.20421   0.33840   0.19391   0.00000  Uiso   1.00
O303   O     0.07938   0.56124   0.42444   0.00000  Uiso   1.00
O304   O     0.23421   0.52864   0.38112   0.00000  Uiso   1.00
O305   O     0.17930   0.41352   0.28214   0.00000  Uiso   1.00
O306   O     0.14632   0.59418   0.27014   0.00000  Uiso   1.00
O307   O     0.07412   0.46625   0.23413   0.00000  Uiso   1.00
O308   O     0.26693   0.52605   0.21361   0.00000  Uiso   1.00
O309   O     0.07071   0.52211   0.28213   0.00000  Uiso   1.00
O310   O     0.25491   0.48559   0.27014   0.00000  Uiso   1.00
O311   O     0.13760   0.40277   0.23413   0.00000  Uiso   1.00
O312   O     0.20345   0.58953   0.21361   0.00000  Uiso   1.00
Zn313  Zn    0.19338   0.47327   0.28734   0.00000  Uiso   1.00
Zn314  Zn    0.13379   0.45791   0.21876   0.00000  Uiso   1.00
Zn315  Zn    0.21056   0.53109   0.20657   0.00000  Uiso   1.00
Zn316  Zn    0.12893   0.53773   0.28734   0.00000  Uiso   1.00
C317   C     0.38610   0.49312   0.26010   0.00000  Uiso   1.00
C318   C     0.50189   0.48555   0.05803   0.00000  Uiso   1.00
C319   C     0.57046   0.46420   0.05678   0.00000  Uiso   1.00
C320   C     0.61419   0.50721   0.24000   0.00000  Uiso   1.00
C321   C     0.47539   0.52716   0.42049   0.00000  Uiso   1.00
C322   C     0.66008   0.50990   0.23580   0.00000  Uiso   1.00
C323   C     0.34079   0.49097   0.26431   0.00000  Uiso   1.00
C324   C     0.51038   0.65480   0.23217   0.00000  Uiso   1.00
C325   C     0.48672   0.34534   0.26435   0.00000  Uiso   1.00
C326   C     0.48967   0.38929   0.26036   0.00000  Uiso   1.00
C327   C     0.50939   0.61111   0.23943   0.00000  Uiso   1.00
C328   C     0.42499   0.54147   0.49221   0.00000  Uiso   1.00
C329   C     0.51895   0.48171   0.12927   0.00000  Uiso   1.00
C330   C     0.48293   0.51908   0.37097   0.00000  Uiso   1.00
C331   C     0.58421   0.46735   0.01006   0.00000  Uiso   1.00
C332   C     0.52957   0.47429   0.08050   0.00000  Uiso   1.00
C333   C     0.43668   0.54215   0.44551   0.00000  Uiso   1.00
C334   C     0.58662   0.41536   0.09539   0.00000  Uiso   1.00
C335   C     0.51990   0.65822   0.15715   0.00000  Uiso   1.00
C336   C     0.60709   0.44175   0.38422   0.00000  Uiso   1.00
C337   C     0.63370   0.41651   0.47731   0.00000  Uiso   1.00
C338   C     0.37191   0.53823   0.42864   0.00000  Uiso   1.00
C339   C     0.44955   0.52393   0.01400   0.00000  Uiso   1.00
C340   C     0.58022   0.57128   0.38984   0.00000  Uiso   1.00
C341   C     0.48925   0.50983   0.49024   0.00000  Uiso   1.00
C342   C     0.50401   0.51568   0.44360   0.00000  Uiso   1.00
C343   C     0.51558   0.49227   0.01187   0.00000  Uiso   1.00
C344   C     0.55724   0.48225   0.48710   0.00000  Uiso   1.00
C345   C     0.57191   0.49057   0.44110   0.00000  Uiso   1.00
C346   C     0.54749   0.51144   0.42164   0.00000  Uiso   1.00
H347   H     0.65232   0.47376   0.29120   0.00000  Uiso   1.00
H348   H     0.48853   0.33689   0.16181   0.00000  Uiso   1.00
H349   H     0.51616   0.62375   0.15129   0.00000  Uiso   1.00
H350   H     0.54214   0.33732   0.12633   0.00000  Uiso   1.00
H351   H     0.63123   0.50258   0.39640   0.00000  Uiso   1.00
H352   H     0.63931   0.43227   0.36730   0.00000  Uiso   1.00
H353   H     0.59143   0.44792   0.35816   0.00000  Uiso   1.00
H354   H     0.58747   0.41575   0.40363   0.00000  Uiso   1.00
H355   H     0.65010   0.47675   0.00159   0.00000  Uiso   1.00
H356   H     0.66192   0.41386   0.44802   0.00000  Uiso   1.00
H357   H     0.60527   0.39766   0.46888   0.00000  Uiso   1.00
H358   H     0.46748   0.66649   0.29580   0.00000  Uiso   1.00
H359   H     0.64031   0.40384   0.00633   0.00000  Uiso   1.00
H360   H     0.35112   0.54247   0.46330   0.00000  Uiso   1.00
H361   H     0.37419   0.50460   0.41848   0.00000  Uiso   1.00
H362   H     0.35627   0.55042   0.40578   0.00000  Uiso   1.00
H363   H     0.60263   0.57607   0.41199   0.00000  Uiso   1.00
H364   H     0.55192   0.58842   0.40485   0.00000  Uiso   1.00
H365   H     0.59754   0.58468   0.35749   0.00000  Uiso   1.00
H366   H     0.47067   0.49148   0.07859   0.00000  Uiso   1.00
H367   H     0.43716   0.52395   0.04988   0.00000  Uiso   1.00
H368   H     0.39621   0.55421   0.01194   0.00000  Uiso   1.00
H369   H     0.34920   0.52725   0.20935   0.00000  Uiso   1.00
H370   H     0.57652   0.39202   0.07003   0.00000  Uiso   1.00
H371   H     0.56054   0.41618   0.12695   0.00000  Uiso   1.00
H372   H     0.61444   0.40472   0.10339   0.00000  Uiso   1.00
N373   N     0.61168   0.47871   0.41371   0.00000  Uiso   1.00
N374   N     0.62705   0.45985   0.48747   0.00000  Uiso   1.00
O375   O     0.50000   0.50000   0.25000   0.00000  Uiso   1.00
O376   O     0.48784   0.45970   0.15459   0.00000  Uiso   1.00
O377   O     0.46274   0.53724   0.34968   0.00000  Uiso   1.00
O378   O     0.54157   0.51092   0.14606   0.00000  Uiso   1.00
O379   O     0.50785   0.49213   0.34968   0.00000  Uiso   1.00
O380   O     0.59934   0.45538   0.07927   0.00000  Uiso   1.00
O381   O     0.53754   0.33840   0.19391   0.00000  Uiso   1.00
O382   O     0.41272   0.56124   0.42444   0.00000  Uiso   1.00
O383   O     0.56755   0.52864   0.38112   0.00000  Uiso   1.00
O384   O     0.51264   0.41352   0.28214   0.00000  Uiso   1.00
O385   O     0.47965   0.59418   0.27014   0.00000  Uiso   1.00
O386   O     0.40745   0.46625   0.23413   0.00000  Uiso   1.00
O387   O     0.60026   0.52605   0.21361   0.00000  Uiso   1.00
O388   O     0.40405   0.52211   0.28213   0.00000  Uiso   1.00
O389   O     0.58824   0.48559   0.27014   0.00000  Uiso   1.00
O390   O     0.47093   0.40277   0.23413   0.00000  Uiso   1.00
O391   O     0.53678   0.58953   0.21361   0.00000  Uiso   1.00
Zn392  Zn    0.52672   0.47327   0.28734   0.00000  Uiso   1.00
Zn393  Zn    0.46713   0.45791   0.21876   0.00000  Uiso   1.00
Zn394  Zn    0.54389   0.53109   0.20657   0.00000  Uiso   1.00
Zn395  Zn    0.46226   0.53773   0.28734   0.00000  Uiso   1.00
C396   C     0.71943   0.49312   0.26010   0.00000  Uiso   1.00
C397   C     0.83522   0.48555   0.05803   0.00000  Uiso   1.00
C398   C     0.90379   0.46420   0.05678   0.00000  Uiso   1.00
C399   C     0.94752   0.50721   0.24000   0.00000  Uiso   1.00
C400   C     0.80873   0.52716   0.42049   0.00000  Uiso   1.00
C401   C     0.99341   0.50990   0.23580   0.00000  Uiso   1.00
C402   C     0.67412   0.49097   0.26431   0.00000  Uiso   1.00
C403   C     0.84371   0.65480   0.23217   0.00000  Uiso   1.00
C404   C     0.82005   0.34534   0.26435   0.00000  Uiso   1.00
C405   C     0.82301   0.38929   0.26036   0.00000  Uiso   1.00
C406   C     0.84273   0.61111   0.23943   0.00000  Uiso   1.00
C407   C     0.75832   0.54147   0.49221   0.00000  Uiso   1.00
C408   C     0.85228   0.48171   0.12927   0.00000  Uiso   1.00
C409   C     0.81626   0.51908   0.37097   0.00000  Uiso   1.00
C410   C     0.91755   0.46735   0.01006   0.00000  Uiso   1.00
C411   C     0.86290   0.47429   0.08050   0.00000  Uiso   1.00
C412   C     0.77002   0.54215   0.44551   0.00000  Uiso   1.00
C413   C     0.91995   0.41536   0.09539   0.00000  Uiso   1.00
C414   C     0.85323   0.65822   0.15715   0.00000  Uiso   1.00
C415   C     0.94043   0.44175   0.38422   0.00000  Uiso   1.00
C416   C     0.96704   0.41651   0.47731   0.00000  Uiso   1.00
C417   C     0.70525   0.53823   0.42864   0.00000  Uiso   1.00
C418   C     0.78288   0.52393   0.01400   0.00000  Uiso   1.00
C419   C     0.91355   0.57128   0.38984   0.00000  Uiso   1.00
C420   C     0.82259   0.50983   0.49024   0.00000  Uiso   1.00
C421   C     0.83735   0.51568   0.44360   0.00000  Uiso   1.00
C422   C     0.84892   0.49227   0.01187   0.00000  Uiso   1.00
C423   C     0.89058   0.48225   0.48710   0.00000  Uiso   1.00
C424   C     0.90525   0.49057   0.44110   0.00000  Uiso   1.00
C425   C     0.88083   0.51144   0.42164   0.00000  Uiso   1.00
H426   H     0.98565   0.47376   0.29120   0.00000  Uiso   1.00
H427   H     0.82187   0.33689   0.16181   0.00000  Uiso   1.00
H428   H     0.84949   0.62375   0.15129   0.00000  Uiso   1.00
H429   H     0.87547   0.33732   0.12633   0.00000  Uiso   1.00
H430   H     0.96457   0.50258   0.39640   0.00000  Uiso   1.00
H431   H     0.97265   0.43227   0.36730   0.00000  Uiso   1.00
H432   H     0.92476   0.44792   0.35816   0.00000  Uiso   1.00
H433   H     0.92081   0.41575   0.40363   0.00000  Uiso   1.00
H434   H     0.98343   0.47675   0.00159   0.00000  Uiso   1.00
H435   H     0.99525   0.41386   0.44802   0.00000  Uiso   1.00
H436   H     0.93860   0.39766   0.46888   0.00000  Uiso   1.00
H437   H     0.80082   0.66649   0.29580   0.00000  Uiso   1.00
H438   H     0.97364   0.40384   0.00633   0.00000  Uiso   1.00
H439   H     0.68445   0.54247   0.46330   0.00000  Uiso   1.00
H440   H     0.70752   0.50460   0.41848   0.00000  Uiso   1.00
H441   H     0.68961   0.55042   0.40578   0.00000  Uiso   1.00
H442   H     0.93597   0.57607   0.41199   0.00000  Uiso   1.00
H443   H     0.88526   0.58842   0.40485   0.00000  Uiso   1.00
H444   H     0.93087   0.58468   0.35749   0.00000  Uiso   1.00
H445   H     0.80400   0.49148   0.07859   0.00000  Uiso   1.00
H446   H     0.77050   0.52395   0.04988   0.00000  Uiso   1.00
H447   H     0.72955   0.55421   0.01194   0.00000  Uiso   1.00
H448   H     0.68254   0.52725   0.20935   0.00000  Uiso   1.00
H449   H     0.90986   0.39202   0.07003   0.00000  Uiso   1.00
H450   H     0.89388   0.41618   0.12695   0.00000  Uiso   1.00
H451   H     0.94778   0.40472   0.10339   0.00000  Uiso   1.00
N452   N     0.94501   0.47871   0.41371   0.00000  Uiso   1.00
N453   N     0.96038   0.45985   0.48747   0.00000  Uiso   1.00
O454   O     0.83333   0.50000   0.25000   0.00000  Uiso   1.00
O455   O     0.82118   0.45970   0.15459   0.00000  Uiso   1.00
O456   O     0.79607   0.53724   0.34968   0.00000  Uiso   1.00
O457   O     0.87491   0.51092   0.14606   0.00000  Uiso   1.00
O458   O     0.84118   0.49213   0.34968   0.00000  Uiso   1.00
O459   O     0.93268   0.45538   0.07927   0.00000  Uiso   1.00
O460   O     0.87088   0.33840   0.19391   0.00000  Uiso   1.00
O461   O     0.74605   0.56124   0.42444   0.00000  Uiso   1.00
O462   O     0.90088   0.52864   0.38112   0.00000  Uiso   1.00
O463   O     0.84597   0.41352   0.28214   0.00000  Uiso   1.00
O464   O     0.81298   0.59418   0.27014   0.00000  Uiso   1.00
O465   O     0.74078   0.46625   0.23413   0.00000  Uiso   1.00
O466   O     0.93360   0.52605   0.21361   0.00000  Uiso   1.00
O467   O     0.73738   0.52211   0.28213   0.00000  Uiso   1.00
O468   O     0.92158   0.48559   0.27014   0.00000  Uiso   1.00
O469   O     0.80426   0.40277   0.23413   0.00000  Uiso   1.00
O470   O     0.87012   0.58953   0.21361   0.00000  Uiso   1.00
Zn471  Zn    0.86005   0.47327   0.28734   0.00000  Uiso   1.00
Zn472  Zn    0.80046   0.45791   0.21876   0.00000  Uiso   1.00
Zn473  Zn    0.87723   0.53109   0.20657   0.00000  Uiso   1.00
Zn474  Zn    0.79560   0.53773   0.28734   0.00000  Uiso   1.00
C475   C     0.05277   0.82645   0.26010   0.00000  Uiso   1.00
C476   C     0.16855   0.81888   0.05803   0.00000  Uiso   1.00
C477   C     0.23712   0.79753   0.05678   0.00000  Uiso   1.00
C478   C     0.28085   0.84054   0.24000   0.00000  Uiso   1.00
C479   C     0.14206   0.86050   0.42049   0.00000  Uiso   1.00
C480   C     0.32674   0.84323   0.23580   0.00000  Uiso   1.00
C481   C     0.00745   0.82430   0.26431   0.00000  Uiso   1.00
C482   C     0.17705   0.98813   0.23217   0.00000  Uiso   1.00
C483   C     0.15338   0.67867   0.26435   0.00000  Uiso   1.00
C484   C     0.15634   0.72262   0.26036   0.00000  Uiso   1.00
C485   C     0.17606   0.94444   0.23943   0.00000  Uiso   1.00
C486   C     0.09165   0.87481   0.49221   0.00000  Uiso   1.00
C487   C     0.18562   0.81504   0.12927   0.00000  Uiso   1.00
C488   C     0.14960   0.85242   0.37097   0.00000  Uiso   1.00
C489   C     0.25088   0.80068   0.01006   0.00000  Uiso   1.00
C490   C     0.19624   0.80762   0.08050   0.00000  Uiso   1.00
C491   C     0.10335   0.87548   0.44551   0.00000  Uiso   1.00
C492   C     0.25329   0.74870   0.09539   0.00000  Uiso   1.00
C493   C     0.18656   0.99155   0.15715   0.00000  Uiso   1.00
C494   C     0.27376   0.77508   0.38422   0.00000  Uiso   1.00
C495   C     0.30037   0.74985   0.47731   0.00000  Uiso   1.00
C496   C     0.03858   0.87157   0.42864   0.00000  Uiso   1.00
C497   C     0.11621   0.85726   0.01400   0.00000  Uiso   1.00
C498   C     0.24689   0.90461   0.38984   0.00000  Uiso   1.00
C499   C     0.15592   0.84317   0.49024   0.00000  Uiso   1.00
C500   C     0.17068   0.84902   0.44360   0.00000  Uiso   1.00
C501   C     0.18225   0.82561   0.01187   0.00000  Uiso   1.00
C502   C     0.22391   0.81558   0.48710   0.00000  Uiso   1.00
C503   C     0.23858   0.82390   0.44110   0.00000  Uiso   1.00
C504   C     0.21416   0.84478   0.42164   0.00000  Uiso   1.00
H505   H     0.31898   0.80710   0.29120   0.00000  Uiso   1.00
H506   H     0.15520   0.67022   0.16181   0.00000  Uiso   1.00
H507   H     0.18283   0.95709   0.15129   0.00000  Uiso   1.00
H508   H     0.20881   0.67066   0.12633   0.00000  Uiso   1.00
H509   H     0.29790   0.83592   0.39640   0.00000  Uiso   1.00
H510   H     0.30598   0.76560   0.36730   0.00000  Uiso   1.00
H511   H     0.25810   0.78126   0.35816   0.00000  Uiso   1.00
H512   H     0.25414   0.74908   0.40363   0.00000  Uiso   1.00
H513   H     0.31676   0.81008   0.00159   0.00000  Uiso   1.00
H514   H     0.32859   0.74719   0.44802   0.00000  Uiso   1.00
H515   H     0.27193   0.73099   0.46888   0.00000  Uiso   1.00
H516   H     0.13415   0.99982   0.29580   0.00000  Uiso   1.00
H517   H     0.30698   0.73717   0.00633   0.00000  Uiso   1.00
H518   H     0.01779   0.87580   0.46330   0.00000  Uiso   1.00
H519   H     0.04086   0.83793   0.41848   0.00000  Uiso   1.00
H520   H     0.02294   0.88376   0.40578   0.00000  Uiso   1.00
H521   H     0.26930   0.90941   0.41199   0.00000  Uiso   1.00
H522   H     0.21859   0.92175   0.40485   0.00000  Uiso   1.00
H523   H     0.26421   0.91802   0.35749   0.00000  Uiso   1.00
H524   H     0.13733   0.82481   0.07859   0.00000  Uiso   1.00
H525   H     0.10383   0.85728   0.04988   0.00000  Uiso   1.00
H526   H     0.06288   0.88754   0.01194   0.00000  Uiso   1.00
H527   H     0.01587   0.86059   0.20935   0.00000  Uiso   1.00
H528   H     0.24319   0.72535   0.07003   0.00000  Uiso   1.00
H529   H     0.22721   0.74951   0.12695   0.00000  Uiso   1.00
H530   H     0.28111   0.73805   0.10339   0.00000  Uiso   1.00
N531   N     0.27835   0.81205   0.41371   0.00000  Uiso   1.00
N532   N     0.29371   0.79318   0.48747   0.00000  Uiso   1.00
O533   O     0.16667   0.83333   0.25000   0.00000  Uiso   1.00
O534   O     0.15451   0.79304   0.15459   0.00000  Uiso   1.00
O535   O     0.12940   0.87058   0.34968   0.00000  Uiso   1.00
O536   O     0.20824   0.84425   0.14606   0.00000  Uiso   1.00
O537   O     0.17451   0.82546   0.34968   0.00000  Uiso   1.00
O538   O     0.26601   0.78872   0.07927   0.00000  Uiso   1.00
O539   O     0.20421   0.67174   0.19391   0.00000  Uiso   1.00
O540   O     0.07938   0.89457   0.42444   0.00000  Uiso   1.00
O541   O     0.23421   0.86198   0.38112   0.00000  Uiso   1.00
O542   O     0.17930   0.74686   0.28214   0.00000  Uiso   1.00
O543   O     0.14632   0.92751   0.27014   0.00000  Uiso   1.00
O544   O     0.07412   0.79958   0.23413   0.00000  Uiso   1.00
O545   O     0.26693   0.85939   0.21361   0.00000  Uiso   1.00
O546   O     0.07071   0.85544   0.28213   0.00000  Uiso   1.00
O547   O     0.25491   0.81892   0.27014   0.00000  Uiso   1.00
O548   O     0.13760   0.73610   0.23413   0.00000  Uiso   1.00
O549   O     0.20345   0.92286   0.21361   0.00000  Uiso   1.00
Zn550  Zn    0.19338   0.80661   0.28734   0.00000  Uiso   1.00
Zn551  Zn    0.13379   0.79124   0.21876   0.00000  Uiso   1.00
Zn552  Zn    0.21056   0.86442   0.20657   0.00000  Uiso   1.00
Zn553  Zn    0.12893   0.87106   0.28734   0.00000  Uiso   1.00
C554   C     0.38610   0.82645   0.26010   0.00000  Uiso   1.00
C555   C     0.50189   0.81888   0.05803   0.00000  Uiso   1.00
C556   C     0.57046   0.79753   0.05678   0.00000  Uiso   1.00
C557   C     0.61419   0.84054   0.24000   0.00000  Uiso   1.00
C558   C     0.47539   0.86050   0.42049   0.00000  Uiso   1.00
C559   C     0.66008   0.84323   0.23580   0.00000  Uiso   1.00
C560   C     0.34079   0.82430   0.26431   0.00000  Uiso   1.00
C561   C     0.51038   0.98813   0.23217   0.00000  Uiso   1.00
C562   C     0.48672   0.67867   0.26435   0.00000  Uiso   1.00
C563   C     0.48967   0.72262   0.26036   0.00000  Uiso   1.00
C564   C     0.50939   0.94444   0.23943   0.00000  Uiso   1.00
C565   C     0.42499   0.87481   0.49221   0.00000  Uiso   1.00
C566   C     0.51895   0.81504   0.12927   0.00000  Uiso   1.00
C567   C     0.48293   0.85242   0.37097   0.00000  Uiso   1.00
C568   C     0.58421   0.80068   0.01006   0.00000  Uiso   1.00
C569   C     0.52957   0.80762   0.08050   0.00000  Uiso   1.00
C570   C     0.43668   0.87548   0.44551   0.00000  Uiso   1.00
C571   C     0.58662   0.74870   0.09539   0.00000  Uiso   1.00
C572   C     0.51990   0.99155   0.15715   0.00000  Uiso   1.00
C573   C     0.60709   0.77508   0.38422   0.00000  Uiso   1.00
C574   C     0.63370   0.74985   0.47731   0.00000  Uiso   1.00
C575   C     0.37191   0.87157   0.42864   0.00000  Uiso   1.00
C576   C     0.44955   0.85726   0.01400   0.00000  Uiso   1.00
C577   C     0.58022   0.90461   0.38984   0.00000  Uiso   1.00
C578   C     0.48925   0.84317   0.49024   0.00000  Uiso   1.00
C579   C     0.50401   0.84902   0.44360   0.00000  Uiso   1.00
C580   C     0.51558   0.82561   0.01187   0.00000  Uiso   1.00
C581   C     0.55724   0.81558   0.48710   0.00000  Uiso   1.00
C582   C     0.57191   0.82390   0.44110   0.00000  Uiso   1.00
C583   C     0.54749   0.84478   0.42164   0.00000  Uiso   1.00
H584   H     0.65232   0.80710   0.29120   0.00000  Uiso   1.00
H585   H     0.48853   0.67022   0.16181   0.00000  Uiso   1.00
H586   H     0.51616   0.95709   0.15129   0.00000  Uiso   1.00
H587   H     0.54214   0.67066   0.12633   0.00000  Uiso   1.00
H588   H     0.63123   0.83592   0.39640   0.00000  Uiso   1.00
H589   H     0.63931   0.76560   0.36730   0.00000  Uiso   1.00
H590   H     0.59143   0.78126   0.35816   0.00000  Uiso   1.00
H591   H     0.58747   0.74908   0.40363   0.00000  Uiso   1.00
H592   H     0.65010   0.81008   0.00159   0.00000  Uiso   1.00
H593   H     0.66192   0.74719   0.44802   0.00000  Uiso   1.00
H594   H     0.60527   0.73099   0.46888   0.00000  Uiso   1.00
H595   H     0.46748   0.99982   0.29580   0.00000  Uiso   1.00
H596   H     0.64031   0.73717   0.00633   0.00000  Uiso   1.00
H597   H     0.35112   0.87580   0.46330   0.00000  Uiso   1.00
H598   H     0.37419   0.83793   0.41848   0.00000  Uiso   1.00
H599   H     0.35627   0.88376   0.40578   0.00000  Uiso   1.00
H600   H     0.60263   0.90941   0.41199   0.00000  Uiso   1.00
H601   H     0.55192   0.92175   0.40485   0.00000  Uiso   1.00
H602   H     0.59754   0.91802   0.35749   0.00000  Uiso   1.00
H603   H     0.47067   0.82481   0.07859   0.00000  Uiso   1.00
H604   H     0.43716   0.85728   0.04988   0.00000  Uiso   1.00
H605   H     0.39621   0.88754   0.01194   0.00000  Uiso   1.00
H606   H     0.34920   0.86059   0.20935   0.00000  Uiso   1.00
H607   H     0.57652   0.72535   0.07003   0.00000  Uiso   1.00
H608   H     0.56054   0.74951   0.12695   0.00000  Uiso   1.00
H609   H     0.61444   0.73805   0.10339   0.00000  Uiso   1.00
N610   N     0.61168   0.81205   0.41371   0.00000  Uiso   1.00
N611   N     0.62705   0.79318   0.48747   0.00000  Uiso   1.00
O612   O     0.50000   0.83333   0.25000   0.00000  Uiso   1.00
O613   O     0.48784   0.79304   0.15459   0.00000  Uiso   1.00
O614   O     0.46274   0.87058   0.34968   0.00000  Uiso   1.00
O615   O     0.54157   0.84425   0.14606   0.00000  Uiso   1.00
O616   O     0.50785   0.82546   0.34968   0.00000  Uiso   1.00
O617   O     0.59934   0.78872   0.07927   0.00000  Uiso   1.00
O618   O     0.53754   0.67174   0.19391   0.00000  Uiso   1.00
O619   O     0.41272   0.89457   0.42444   0.00000  Uiso   1.00
O620   O     0.56755   0.86198   0.38112   0.00000  Uiso   1.00
O621   O     0.51264   0.74686   0.28214   0.00000  Uiso   1.00
O622   O     0.47965   0.92751   0.27014   0.00000  Uiso   1.00
O623   O     0.40745   0.79958   0.23413   0.00000  Uiso   1.00
O624   O     0.60026   0.85939   0.21361   0.00000  Uiso   1.00
O625   O     0.40405   0.85544   0.28213   0.00000  Uiso   1.00
O626   O     0.58824   0.81892   0.27014   0.00000  Uiso   1.00
O627   O     0.47093   0.73610   0.23413   0.00000  Uiso   1.00
O628   O     0.53678   0.92286   0.21361   0.00000  Uiso   1.00
Zn629  Zn    0.52672   0.80661   0.28734   0.00000  Uiso   1.00
Zn630  Zn    0.46713   0.79124   0.21876   0.00000  Uiso   1.00
Zn631  Zn    0.54389   0.86442   0.20657   0.00000  Uiso   1.00
Zn632  Zn    0.46226   0.87106   0.28734   0.00000  Uiso   1.00
C633   C     0.71943   0.82645   0.26010   0.00000  Uiso   1.00
C634   C     0.83522   0.81888   0.05803   0.00000  Uiso   1.00
C635   C     0.90379   0.79753   0.05678   0.00000  Uiso   1.00
C636   C     0.94752   0.84054   0.24000   0.00000  Uiso   1.00
C637   C     0.80873   0.86050   0.42049   0.00000  Uiso   1.00
C638   C     0.99341   0.84323   0.23580   0.00000  Uiso   1.00
C639   C     0.67412   0.82430   0.26431   0.00000  Uiso   1.00
C640   C     0.84371   0.98813   0.23217   0.00000  Uiso   1.00
C641   C     0.82005   0.67867   0.26435   0.00000  Uiso   1.00
C642   C     0.82301   0.72262   0.26036   0.00000  Uiso   1.00
C643   C     0.84273   0.94444   0.23943   0.00000  Uiso   1.00
C644   C     0.75832   0.87481   0.49221   0.00000  Uiso   1.00
C645   C     0.85228   0.81504   0.12927   0.00000  Uiso   1.00
C646   C     0.81626   0.85242   0.37097   0.00000  Uiso   1.00
C647   C     0.91755   0.80068   0.01006   0.00000  Uiso   1.00
C648   C     0.86290   0.80762   0.08050   0.00000  Uiso   1.00
C649   C     0.77002   0.87548   0.44551   0.00000  Uiso   1.00
C650   C     0.91995   0.74870   0.09539   0.00000  Uiso   1.00
C651   C     0.85323   0.99155   0.15715   0.00000  Uiso   1.00
C652   C     0.94043   0.77508   0.38422   0.00000  Uiso   1.00
C653   C     0.96704   0.74985   0.47731   0.00000  Uiso   1.00
C654   C     0.70525   0.87157   0.42864   0.00000  Uiso   1.00
C655   C     0.78288   0.85726   0.01400   0.00000  Uiso   1.00
C656   C     0.91355   0.90461   0.38984   0.00000  Uiso   1.00
C657   C     0.82259   0.84317   0.49024   0.00000  Uiso   1.00
C658   C     0.83735   0.84902   0.44360   0.00000  Uiso   1.00
C659   C     0.84892   0.82561   0.01187   0.00000  Uiso   1.00
C660   C     0.89058   0.81558   0.48710   0.00000  Uiso   1.00
C661   C     0.90525   0.82390   0.44110   0.00000  Uiso   1.00
C662   C     0.88083   0.84478   0.42164   0.00000  Uiso   1.00
H663   H     0.98565   0.80710   0.29120   0.00000  Uiso   1.00
H664   H     0.82187   0.67022   0.16181   0.00000  Uiso   1.00
H665   H     0.84949   0.95709   0.15129   0.00000  Uiso   1.00
H666   H     0.87547   0.67066   0.12633   0.00000  Uiso   1.00
H667   H     0.96457   0.83592   0.39640   0.00000  Uiso   1.00
H668   H     0.97265   0.76560   0.36730   0.00000  Uiso   1.00
H669   H     0.92476   0.78126   0.35816   0.00000  Uiso   1.00
H670   H     0.92081   0.74908   0.40363   0.00000  Uiso   1.00
H671   H     0.98343   0.81008   0.00159   0.00000  Uiso   1.00
H672   H     0.99525   0.74719   0.44802   0.00000  Uiso   1.00
H673   H     0.93860   0.73099   0.46888   0.00000  Uiso   1.00
H674   H     0.80082   0.99982   0.29580   0.00000  Uiso   1.00
H675   H     0.97364   0.73717   0.00633   0.00000  Uiso   1.00
H676   H     0.68445   0.87580   0.46330   0.00000  Uiso   1.00
H677   H     0.70752   0.83793   0.41848   0.00000  Uiso   1.00
H678   H     0.68961   0.88376   0.40578   0.00000  Uiso   1.00
H679   H     0.93597   0.90941   0.41199   0.00000  Uiso   1.00
H680   H     0.88526   0.92175   0.40485   0.00000  Uiso   1.00
H681   H     0.93087   0.91802   0.35749   0.00000  Uiso   1.00
H682   H     0.80400   0.82481   0.07859   0.00000  Uiso   1.00
H683   H     0.77050   0.85728   0.04988   0.00000  Uiso   1.00
H684   H     0.72955   0.88754   0.01194   0.00000  Uiso   1.00
H685   H     0.68254   0.86059   0.20935   0.00000  Uiso   1.00
H686   H     0.90986   0.72535   0.07003   0.00000  Uiso   1.00
H687   H     0.89388   0.74951   0.12695   0.00000  Uiso   1.00
H688   H     0.94778   0.73805   0.10339   0.00000  Uiso   1.00
N689   N     0.94501   0.81205   0.41371   0.00000  Uiso   1.00
N690   N     0.96038   0.79318   0.48747   0.00000  Uiso   1.00
O691   O     0.83333   0.83333   0.25000   0.00000  Uiso   1.00
O692   O     0.82118   0.79304   0.15459   0.00000  Uiso   1.00
O693   O     0.79607   0.87058   0.34968   0.00000  Uiso   1.00
O694   O     0.87491   0.84425   0.14606   0.00000  Uiso   1.00
O695   O     0.84118   0.82546   0.34968   0.00000  Uiso   1.00
O696   O     0.93268   0.78872   0.07927   0.00000  Uiso   1.00
O697   O     0.87088   0.67174   0.19391   0.00000  Uiso   1.00
O698   O     0.74605   0.89457   0.42444   0.00000  Uiso   1.00
O699   O     0.90088   0.86198   0.38112   0.00000  Uiso   1.00
O700   O     0.84597   0.74686   0.28214   0.00000  Uiso   1.00
O701   O     0.81298   0.92751   0.27014   0.00000  Uiso   1.00
O702   O     0.74078   0.79958   0.23413   0.00000  Uiso   1.00
O703   O     0.93360   0.85939   0.21361   0.00000  Uiso   1.00
O704   O     0.73738   0.85544   0.28213   0.00000  Uiso   1.00
O705   O     0.92158   0.81892   0.27014   0.00000  Uiso   1.00
O706   O     0.80426   0.73610   0.23413   0.00000  Uiso   1.00
O707   O     0.87012   0.92286   0.21361   0.00000  Uiso   1.00
Zn708  Zn    0.86005   0.80661   0.28734   0.00000  Uiso   1.00
Zn709  Zn    0.80046   0.79124   0.21876   0.00000  Uiso   1.00
Zn710  Zn    0.87723   0.86442   0.20657   0.00000  Uiso   1.00
Zn711  Zn    0.79560   0.87106   0.28734   0.00000  Uiso   1.00
C712   C     0.05277   0.15978   0.76010   0.00000  Uiso   1.00
C713   C     0.16855   0.15222   0.55803   0.00000  Uiso   1.00
C714   C     0.23712   0.13086   0.55678   0.00000  Uiso   1.00
C715   C     0.28085   0.17387   0.74000   0.00000  Uiso   1.00
C716   C     0.14206   0.19383   0.92049   0.00000  Uiso   1.00
C717   C     0.32674   0.17656   0.73580   0.00000  Uiso   1.00
C718   C     0.00745   0.15764   0.76431   0.00000  Uiso   1.00
C719   C     0.17705   0.32147   0.73217   0.00000  Uiso   1.00
C720   C     0.15338   0.01201   0.76435   0.00000  Uiso   1.00
C721   C     0.15634   0.05596   0.76036   0.00000  Uiso   1.00
C722   C     0.17606   0.27777   0.73943   0.00000  Uiso   1.00
C723   C     0.09165   0.20814   0.99221   0.00000  Uiso   1.00
C724   C     0.18562   0.14838   0.62927   0.00000  Uiso   1.00
C725   C     0.14960   0.18575   0.87097   0.00000  Uiso   1.00
C726   C     0.25088   0.13402   0.51006   0.00000  Uiso   1.00
C727   C     0.19624   0.14096   0.58050   0.00000  Uiso   1.00
C728   C     0.10335   0.20881   0.94551   0.00000  Uiso   1.00
C729   C     0.25329   0.08203   0.59539   0.00000  Uiso   1.00
C730   C     0.18656   0.32488   0.65715   0.00000  Uiso   1.00
C731   C     0.27376   0.10842   0.88422   0.00000  Uiso   1.00
C732   C     0.30037   0.08318   0.97731   0.00000  Uiso   1.00
C733   C     0.03858   0.20490   0.92864   0.00000  Uiso   1.00
C734   C     0.11621   0.19059   0.51400   0.00000  Uiso   1.00
C735   C     0.24689   0.23794   0.88984   0.00000  Uiso   1.00
C736   C     0.15592   0.17650   0.99024   0.00000  Uiso   1.00
C737   C     0.17068   0.18235   0.94360   0.00000  Uiso   1.00
C738   C     0.18225   0.15894   0.51187   0.00000  Uiso   1.00
C739   C     0.22391   0.14891   0.98710   0.00000  Uiso   1.00
C740   C     0.23858   0.15723   0.94110   0.00000  Uiso   1.00
C741   C     0.21416   0.17811   0.92164   0.00000  Uiso   1.00
H742   H     0.31898   0.14043   0.79120   0.00000  Uiso   1.00
H743   H     0.15520   0.00356   0.66181   0.00000  Uiso   1.00
H744   H     0.18283   0.29042   0.65129   0.00000  Uiso   1.00
H745   H     0.20881   0.00399   0.62633   0.00000  Uiso   1.00
H746   H     0.29790   0.16925   0.89640   0.00000  Uiso   1.00
H747   H     0.30598   0.09893   0.86730   0.00000  Uiso   1.00
H748   H     0.25810   0.11459   0.85816   0.00000  Uiso   1.00
H749   H     0.25414   0.08242   0.90363   0.00000  Uiso   1.00
H750   H     0.31676   0.14341   0.50159   0.00000  Uiso   1.00
H751   H     0.32859   0.08052   0.94802   0.00000  Uiso   1.00
H752   H     0.27193   0.06433   0.96888   0.00000  Uiso   1.00
H753   H     0.13415   0.33315   0.79580   0.00000  Uiso   1.00
H754   H     0.30698   0.07051   0.50633   0.00000  Uiso   1.00
H755   H     0.01779   0.20914   0.96330   0.00000  Uiso   1.00
H756   H     0.04086   0.17127   0.91848   0.00000  Uiso   1.00
H757   H     0.02294   0.21709   0.90578   0.00000  Uiso   1.00
H758   H     0.26930   0.24274   0.91199   0.00000  Uiso   1.00
H759   H     0.21859   0.25509   0.90485   0.00000  Uiso   1.00
H760   H     0.26421   0.25135   0.85749   0.00000  Uiso   1.00
H761   H     0.13733   0.15815   0.57859   0.00000  Uiso   1.00
H762   H     0.10383   0.19061   0.54988   0.00000  Uiso   1.00
H763   H     0.06288   0.22087   0.51194   0.00000  Uiso   1.00
H764   H     0.01587   0.19392   0.70935   0.00000  Uiso   1.00
H765   H     0.24319   0.05868   0.57003   0.00000  Uiso   1.00
H766   H     0.22721   0.08285   0.62695   0.00000  Uiso   1.00
H767   H     0.28111   0.07138   0.60339   0.00000  Uiso   1.00
N768   N     0.27835   0.14538   0.91371   0.00000  Uiso   1.00
N769   N     0.29371   0.12651   0.98747   0.00000  Uiso   1.00
O770   O     0.16667   0.16667   0.75000   0.00000  Uiso   1.00
O771   O     0.15451   0.12637   0.65459   0.00000  Uiso   1.00
O772   O     0.12940   0.20391   0.84968   0.00000  Uiso   1.00
O773   O     0.20824   0.17759   0.64606   0.00000  Uiso   1.00
O774   O     0.17451   0.15880   0.84968   0.00000  Uiso   1.00
O775   O     0.26601   0.12205   0.57927   0.00000  Uiso   1.00
O776   O     0.20421   0.00507   0.69391   0.00000  Uiso   1.00
O777   O     0.07938   0.22791   0.92444   0.00000  Uiso   1.00
O778   O     0.23421   0.19531   0.88112   0.00000  Uiso   1.00
O779   O     0.17930   0.08019   0.78214   0.00000  Uiso   1.00
O780   O     0.14632   0.26085   0.77014   0.00000  Uiso   1.00
O781   O     0.07412   0.13291   0.73413   0.00000  Uiso   1.00
O782   O     0.26693   0.19272   0.71361   0.00000  Uiso   1.00
O783   O     0.07071   0.18878   0.78213   0.00000  Uiso   1.00
O784   O     0.25491   0.15226   0.77014   0.00000  Uiso   1.00
O785   O     0.13760   0.06944   0.73413   0.00000  Uiso   1.00
O786   O     0.20345   0.25620   0.71361   0.00000  Uiso   1.00
Zn787  Zn    0.19338   0.13994   0.78734   0.00000  Uiso   1.00
Zn788  Zn    0.13379   0.12458   0.71876   0.00000  Uiso   1.00
Zn789  Zn    0.21056   0.19775   0.70657   0.00000  Uiso   1.00
Zn790  Zn    0.12893   0.20439   0.78734   0.00000  Uiso   1.00
C791   C     0.38610   0.15978   0.76010   0.00000  Uiso   1.00
C792   C     0.50189   0.15222   0.55803   0.00000  Uiso   1.00
C793   C     0.57046   0.13086   0.55678   0.00000  Uiso   1.00
C794   C     0.61419   0.17387   0.74000   0.00000  Uiso   1.00
C795   C     0.47539   0.19383   0.92049   0.00000  Uiso   1.00
C796   C     0.66008   0.17656   0.73580   0.00000  Uiso   1.00
C797   C     0.34079   0.15764   0.76431   0.00000  Uiso   1.00
C798   C     0.51038   0.32147   0.73217   0.00000  Uiso   1.00
C799   C     0.48672   0.01201   0.76435   0.00000  Uiso   1.00
C800   C     0.48967   0.05596   0.76036   0.00000  Uiso   1.00
C801   C     0.50939   0.27777   0.73943   0.00000  Uiso   1.00
C802   C     0.42499   0.20814   0.99221   0.00000  Uiso   1.00
C803   C     0.51895   0.14838   0.62927   0.00000  Uiso   1.00
C804   C     0.48293   0.18575   0.87097   0.00000  Uiso   1.00
C805   C     0.58421   0.13402   0.51006   0.00000  Uiso   1.00
C806   C     0.52957   0.14096   0.58050   0.00000  Uiso   1.00
C807   C     0.43668   0.20881   0.94551   0.00000  Uiso   1.00
C808   C     0.58662   0.08203   0.59539   0.00000  Uiso   1.00
C809   C     0.51990   0.32488   0.65715   0.00000  Uiso   1.00
C810   C     0.60709   0.10842   0.88422   0.00000  Uiso   1.00
C811   C     0.63370   0.08318   0.97731   0.00000  Uiso   1.00
C812   C     0.37191   0.20490   0.92864   0.00000  Uiso   1.00
C813   C     0.44955   0.19059   0.51400   0.00000  Uiso   1.00
C814   C     0.58022   0.23794   0.88984   0.00000  Uiso   1.00
C815   C     0.48925   0.17650   0.99024   0.00000  Uiso   1.00
C816   C     0.50401   0.18235   0.94360   0.00000  Uiso   1.00
C817   C     0.51558   0.15894   0.51187   0.00000  Uiso   1.00
C818   C     0.55724   0.14891   0.98710   0.00000  Uiso   1.00
C819   C     0.57191   0.15723   0.94110   0.00000  Uiso   1.00
C820   C     0.54749   0.17811   0.92164   0.00000  Uiso   1.00
H821   H     0.65232   0.14043   0.79120   0.00000  Uiso   1.00
H822   H     0.48853   0.00356   0.66181   0.00000  Uiso   1.00
H823   H     0.51616   0.29042   0.65129   0.00000  Uiso   1.00
H824   H     0.54214   0.00399   0.62633   0.00000  Uiso   1.00
H825   H     0.63123   0.16925   0.89640   0.00000  Uiso   1.00
H826   H     0.63931   0.09893   0.86730   0.00000  Uiso   1.00
H827   H     0.59143   0.11459   0.85816   0.00000  Uiso   1.00
H828   H     0.58747   0.08242   0.90363   0.00000  Uiso   1.00
H829   H     0.65010   0.14341   0.50159   0.00000  Uiso   1.00
H830   H     0.66192   0.08052   0.94802   0.00000  Uiso   1.00
H831   H     0.60527   0.06433   0.96888   0.00000  Uiso   1.00
H832   H     0.46748   0.33315   0.79580   0.00000  Uiso   1.00
H833   H     0.64031   0.07051   0.50633   0.00000  Uiso   1.00
H834   H     0.35112   0.20914   0.96330   0.00000  Uiso   1.00
H835   H     0.37419   0.17127   0.91848   0.00000  Uiso   1.00
H836   H     0.35627   0.21709   0.90578   0.00000  Uiso   1.00
H837   H     0.60263   0.24274   0.91199   0.00000  Uiso   1.00
H838   H     0.55192   0.25509   0.90485   0.00000  Uiso   1.00
H839   H     0.59754   0.25135   0.85749   0.00000  Uiso   1.00
H840   H     0.47067   0.15815   0.57859   0.00000  Uiso   1.00
H841   H     0.43716   0.19061   0.54988   0.00000  Uiso   1.00
H842   H     0.39621   0.22087   0.51194   0.00000  Uiso   1.00
H843   H     0.34920   0.19392   0.70935   0.00000  Uiso   1.00
H844   H     0.57652   0.05868   0.57003   0.00000  Uiso   1.00
H845   H     0.56054   0.08285   0.62695   0.00000  Uiso   1.00
H846   H     0.61444   0.07138   0.60339   0.00000  Uiso   1.00
N847   N     0.61168   0.14538   0.91371   0.00000  Uiso   1.00
N848   N     0.62705   0.12651   0.98747   0.00000  Uiso   1.00
O849   O     0.50000   0.16667   0.75000   0.00000  Uiso   1.00
O850   O     0.48784   0.12637   0.65459   0.00000  Uiso   1.00
O851   O     0.46274   0.20391   0.84968   0.00000  Uiso   1.00
O852   O     0.54157   0.17759   0.64606   0.00000  Uiso   1.00
O853   O     0.50785   0.15880   0.84968   0.00000  Uiso   1.00
O854   O     0.59934   0.12205   0.57927   0.00000  Uiso   1.00
O855   O     0.53754   0.00507   0.69391   0.00000  Uiso   1.00
O856   O     0.41272   0.22791   0.92444   0.00000  Uiso   1.00
O857   O     0.56755   0.19531   0.88112   0.00000  Uiso   1.00
O858   O     0.51264   0.08019   0.78214   0.00000  Uiso   1.00
O859   O     0.47965   0.26085   0.77014   0.00000  Uiso   1.00
O860   O     0.40745   0.13291   0.73413   0.00000  Uiso   1.00
O861   O     0.60026   0.19272   0.71361   0.00000  Uiso   1.00
O862   O     0.40405   0.18878   0.78213   0.00000  Uiso   1.00
O863   O     0.58824   0.15226   0.77014   0.00000  Uiso   1.00
O864   O     0.47093   0.06944   0.73413   0.00000  Uiso   1.00
O865   O     0.53678   0.25620   0.71361   0.00000  Uiso   1.00
Zn866  Zn    0.52672   0.13994   0.78734   0.00000  Uiso   1.00
Zn867  Zn    0.46713   0.12458   0.71876   0.00000  Uiso   1.00
Zn868  Zn    0.54389   0.19775   0.70657   0.00000  Uiso   1.00
Zn869  Zn    0.46226   0.20439   0.78734   0.00000  Uiso   1.00
C870   C     0.71943   0.15978   0.76010   0.00000  Uiso   1.00
C871   C     0.83522   0.15222   0.55803   0.00000  Uiso   1.00
C872   C     0.90379   0.13086   0.55678   0.00000  Uiso   1.00
C873   C     0.94752   0.17387   0.74000   0.00000  Uiso   1.00
C874   C     0.80873   0.19383   0.92049   0.00000  Uiso   1.00
C875   C     0.99341   0.17656   0.73580   0.00000  Uiso   1.00
C876   C     0.67412   0.15764   0.76431   0.00000  Uiso   1.00
C877   C     0.84371   0.32147   0.73217   0.00000  Uiso   1.00
C878   C     0.82005   0.01201   0.76435   0.00000  Uiso   1.00
C879   C     0.82301   0.05596   0.76036   0.00000  Uiso   1.00
C880   C     0.84273   0.27777   0.73943   0.00000  Uiso   1.00
C881   C     0.75832   0.20814   0.99221   0.00000  Uiso   1.00
C882   C     0.85228   0.14838   0.62927   0.00000  Uiso   1.00
C883   C     0.81626   0.18575   0.87097   0.00000  Uiso   1.00
C884   C     0.91755   0.13402   0.51006   0.00000  Uiso   1.00
C885   C     0.86290   0.14096   0.58050   0.00000  Uiso   1.00
C886   C     0.77002   0.20881   0.94551   0.00000  Uiso   1.00
C887   C     0.91995   0.08203   0.59539   0.00000  Uiso   1.00
C888   C     0.85323   0.32488   0.65715   0.00000  Uiso   1.00
C889   C     0.94043   0.10842   0.88422   0.00000  Uiso   1.00
C890   C     0.96704   0.08318   0.97731   0.00000  Uiso   1.00
C891   C     0.70525   0.20490   0.92864   0.00000  Uiso   1.00
C892   C     0.78288   0.19059   0.51400   0.00000  Uiso   1.00
C893   C     0.91355   0.23794   0.88984   0.00000  Uiso   1.00
C894   C     0.82259   0.17650   0.99024   0.00000  Uiso   1.00
C895   C     0.83735   0.18235   0.94360   0.00000  Uiso   1.00
C896   C     0.84892   0.15894   0.51187   0.00000  Uiso   1.00
C897   C     0.89058   0.14891   0.98710   0.00000  Uiso   1.00
C898   C     0.90525   0.15723   0.94110   0.00000  Uiso   1.00
C899   C     0.88083   0.17811   0.92164   0.00000  Uiso   1.00
H900   H     0.98565   0.14043   0.79120   0.00000  Uiso   1.00
H901   H     0.82187   0.00356   0.66181   0.00000  Uiso   1.00
H902   H     0.84949   0.29042   0.65129   0.00000  Uiso   1.00
H903   H     0.87547   0.00399   0.62633   0.00000  Uiso   1.00
H904   H     0.96457   0.16925   0.89640   0.00000  Uiso   1.00
H905   H     0.97265   0.09893   0.86730   0.00000  Uiso   1.00
H906   H     0.92476   0.11459   0.85816   0.00000  Uiso   1.00
H907   H     0.92081   0.08242   0.90363   0.00000  Uiso   1.00
H908   H     0.98343   0.14341   0.50159   0.00000  Uiso   1.00
H909   H     0.99525   0.08052   0.94802   0.00000  Uiso   1.00
H910   H     0.93860   0.06433   0.96888   0.00000  Uiso   1.00
H911   H     0.80082   0.33315   0.79580   0.00000  Uiso   1.00
H912   H     0.97364   0.07051   0.50633   0.00000  Uiso   1.00
H913   H     0.68445   0.20914   0.96330   0.00000  Uiso   1.00
H914   H     0.70752   0.17127   0.91848   0.00000  Uiso   1.00
H915   H     0.68961   0.21709   0.90578   0.00000  Uiso   1.00
H916   H     0.93597   0.24274   0.91199   0.00000  Uiso   1.00
H917   H     0.88526   0.25509   0.90485   0.00000  Uiso   1.00
H918   H     0.93087   0.25135   0.85749   0.00000  Uiso   1.00
H919   H     0.80400   0.15815   0.57859   0.00000  Uiso   1.00
H920   H     0.77050   0.19061   0.54988   0.00000  Uiso   1.00
H921   H     0.72955   0.22087   0.51194   0.00000  Uiso   1.00
H922   H     0.68254   0.19392   0.70935   0.00000  Uiso   1.00
H923   H     0.90986   0.05868   0.57003   0.00000  Uiso   1.00
H924   H     0.89388   0.08285   0.62695   0.00000  Uiso   1.00
H925   H     0.94778   0.07138   0.60339   0.00000  Uiso   1.00
N926   N     0.94501   0.14538   0.91371   0.00000  Uiso   1.00
N927   N     0.96038   0.12651   0.98747   0.00000  Uiso   1.00
O928   O     0.83333   0.16667   0.75000   0.00000  Uiso   1.00
O929   O     0.82118   0.12637   0.65459   0.00000  Uiso   1.00
O930   O     0.79607   0.20391   0.84968   0.00000  Uiso   1.00
O931   O     0.87491   0.17759   0.64606   0.00000  Uiso   1.00
O932   O     0.84118   0.15880   0.84968   0.00000  Uiso   1.00
O933   O     0.93268   0.12205   0.57927   0.00000  Uiso   1.00
O934   O     0.87088   0.00507   0.69391   0.00000  Uiso   1.00
O935   O     0.74605   0.22791   0.92444   0.00000  Uiso   1.00
O936   O     0.90088   0.19531   0.88112   0.00000  Uiso   1.00
O937   O     0.84597   0.08019   0.78214   0.00000  Uiso   1.00
O938   O     0.81298   0.26085   0.77014   0.00000  Uiso   1.00
O939   O     0.74078   0.13291   0.73413   0.00000  Uiso   1.00
O940   O     0.93360   0.19272   0.71361   0.00000  Uiso   1.00
O941   O     0.73738   0.18878   0.78213   0.00000  Uiso   1.00
O942   O     0.92158   0.15226   0.77014   0.00000  Uiso   1.00
O943   O     0.80426   0.06944   0.73413   0.00000  Uiso   1.00
O944   O     0.87012   0.25620   0.71361   0.00000  Uiso   1.00
Zn945  Zn    0.86005   0.13994   0.78734   0.00000  Uiso   1.00
Zn946  Zn    0.80046   0.12458   0.71876   0.00000  Uiso   1.00
Zn947  Zn    0.87723   0.19775   0.70657   0.00000  Uiso   1.00
Zn948  Zn    0.79560   0.20439   0.78734   0.00000  Uiso   1.00
C949   C     0.05277   0.49312   0.76010   0.00000  Uiso   1.00
C950   C     0.16855   0.48555   0.55803   0.00000  Uiso   1.00
C951   C     0.23712   0.46420   0.55678   0.00000  Uiso   1.00
C952   C     0.28085   0.50721   0.74000   0.00000  Uiso   1.00
C953   C     0.14206   0.52716   0.92049   0.00000  Uiso   1.00
C954   C     0.32674   0.50990   0.73580   0.00000  Uiso   1.00
C955   C     0.00745   0.49097   0.76431   0.00000  Uiso   1.00
C956   C     0.17705   0.65480   0.73217   0.00000  Uiso   1.00
C957   C     0.15338   0.34534   0.76435   0.00000  Uiso   1.00
C958   C     0.15634   0.38929   0.76036   0.00000  Uiso   1.00
C959   C     0.17606   0.61111   0.73943   0.00000  Uiso   1.00
C960   C     0.09165   0.54147   0.99221   0.00000  Uiso   1.00
C961   C     0.18562   0.48171   0.62927   0.00000  Uiso   1.00
C962   C     0.14960   0.51908   0.87097   0.00000  Uiso   1.00
C963   C     0.25088   0.46735   0.51006   0.00000  Uiso   1.00
C964   C     0.19624   0.47429   0.58050   0.00000  Uiso   1.00
C965   C     0.10335   0.54215   0.94551   0.00000  Uiso   1.00
C966   C     0.25329   0.41536   0.59539   0.00000  Uiso   1.00
C967   C     0.18656   0.65822   0.65715   0.00000  Uiso   1.00
C968   C     0.27376   0.44175   0.88422   0.00000  Uiso   1.00
C969   C     0.30037   0.41651   0.97731   0.00000  Uiso   1.00
C970   C     0.03858   0.53823   0.92864   0.00000  Uiso   1.00
C971   C     0.11621   0.52393   0.51400   0.00000  Uiso   1.00
C972   C     0.24689   0.57128   0.88984   0.00000  Uiso   1.00
C973   C     0.15592   0.50983   0.99024   0.00000  Uiso   1.00
C974   C     0.17068   0.51568   0.94360   0.00000  Uiso   1.00
C975   C     0.18225   0.49227   0.51187   0.00000  Uiso   1.00
C976   C     0.22391   0.48225   0.98710   0.00000  Uiso   1.00
C977   C     0.23858   0.49057   0.94110   0.00000  Uiso   1.00
C978   C     0.21416   0.51144   0.92164   0.00000  Uiso   1.00
H979   H     0.31898   0.47376   0.79120   0.00000  Uiso   1.00
H980   H     0.15520   0.33689   0.66181   0.00000  Uiso   1.00
H981   H     0.18283   0.62375   0.65129   0.00000  Uiso   1.00
H982   H     0.20881   0.33732   0.62633   0.00000  Uiso   1.00
H983   H     0.29790   0.50258   0.89640   0.00000  Uiso   1.00
H984   H     0.30598   0.43227   0.86730   0.00000  Uiso   1.00
H985   H     0.25810   0.44792   0.85816   0.00000  Uiso   1.00
H986   H     0.25414   0.41575   0.90363   0.00000  Uiso   1.00
H987   H     0.31676   0.47675   0.50159   0.00000  Uiso   1.00
H988   H     0.32859   0.41386   0.94802   0.00000  Uiso   1.00
H989   H     0.27193   0.39766   0.96888   0.00000  Uiso   1.00
H990   H     0.13415   0.66649   0.79580   0.00000  Uiso   1.00
H991   H     0.30698   0.40384   0.50633   0.00000  Uiso   1.00
H992   H     0.01779   0.54247   0.96330   0.00000  Uiso   1.00
H993   H     0.04086   0.50460   0.91848   0.00000  Uiso   1.00
H994   H     0.02294   0.55042   0.90578   0.00000  Uiso   1.00
H995   H     0.26930   0.57607   0.91199   0.00000  Uiso   1.00
H996   H     0.21859   0.58842   0.90485   0.00000  Uiso   1.00
H997   H     0.26421   0.58468   0.85749   0.00000  Uiso   1.00
H998   H     0.13733   0.49148   0.57859   0.00000  Uiso   1.00
H999   H     0.10383   0.52395   0.54988   0.00000  Uiso   1.00
H1000  H     0.06288   0.55421   0.51194   0.00000  Uiso   1.00
H1001  H     0.01587   0.52725   0.70935   0.00000  Uiso   1.00
H1002  H     0.24319   0.39202   0.57003   0.00000  Uiso   1.00
H1003  H     0.22721   0.41618   0.62695   0.00000  Uiso   1.00
H1004  H     0.28111   0.40472   0.60339   0.00000  Uiso   1.00
N1005  N     0.27835   0.47871   0.91371   0.00000  Uiso   1.00
N1006  N     0.29371   0.45985   0.98747   0.00000  Uiso   1.00
O1007  O     0.16667   0.50000   0.75000   0.00000  Uiso   1.00
O1008  O     0.15451   0.45970   0.65459   0.00000  Uiso   1.00
O1009  O     0.12940   0.53724   0.84968   0.00000  Uiso   1.00
O1010  O     0.20824   0.51092   0.64606   0.00000  Uiso   1.00
O1011  O     0.17451   0.49213   0.84968   0.00000  Uiso   1.00
O1012  O     0.26601   0.45538   0.57927   0.00000  Uiso   1.00
O1013  O     0.20421   0.33840   0.69391   0.00000  Uiso   1.00
O1014  O     0.07938   0.56124   0.92444   0.00000  Uiso   1.00
O1015  O     0.23421   0.52864   0.88112   0.00000  Uiso   1.00
O1016  O     0.17930   0.41352   0.78214   0.00000  Uiso   1.00
O1017  O     0.14632   0.59418   0.77014   0.00000  Uiso   1.00
O1018  O     0.07412   0.46625   0.73413   0.00000  Uiso   1.00
O1019  O     0.26693   0.52605   0.71361   0.00000  Uiso   1.00
O1020  O     0.07071   0.52211   0.78213   0.00000  Uiso   1.00
O1021  O     0.25491   0.48559   0.77014   0.00000  Uiso   1.00
O1022  O     0.13760   0.40277   0.73413   0.00000  Uiso   1.00
O1023  O     0.20345   0.58953   0.71361   0.00000  Uiso   1.00
Zn1024 Zn    0.19338   0.47327   0.78734   0.00000  Uiso   1.00
Zn1025 Zn    0.13379   0.45791   0.71876   0.00000  Uiso   1.00
Zn1026 Zn    0.21056   0.53109   0.70657   0.00000  Uiso   1.00
Zn1027 Zn    0.12893   0.53773   0.78734   0.00000  Uiso   1.00
C1028  C     0.38610   0.49312   0.76010   0.00000  Uiso   1.00
C1029  C     0.50189   0.48555   0.55803   0.00000  Uiso   1.00
C1030  C     0.57046   0.46420   0.55678   0.00000  Uiso   1.00
C1031  C     0.61419   0.50721   0.74000   0.00000  Uiso   1.00
C1032  C     0.47539   0.52716   0.92049   0.00000  Uiso   1.00
C1033  C     0.66008   0.50990   0.73580   0.00000  Uiso   1.00
C1034  C     0.34079   0.49097   0.76431   0.00000  Uiso   1.00
C1035  C     0.51038   0.65480   0.73217   0.00000  Uiso   1.00
C1036  C     0.48672   0.34534   0.76435   0.00000  Uiso   1.00
C1037  C     0.48967   0.38929   0.76036   0.00000  Uiso   1.00
C1038  C     0.50939   0.61111   0.73943   0.00000  Uiso   1.00
C1039  C     0.42499   0.54147   0.99221   0.00000  Uiso   1.00
C1040  C     0.51895   0.48171   0.62927   0.00000  Uiso   1.00
C1041  C     0.48293   0.51908   0.87097   0.00000  Uiso   1.00
C1042  C     0.58421   0.46735   0.51006   0.00000  Uiso   1.00
C1043  C     0.52957   0.47429   0.58050   0.00000  Uiso   1.00
C1044  C     0.43668   0.54215   0.94551   0.00000  Uiso   1.00
C1045  C     0.58662   0.41536   0.59539   0.00000  Uiso   1.00
C1046  C     0.51990   0.65822   0.65715   0.00000  Uiso   1.00
C1047  C     0.60709   0.44175   0.88422   0.00000  Uiso   1.00
C1048  C     0.63370   0.41651   0.97731   0.00000  Uiso   1.00
C1049  C     0.37191   0.53823   0.92864   0.00000  Uiso   1.00
C1050  C     0.44955   0.52393   0.51400   0.00000  Uiso   1.00
C1051  C     0.58022   0.57128   0.88984   0.00000  Uiso   1.00
C1052  C     0.48925   0.50983   0.99024   0.00000  Uiso   1.00
C1053  C     0.50401   0.51568   0.94360   0.00000  Uiso   1.00
C1054  C     0.51558   0.49227   0.51187   0.00000  Uiso   1.00
C1055  C     0.55724   0.48225   0.98710   0.00000  Uiso   1.00
C1056  C     0.57191   0.49057   0.94110   0.00000  Uiso   1.00
C1057  C     0.54749   0.51144   0.92164   0.00000  Uiso   1.00
H1058  H     0.65232   0.47376   0.79120   0.00000  Uiso   1.00
H1059  H     0.48853   0.33689   0.66181   0.00000  Uiso   1.00
H1060  H     0.51616   0.62375   0.65129   0.00000  Uiso   1.00
H1061  H     0.54214   0.33732   0.62633   0.00000  Uiso   1.00
H1062  H     0.63123   0.50258   0.89640   0.00000  Uiso   1.00
H1063  H     0.63931   0.43227   0.86730   0.00000  Uiso   1.00
H1064  H     0.59143   0.44792   0.85816   0.00000  Uiso   1.00
H1065  H     0.58747   0.41575   0.90363   0.00000  Uiso   1.00
H1066  H     0.65010   0.47675   0.50159   0.00000  Uiso   1.00
H1067  H     0.66192   0.41386   0.94802   0.00000  Uiso   1.00
H1068  H     0.60527   0.39766   0.96888   0.00000  Uiso   1.00
H1069  H     0.46748   0.66649   0.79580   0.00000  Uiso   1.00
H1070  H     0.64031   0.40384   0.50633   0.00000  Uiso   1.00
H1071  H     0.35112   0.54247   0.96330   0.00000  Uiso   1.00
H1072  H     0.37419   0.50460   0.91848   0.00000  Uiso   1.00
H1073  H     0.35627   0.55042   0.90578   0.00000  Uiso   1.00
H1074  H     0.60263   0.57607   0.91199   0.00000  Uiso   1.00
H1075  H     0.55192   0.58842   0.90485   0.00000  Uiso   1.00
H1076  H     0.59754   0.58468   0.85749   0.00000  Uiso   1.00
H1077  H     0.47067   0.49148   0.57859   0.00000  Uiso   1.00
H1078  H     0.43716   0.52395   0.54988   0.00000  Uiso   1.00
H1079  H     0.39621   0.55421   0.51194   0.00000  Uiso   1.00
H1080  H     0.34920   0.52725   0.70935   0.00000  Uiso   1.00
H1081  H     0.57652   0.39202   0.57003   0.00000  Uiso   1.00
H1082  H     0.56054   0.41618   0.62695   0.00000  Uiso   1.00
H1083  H     0.61444   0.40472   0.60339   0.00000  Uiso   1.00
N1084  N     0.61168   0.47871   0.91371   0.00000  Uiso   1.00
N1085  N     0.62705   0.45985   0.98747   0.00000  Uiso   1.00
O1086  O     0.50000   0.50000   0.75000   0.00000  Uiso   1.00
O1087  O     0.48784   0.45970   0.65459   0.00000  Uiso   1.00
O1088  O     0.46274   0.53724   0.84968   0.00000  Uiso   1.00
O1089  O     0.54157   0.51092   0.64606   0.00000  Uiso   1.00
O1090  O     0.50785   0.49213   0.84968   0.00000  Uiso   1.00
O1091  O     0.59934   0.45538   0.57927   0.00000  Uiso   1.00
O1092  O     0.53754   0.33840   0.69391   0.00000  Uiso   1.00
O1093  O     0.41272   0.56124   0.92444   0.00000  Uiso   1.00
O1094  O     0.56755   0.52864   0.88112   0.00000  Uiso   1.00
O1095  O     0.51264   0.41352   0.78214   0.00000  Uiso   1.00
O1096  O     0.47965   0.59418   0.77014   0.00000  Uiso   1.00
O1097  O     0.40745   0.46625   0.73413   0.00000  Uiso   1.00
O1098  O     0.60026   0.52605   0.71361   0.00000  Uiso   1.00
O1099  O     0.40405   0.52211   0.78213   0.00000  Uiso   1.00
O1100  O     0.58824   0.48559   0.77014   0.00000  Uiso   1.00
O1101  O     0.47093   0.40277   0.73413   0.00000  Uiso   1.00
O1102  O     0.53678   0.58953   0.71361   0.00000  Uiso   1.00
Zn1103 Zn    0.52672   0.47327   0.78734   0.00000  Uiso   1.00
Zn1104 Zn    0.46713   0.45791   0.71876   0.00000  Uiso   1.00
Zn1105 Zn    0.54389   0.53109   0.70657   0.00000  Uiso   1.00
Zn1106 Zn    0.46226   0.53773   0.78734   0.00000  Uiso   1.00
C1107  C     0.71943   0.49312   0.76010   0.00000  Uiso   1.00
C1108  C     0.83522   0.48555   0.55803   0.00000  Uiso   1.00
C1109  C     0.90379   0.46420   0.55678   0.00000  Uiso   1.00
C1110  C     0.94752   0.50721   0.74000   0.00000  Uiso   1.00
C1111  C     0.80873   0.52716   0.92049   0.00000  Uiso   1.00
C1112  C     0.99341   0.50990   0.73580   0.00000  Uiso   1.00
C1113  C     0.67412   0.49097   0.76431   0.00000  Uiso   1.00
C1114  C     0.84371   0.65480   0.73217   0.00000  Uiso   1.00
C1115  C     0.82005   0.34534   0.76435   0.00000  Uiso   1.00
C1116  C     0.82301   0.38929   0.76036   0.00000  Uiso   1.00
C1117  C     0.84273   0.61111   0.73943   0.00000  Uiso   1.00
C1118  C     0.75832   0.54147   0.99221   0.00000  Uiso   1.00
C1119  C     0.85228   0.48171   0.62927   0.00000  Uiso   1.00
C1120  C     0.81626   0.51908   0.87097   0.00000  Uiso   1.00
C1121  C     0.91755   0.46735   0.51006   0.00000  Uiso   1.00
C1122  C     0.86290   0.47429   0.58050   0.00000  Uiso   1.00
C1123  C     0.77002   0.54215   0.94551   0.00000  Uiso   1.00
C1124  C     0.91995   0.41536   0.59539   0.00000  Uiso   1.00
C1125  C     0.85323   0.65822   0.65715   0.00000  Uiso   1.00
C1126  C     0.94043   0.44175   0.88422   0.00000  Uiso   1.00
C1127  C     0.96704   0.41651   0.97731   0.00000  Uiso   1.00
C1128  C     0.70525   0.53823   0.92864   0.00000  Uiso   1.00
C1129  C     0.78288   0.52393   0.51400   0.00000  Uiso   1.00
C1130  C     0.91355   0.57128   0.88984   0.00000  Uiso   1.00
C1131  C     0.82259   0.50983   0.99024   0.00000  Uiso   1.00
C1132  C     0.83735   0.51568   0.94360   0.00000  Uiso   1.00
C1133  C     0.84892   0.49227   0.51187   0.00000  Uiso   1.00
C1134  C     0.89058   0.48225   0.98710   0.00000  Uiso   1.00
C1135  C     0.90525   0.49057   0.94110   0.00000  Uiso   1.00
C1136  C     0.88083   0.51144   0.92164   0.00000  Uiso   1.00
H1137  H     0.98565   0.47376   0.79120   0.00000  Uiso   1.00
H1138  H     0.82187   0.33689   0.66181   0.00000  Uiso   1.00
H1139  H     0.84949   0.62375   0.65129   0.00000  Uiso   1.00
H1140  H     0.87547   0.33732   0.62633   0.00000  Uiso   1.00
H1141  H     0.96457   0.50258   0.89640   0.00000  Uiso   1.00
H1142  H     0.97265   0.43227   0.86730   0.00000  Uiso   1.00
H1143  H     0.92476   0.44792   0.85816   0.00000  Uiso   1.00
H1144  H     0.92081   0.41575   0.90363   0.00000  Uiso   1.00
H1145  H     0.98343   0.47675   0.50159   0.00000  Uiso   1.00
H1146  H     0.99525   0.41386   0.94802   0.00000  Uiso   1.00
H1147  H     0.93860   0.39766   0.96888   0.00000  Uiso   1.00
H1148  H     0.80082   0.66649   0.79580   0.00000  Uiso   1.00
H1149  H     0.97364   0.40384   0.50633   0.00000  Uiso   1.00
H1150  H     0.68445   0.54247   0.96330   0.00000  Uiso   1.00
H1151  H     0.70752   0.50460   0.91848   0.00000  Uiso   1.00
H1152  H     0.68961   0.55042   0.90578   0.00000  Uiso   1.00
H1153  H     0.93597   0.57607   0.91199   0.00000  Uiso   1.00
H1154  H     0.88526   0.58842   0.90485   0.00000  Uiso   1.00
H1155  H     0.93087   0.58468   0.85749   0.00000  Uiso   1.00
H1156  H     0.80400   0.49148   0.57859   0.00000  Uiso   1.00
H1157  H     0.77050   0.52395   0.54988   0.00000  Uiso   1.00
H1158  H     0.72955   0.55421   0.51194   0.00000  Uiso   1.00
H1159  H     0.68254   0.52725   0.70935   0.00000  Uiso   1.00
H1160  H     0.90986   0.39202   0.57003   0.00000  Uiso   1.00
H1161  H     0.89388   0.41618   0.62695   0.00000  Uiso   1.00
H1162  H     0.94778   0.40472   0.60339   0.00000  Uiso   1.00
N1163  N     0.94501   0.47871   0.91371   0.00000  Uiso   1.00
N1164  N     0.96038   0.45985   0.98747   0.00000  Uiso   1.00
O1165  O     0.83333   0.50000   0.75000   0.00000  Uiso   1.00
O1166  O     0.82118   0.45970   0.65459   0.00000  Uiso   1.00
O1167  O     0.79607   0.53724   0.84968   0.00000  Uiso   1.00
O1168  O     0.87491   0.51092   0.64606   0.00000  Uiso   1.00
O1169  O     0.84118   0.49213   0.84968   0.00000  Uiso   1.00
O1170  O     0.93268   0.45538   0.57927   0.00000  Uiso   1.00
O1171  O     0.87088   0.33840   0.69391   0.00000  Uiso   1.00
O1172  O     0.74605   0.56124   0.92444   0.00000  Uiso   1.00
O1173  O     0.90088   0.52864   0.88112   0.00000  Uiso   1.00
O1174  O     0.84597   0.41352   0.78214   0.00000  Uiso   1.00
O1175  O     0.81298   0.59418   0.77014   0.00000  Uiso   1.00
O1176  O     0.74078   0.46625   0.73413   0.00000  Uiso   1.00
O1177  O     0.93360   0.52605   0.71361   0.00000  Uiso   1.00
O1178  O     0.73738   0.52211   0.78213   0.00000  Uiso   1.00
O1179  O     0.92158   0.48559   0.77014   0.00000  Uiso   1.00
O1180  O     0.80426   0.40277   0.73413   0.00000  Uiso   1.00
O1181  O     0.87012   0.58953   0.71361   0.00000  Uiso   1.00
Zn1182 Zn    0.86005   0.47327   0.78734   0.00000  Uiso   1.00
Zn1183 Zn    0.80046   0.45791   0.71876   0.00000  Uiso   1.00
Zn1184 Zn    0.87723   0.53109   0.70657   0.00000  Uiso   1.00
Zn1185 Zn    0.79560   0.53773   0.78734   0.00000  Uiso   1.00
C1186  C     0.05277   0.82645   0.76010   0.00000  Uiso   1.00
C1187  C     0.16855   0.81888   0.55803   0.00000  Uiso   1.00
C1188  C     0.23712   0.79753   0.55678   0.00000  Uiso   1.00
C1189  C     0.28085   0.84054   0.74000   0.00000  Uiso   1.00
C1190  C     0.14206   0.86050   0.92049   0.00000  Uiso   1.00
C1191  C     0.32674   0.84323   0.73580   0.00000  Uiso   1.00
C1192  C     0.00745   0.82430   0.76431   0.00000  Uiso   1.00
C1193  C     0.17705   0.98813   0.73217   0.00000  Uiso   1.00
C1194  C     0.15338   0.67867   0.76435   0.00000  Uiso   1.00
C1195  C     0.15634   0.72262   0.76036   0.00000  Uiso   1.00
C1196  C     0.17606   0.94444   0.73943   0.00000  Uiso   1.00
C1197  C     0.09165   0.87481   0.99221   0.00000  Uiso   1.00
C1198  C     0.18562   0.81504   0.62927   0.00000  Uiso   1.00
C1199  C     0.14960   0.85242   0.87097   0.00000  Uiso   1.00
C1200  C     0.25088   0.80068   0.51006   0.00000  Uiso   1.00
C1201  C     0.19624   0.80762   0.58050   0.00000  Uiso   1.00
C1202  C     0.10335   0.87548   0.94551   0.00000  Uiso   1.00
C1203  C     0.25329   0.74870   0.59539   0.00000  Uiso   1.00
C1204  C     0.18656   0.99155   0.65715   0.00000  Uiso   1.00
C1205  C     0.27376   0.77508   0.88422   0.00000  Uiso   1.00
C1206  C     0.30037   0.74985   0.97731   0.00000  Uiso   1.00
C1207  C     0.03858   0.87157   0.92864   0.00000  Uiso   1.00
C1208  C     0.11621   0.85726   0.51400   0.00000  Uiso   1.00
C1209  C     0.24689   0.90461   0.88984   0.00000  Uiso   1.00
C1210  C     0.15592   0.84317   0.99024   0.00000  Uiso   1.00
C1211  C     0.17068   0.84902   0.94360   0.00000  Uiso   1.00
C1212  C     0.18225   0.82561   0.51187   0.00000  Uiso   1.00
C1213  C     0.22391   0.81558   0.98710   0.00000  Uiso   1.00
C1214  C     0.23858   0.82390   0.94110   0.00000  Uiso   1.00
C1215  C     0.21416   0.84478   0.92164   0.00000  Uiso   1.00
H1216  H     0.31898   0.80710   0.79120   0.00000  Uiso   1.00
H1217  H     0.15520   0.67022   0.66181   0.00000  Uiso   1.00
H1218  H     0.18283   0.95709   0.65129   0.00000  Uiso   1.00
H1219  H     0.20881   0.67066   0.62633   0.00000  Uiso   1.00
H1220  H     0.29790   0.83592   0.89640   0.00000  Uiso   1.00
H1221  H     0.30598   0.76560   0.86730   0.00000  Uiso   1.00
H1222  H     0.25810   0.78126   0.85816   0.00000  Uiso   1.00
H1223  H     0.25414   0.74908   0.90363   0.00000  Uiso   1.00
H1224  H     0.31676   0.81008   0.50159   0.00000  Uiso   1.00
H1225  H     0.32859   0.74719   0.94802   0.00000  Uiso   1.00
H1226  H     0.27193   0.73099   0.96888   0.00000  Uiso   1.00
H1227  H     0.13415   0.99982   0.79580   0.00000  Uiso   1.00
H1228  H     0.30698   0.73717   0.50633   0.00000  Uiso   1.00
H1229  H     0.01779   0.87580   0.96330   0.00000  Uiso   1.00
H1230  H     0.04086   0.83793   0.91848   0.00000  Uiso   1.00
H1231  H     0.02294   0.88376   0.90578   0.00000  Uiso   1.00
H1232  H     0.26930   0.90941   0.91199   0.00000  Uiso   1.00
H1233  H     0.21859   0.92175   0.90485   0.00000  Uiso   1.00
H1234  H     0.26421   0.91802   0.85749   0.00000  Uiso   1.00
H1235  H     0.13733   0.82481   0.57859   0.00000  Uiso   1.00
H1236  H     0.10383   0.85728   0.54988   0.00000  Uiso   1.00
H1237  H     0.06288   0.88754   0.51194   0.00000  Uiso   1.00
H1238  H     0.01587   0.86059   0.70935   0.00000  Uiso   1.00
H1239  H     0.24319   0.72535   0.57003   0.00000  Uiso   1.00
H1240  H     0.22721   0.74951   0.62695   0.00000  Uiso   1.00
H1241  H     0.28111   0.73805   0.60339   0.00000  Uiso   1.00
N1242  N     0.27835   0.81205   0.91371   0.00000  Uiso   1.00
N1243  N     0.29371   0.79318   0.98747   0.00000  Uiso   1.00
O1244  O     0.16667   0.83333   0.75000   0.00000  Uiso   1.00
O1245  O     0.15451   0.79304   0.65459   0.00000  Uiso   1.00
O1246  O     0.12940   0.87058   0.84968   0.00000  Uiso   1.00
O1247  O     0.20824   0.84425   0.64606   0.00000  Uiso   1.00
O1248  O     0.17451   0.82546   0.84968   0.00000  Uiso   1.00
O1249  O     0.26601   0.78872   0.57927   0.00000  Uiso   1.00
O1250  O     0.20421   0.67174   0.69391   0.00000  Uiso   1.00
O1251  O     0.07938   0.89457   0.92444   0.00000  Uiso   1.00
O1252  O     0.23421   0.86198   0.88112   0.00000  Uiso   1.00
O1253  O     0.17930   0.74686   0.78214   0.00000  Uiso   1.00
O1254  O     0.14632   0.92751   0.77014   0.00000  Uiso   1.00
O1255  O     0.07412   0.79958   0.73413   0.00000  Uiso   1.00
O1256  O     0.26693   0.85939   0.71361   0.00000  Uiso   1.00
O1257  O     0.07071   0.85544   0.78213   0.00000  Uiso   1.00
O1258  O     0.25491   0.81892   0.77014   0.00000  Uiso   1.00
O1259  O     0.13760   0.73610   0.73413   0.00000  Uiso   1.00
O1260  O     0.20345   0.92286   0.71361   0.00000  Uiso   1.00
Zn1261 Zn    0.19338   0.80661   0.78734   0.00000  Uiso   1.00
Zn1262 Zn    0.13379   0.79124   0.71876   0.00000  Uiso   1.00
Zn1263 Zn    0.21056   0.86442   0.70657   0.00000  Uiso   1.00
Zn1264 Zn    0.12893   0.87106   0.78734   0.00000  Uiso   1.00
C1265  C     0.38610   0.82645   0.76010   0.00000  Uiso   1.00
C1266  C     0.50189   0.81888   0.55803   0.00000  Uiso   1.00
C1267  C     0.57046   0.79753   0.55678   0.00000  Uiso   1.00
C1268  C     0.61419   0.84054   0.74000   0.00000  Uiso   1.00
C1269  C     0.47539   0.86050   0.92049   0.00000  Uiso   1.00
C1270  C     0.66008   0.84323   0.73580   0.00000  Uiso   1.00
C1271  C     0.34079   0.82430   0.76431   0.00000  Uiso   1.00
C1272  C     0.51038   0.98813   0.73217   0.00000  Uiso   1.00
C1273  C     0.48672   0.67867   0.76435   0.00000  Uiso   1.00
C1274  C     0.48967   0.72262   0.76036   0.00000  Uiso   1.00
C1275  C     0.50939   0.94444   0.73943   0.00000  Uiso   1.00
C1276  C     0.42499   0.87481   0.99221   0.00000  Uiso   1.00
C1277  C     0.51895   0.81504   0.62927   0.00000  Uiso   1.00
C1278  C     0.48293   0.85242   0.87097   0.00000  Uiso   1.00
C1279  C     0.58421   0.80068   0.51006   0.00000  Uiso   1.00
C1280  C     0.52957   0.80762   0.58050   0.00000  Uiso   1.00
C1281  C     0.43668   0.87548   0.94551   0.00000  Uiso   1.00
C1282  C     0.58662   0.74870   0.59539   0.00000  Uiso   1.00
C1283  C     0.51990   0.99155   0.65715   0.00000  Uiso   1.00
C1284  C     0.60709   0.77508   0.88422   0.00000  Uiso   1.00
C1285  C     0.63370   0.74985   0.97731   0.00000  Uiso   1.00
C1286  C     0.37191   0.87157   0.92864   0.00000  Uiso   1.00
C1287  C     0.44955   0.85726   0.51400   0.00000  Uiso   1.00
C1288  C     0.58022   0.90461   0.88984   0.00000  Uiso   1.00
C1289  C     0.48925   0.84317   0.99024   0.00000  Uiso   1.00
C1290  C     0.50401   0.84902   0.94360   0.00000  Uiso   1.00
C1291  C     0.51558   0.82561   0.51187   0.00000  Uiso   1.00
C1292  C     0.55724   0.81558   0.98710   0.00000  Uiso   1.00
C1293  C     0.57191   0.82390   0.94110   0.00000  Uiso   1.00
C1294  C     0.54749   0.84478   0.92164   0.00000  Uiso   1.00
H1295  H     0.65232   0.80710   0.79120   0.00000  Uiso   1.00
H1296  H     0.48853   0.67022   0.66181   0.00000  Uiso   1.00
H1297  H     0.51616   0.95709   0.65129   0.00000  Uiso   1.00
H1298  H     0.54214   0.67066   0.62633   0.00000  Uiso   1.00
H1299  H     0.63123   0.83592   0.89640   0.00000  Uiso   1.00
H1300  H     0.63931   0.76560   0.86730   0.00000  Uiso   1.00
H1301  H     0.59143   0.78126   0.85816   0.00000  Uiso   1.00
H1302  H     0.58747   0.74908   0.90363   0.00000  Uiso   1.00
H1303  H     0.65010   0.81008   0.50159   0.00000  Uiso   1.00
H1304  H     0.66192   0.74719   0.94802   0.00000  Uiso   1.00
H1305  H     0.60527   0.73099   0.96888   0.00000  Uiso   1.00
H1306  H     0.46748   0.99982   0.79580   0.00000  Uiso   1.00
H1307  H     0.64031   0.73717   0.50633   0.00000  Uiso   1.00
H1308  H     0.35112   0.87580   0.96330   0.00000  Uiso   1.00
H1309  H     0.37419   0.83793   0.91848   0.00000  Uiso   1.00
H1310  H     0.35627   0.88376   0.90578   0.00000  Uiso   1.00
H1311  H     0.60263   0.90941   0.91199   0.00000  Uiso   1.00
H1312  H     0.55192   0.92175   0.90485   0.00000  Uiso   1.00
H1313  H     0.59754   0.91802   0.85749   0.00000  Uiso   1.00
H1314  H     0.47067   0.82481   0.57859   0.00000  Uiso   1.00
H1315  H     0.43716   0.85728   0.54988   0.00000  Uiso   1.00
H1316  H     0.39621   0.88754   0.51194   0.00000  Uiso   1.00
H1317  H     0.34920   0.86059   0.70935   0.00000  Uiso   1.00
H1318  H     0.57652   0.72535   0.57003   0.00000  Uiso   1.00
H1319  H     0.56054   0.74951   0.62695   0.00000  Uiso   1.00
H1320  H     0.61444   0.73805   0.60339   0.00000  Uiso   1.00
N1321  N     0.61168   0.81205   0.91371   0.00000  Uiso   1.00
N1322  N     0.62705   0.79318   0.98747   0.00000  Uiso   1.00
O1323  O     0.50000   0.83333   0.75000   0.00000  Uiso   1.00
O1324  O     0.48784   0.79304   0.65459   0.00000  Uiso   1.00
O1325  O     0.46274   0.87058   0.84968   0.00000  Uiso   1.00
O1326  O     0.54157   0.84425   0.64606   0.00000  Uiso   1.00
O1327  O     0.50785   0.82546   0.84968   0.00000  Uiso   1.00
O1328  O     0.59934   0.78872   0.57927   0.00000  Uiso   1.00
O1329  O     0.53754   0.67174   0.69391   0.00000  Uiso   1.00
O1330  O     0.41272   0.89457   0.92444   0.00000  Uiso   1.00
O1331  O     0.56755   0.86198   0.88112   0.00000  Uiso   1.00
O1332  O     0.51264   0.74686   0.78214   0.00000  Uiso   1.00
O1333  O     0.47965   0.92751   0.77014   0.00000  Uiso   1.00
O1334  O     0.40745   0.79958   0.73413   0.00000  Uiso   1.00
O1335  O     0.60026   0.85939   0.71361   0.00000  Uiso   1.00
O1336  O     0.40405   0.85544   0.78213   0.00000  Uiso   1.00
O1337  O     0.58824   0.81892   0.77014   0.00000  Uiso   1.00
O1338  O     0.47093   0.73610   0.73413   0.00000  Uiso   1.00
O1339  O     0.53678   0.92286   0.71361   0.00000  Uiso   1.00
Zn1340 Zn    0.52672   0.80661   0.78734   0.00000  Uiso   1.00
Zn1341 Zn    0.46713   0.79124   0.71876   0.00000  Uiso   1.00
Zn1342 Zn    0.54389   0.86442   0.70657   0.00000  Uiso   1.00
Zn1343 Zn    0.46226   0.87106   0.78734   0.00000  Uiso   1.00
C1344  C     0.71943   0.82645   0.76010   0.00000  Uiso   1.00
C1345  C     0.83522   0.81888   0.55803   0.00000  Uiso   1.00
C1346  C     0.90379   0.79753   0.55678   0.00000  Uiso   1.00
C1347  C     0.94752   0.84054   0.74000   0.00000  Uiso   1.00
C1348  C     0.80873   0.86050   0.92049   0.00000  Uiso   1.00
C1349  C     0.99341   0.84323   0.73580   0.00000  Uiso   1.00
C1350  C     0.67412   0.82430   0.76431   0.00000  Uiso   1.00
C1351  C     0.84371   0.98813   0.73217   0.00000  Uiso   1.00
C1352  C     0.82005   0.67867   0.76435   0.00000  Uiso   1.00
C1353  C     0.82301   0.72262   0.76036   0.00000  Uiso   1.00
C1354  C     0.84273   0.94444   0.73943   0.00000  Uiso   1.00
C1355  C     0.75832   0.87481   0.99221   0.00000  Uiso   1.00
C1356  C     0.85228   0.81504   0.62927   0.00000  Uiso   1.00
C1357  C     0.81626   0.85242   0.87097   0.00000  Uiso   1.00
C1358  C     0.91755   0.80068   0.51006   0.00000  Uiso   1.00
C1359  C     0.86290   0.80762   0.58050   0.00000  Uiso   1.00
C1360  C     0.77002   0.87548   0.94551   0.00000  Uiso   1.00
C1361  C     0.91995   0.74870   0.59539   0.00000  Uiso   1.00
C1362  C     0.85323   0.99155   0.65715   0.00000  Uiso   1.00
C1363  C     0.94043   0.77508   0.88422   0.00000  Uiso   1.00
C1364  C     0.96704   0.74985   0.97731   0.00000  Uiso   1.00
C1365  C     0.70525   0.87157   0.92864   0.00000  Uiso   1.00
C1366  C     0.78288   0.85726   0.51400   0.00000  Uiso   1.00
C1367  C     0.91355   0.90461   0.88984   0.00000  Uiso   1.00
C1368  C     0.82259   0.84317   0.99024   0.00000  Uiso   1.00
C1369  C     0.83735   0.84902   0.94360   0.00000  Uiso   1.00
C1370  C     0.84892   0.82561   0.51187   0.00000  Uiso   1.00
C1371  C     0.89058   0.81558   0.98710   0.00000  Uiso   1.00
C1372  C     0.90525   0.82390   0.94110   0.00000  Uiso   1.00
C1373  C     0.88083   0.84478   0.92164   0.00000  Uiso   1.00
H1374  H     0.98565   0.80710   0.79120   0.00000  Uiso   1.00
H1375  H     0.82187   0.67022   0.66181   0.00000  Uiso   1.00
H1376  H     0.84949   0.95709   0.65129   0.00000  Uiso   1.00
H1377  H     0.87547   0.67066   0.62633   0.00000  Uiso   1.00
H1378  H     0.96457   0.83592   0.89640   0.00000  Uiso   1.00
H1379  H     0.97265   0.76560   0.86730   0.00000  Uiso   1.00
H1380  H     0.92476   0.78126   0.85816   0.00000  Uiso   1.00
H1381  H     0.92081   0.74908   0.90363   0.00000  Uiso   1.00
H1382  H     0.98343   0.81008   0.50159   0.00000  Uiso   1.00
H1383  H     0.99525   0.74719   0.94802   0.00000  Uiso   1.00
H1384  H     0.93860   0.73099   0.96888   0.00000  Uiso   1.00
H1385  H     0.80082   0.99982   0.79580   0.00000  Uiso   1.00
H1386  H     0.97364   0.73717   0.50633   0.00000  Uiso   1.00
H1387  H     0.68445   0.87580   0.96330   0.00000  Uiso   1.00
H1388  H     0.70752   0.83793   0.91848   0.00000  Uiso   1.00
H1389  H     0.68961   0.88376   0.90578   0.00000  Uiso   1.00
H1390  H     0.93597   0.90941   0.91199   0.00000  Uiso   1.00
H1391  H     0.88526   0.92175   0.90485   0.00000  Uiso   1.00
H1392  H     0.93087   0.91802   0.85749   0.00000  Uiso   1.00
H1393  H     0.80400   0.82481   0.57859   0.00000  Uiso   1.00
H1394  H     0.77050   0.85728   0.54988   0.00000  Uiso   1.00
H1395  H     0.72955   0.88754   0.51194   0.00000  Uiso   1.00
H1396  H     0.68254   0.86059   0.70935   0.00000  Uiso   1.00
H1397  H     0.90986   0.72535   0.57003   0.00000  Uiso   1.00
H1398  H     0.89388   0.74951   0.62695   0.00000  Uiso   1.00
H1399  H     0.94778   0.73805   0.60339   0.00000  Uiso   1.00
N1400  N     0.94501   0.81205   0.91371   0.00000  Uiso   1.00
N1401  N     0.96038   0.79318   0.98747   0.00000  Uiso   1.00
O1402  O     0.83333   0.83333   0.75000   0.00000  Uiso   1.00
O1403  O     0.82118   0.79304   0.65459   0.00000  Uiso   1.00
O1404  O     0.79607   0.87058   0.84968   0.00000  Uiso   1.00
O1405  O     0.87491   0.84425   0.64606   0.00000  Uiso   1.00
O1406  O     0.84118   0.82546   0.84968   0.00000  Uiso   1.00
O1407  O     0.93268   0.78872   0.57927   0.00000  Uiso   1.00
O1408  O     0.87088   0.67174   0.69391   0.00000  Uiso   1.00
O1409  O     0.74605   0.89457   0.92444   0.00000  Uiso   1.00
O1410  O     0.90088   0.86198   0.88112   0.00000  Uiso   1.00
O1411  O     0.84597   0.74686   0.78214   0.00000  Uiso   1.00
O1412  O     0.81298   0.92751   0.77014   0.00000  Uiso   1.00
O1413  O     0.74078   0.79958   0.73413   0.00000  Uiso   1.00
O1414  O     0.93360   0.85939   0.71361   0.00000  Uiso   1.00
O1415  O     0.73738   0.85544   0.78213   0.00000  Uiso   1.00
O1416  O     0.92158   0.81892   0.77014   0.00000  Uiso   1.00
O1417  O     0.80426   0.73610   0.73413   0.00000  Uiso   1.00
O1418  O     0.87012   0.92286   0.71361   0.00000  Uiso   1.00
Zn1419 Zn    0.86005   0.80661   0.78734   0.00000  Uiso   1.00
Zn1420 Zn    0.80046   0.79124   0.71876   0.00000  Uiso   1.00
Zn1421 Zn    0.87723   0.86442   0.70657   0.00000  Uiso   1.00
Zn1422 Zn    0.79560   0.87106   0.78734   0.00000  Uiso   1.00
loop_
_geom_bond_atom_site_label_1
_geom_bond_atom_site_label_2
_geom_bond_distance
_geom_bond_site_symmetry_2
_ccdc_geom_bond_type
C1     O72     1.272   .     A
C1     C7      1.437   .     S
C1     O70     1.273   .     A
C2     H50     1.076   .     S
C2     C27     1.409   .     A
C2     C16     1.384   .     A
C3     O64     1.386   .     S
C3     C15     1.405   .     A
C3     C16     1.403   .     A
C4     C6      1.455   .     S
C4     O73     1.275   .     A
C4     O71     1.278   .     A
C5     C17     1.413   .     A
C5     C14     1.487   .     S
C5     C26     1.426   .     A
C6     C86     1.334   .     S
C6     H132    1.088   .     S
C7     C164    1.334   1_455 S
C7     H189    1.085   1_455 S
C8     C11     1.459   .     S
C8     C246    1.336   .     S
C8     O302    1.388   .     S
C9     C10     1.437   .     S
C9     C482    1.336   1_545 S
C9     H516    1.087   1_545 S
C10    O68     1.275   .     A
C10    O74     1.282   .     A
C11    O69     1.268   .     A
C11    O75     1.267   .     A
C12    C17     1.394   .     A
C12    C734    1.386   .     S
C12    H763    1.083   .     S
C13    O60     1.280   .     A
C13    O62     1.272   .     A
C13    C16     1.457   .     S
C14    O61     1.282   .     A
C14    O63     1.287   .     A
C15    C739    1.429   1_554 S
C15    N769    1.425   1_554 S
C17    O66     1.385   .     S
C18    H56     1.109   .     S
C18    H55     1.110   .     S
C18    O64     1.411   .     S
C18    H54     1.115   .     S
C19    H33     1.112   .     S
C19    H269    1.113   .     S
C19    H271    1.107   .     S
C19    O302    1.411   .     S
C20    H38     1.110   .     S
C20    H37     1.112   .     S
C20    H36     1.110   .     S
C20    N57     1.447   .     S
C21    H41     1.111   .     S
C21    N58     1.447   .     S
C21    H40     1.110   .     S
C21    H754    1.110   .     S
C22    O66     1.409   .     S
C22    H44     1.111   .     S
C22    H46     1.108   .     S
C22    H45     1.115   .     S
C23    H51     1.075   .     S
C23    C723    1.386   1_554 S
C23    C736    1.418   1_554 S
C24    O67     1.410   .     S
C24    H48     1.113   .     S
C24    H49     1.109   .     S
C24    H47     1.114   .     S
C25    C26     1.418   .     A
C25    C734    1.418   .     S
C25    C738    1.428   .     S
C26    C30     1.415   .     A
C27    C736    1.428   1_554 S
C27    C739    1.431   1_554 S
C28    C29     1.417   .     A
C28    C726    1.429   .     S
C28    C738    1.431   .     S
C29    C30     1.398   .     A
C29    N57     1.424   .     S
C30    O67     1.385   .     S
H31    C86     1.085   .     S
H32    C493    1.113   1_545 S
H34    C493    1.107   1_545 S
H35    N57     1.030   .     S
H39    N769    1.031   1_554 S
H42    C246    1.087   .     S
H43    C732    1.110   1_554 S
H52    C723    1.083   1_554 S
H53    C164    1.088   1_455 S
N58    H750    1.031   .     S
N58    C726    1.425   .     S
O59    Zn77    1.953   .     S
O59    Zn78    1.928   .     S
O59    Zn79    1.929   .     S
O59    Zn76    1.954   .     S
O60    Zn77    1.923   .     S
O61    Zn79    1.936   .     S
O62    Zn78    1.936   .     S
O63    Zn76    1.923   .     S
O65    C493    1.411   1_545 S
O65    C482    1.388   1_545 S
O68    Zn76    1.934   .     S
O69    Zn79    1.932   .     S
O70    Zn77    1.923   .     S
O71    Zn78    1.936   .     S
O72    Zn79    1.935   .     S
O73    Zn76    1.923   .     S
O74    Zn77    1.935   .     S
O75    Zn78    1.933   .     S
C80    O151    1.272   .     A
C80    C86     1.437   .     S
C80    O149    1.273   .     A
C81    H129    1.076   .     S
C81    C106    1.409   .     A
C81    C95     1.384   .     A
C82    O143    1.386   .     S
C82    C94     1.405   .     A
C82    C95     1.403   .     A
C83    C85     1.455   .     S
C83    O152    1.275   .     A
C83    O150    1.278   .     A
C84    C96     1.413   .     A
C84    C93     1.487   .     S
C84    C105    1.426   .     A
C85    C165    1.334   .     S
C85    H211    1.088   .     S
C87    C90     1.459   .     S
C87    C325    1.336   .     S
C87    O381    1.388   .     S
C88    C89     1.437   .     S
C88    C561    1.336   1_545 S
C88    H595    1.087   1_545 S
C89    O147    1.275   .     A
C89    O153    1.282   .     A
C90    O148    1.268   .     A
C90    O154    1.267   .     A
C91    C96     1.394   .     A
C91    C813    1.386   .     S
C91    H842    1.083   .     S
C92    O139    1.280   .     A
C92    O141    1.272   .     A
C92    C95     1.457   .     S
C93    O140    1.282   .     A
C93    O142    1.287   .     A
C94    C818    1.429   1_554 S
C94    N848    1.425   1_554 S
C96    O145    1.385   .     S
C97    H135    1.109   .     S
C97    H134    1.110   .     S
C97    O143    1.411   .     S
C97    H133    1.115   .     S
C98    H112    1.112   .     S
C98    H348    1.113   .     S
C98    H350    1.107   .     S
C98    O381    1.411   .     S
C99    H117    1.110   .     S
C99    H116    1.112   .     S
C99    H115    1.110   .     S
C99    N136    1.447   .     S
C100   H120    1.111   .     S
C100   N137    1.447   .     S
C100   H119    1.110   .     S
C100   H833    1.110   .     S
C101   O145    1.409   .     S
C101   H123    1.111   .     S
C101   H125    1.108   .     S
C101   H124    1.115   .     S
C102   H130    1.075   .     S
C102   C802    1.386   1_554 S
C102   C815    1.418   1_554 S
C103   O146    1.410   .     S
C103   H127    1.113   .     S
C103   H128    1.109   .     S
C103   H126    1.114   .     S
C104   C105    1.418   .     A
C104   C813    1.418   .     S
C104   C817    1.428   .     S
C105   C109    1.415   .     A
C106   C815    1.428   1_554 S
C106   C818    1.431   1_554 S
C107   C108    1.417   .     A
C107   C805    1.429   .     S
C107   C817    1.431   .     S
C108   C109    1.398   .     A
C108   N136    1.424   .     S
C109   O146    1.385   .     S
H110   C165    1.085   .     S
H111   C572    1.113   1_545 S
H113   C572    1.107   1_545 S
H114   N136    1.030   .     S
H118   N848    1.031   1_554 S
H121   C325    1.087   .     S
H122   C811    1.110   1_554 S
H131   C802    1.083   1_554 S
N137   H829    1.031   .     S
N137   C805    1.425   .     S
O138   Zn156   1.953   .     S
O138   Zn157   1.928   .     S
O138   Zn158   1.929   .     S
O138   Zn155   1.954   .     S
O139   Zn156   1.923   .     S
O140   Zn158   1.936   .     S
O141   Zn157   1.936   .     S
O142   Zn155   1.923   .     S
O144   C572    1.411   1_545 S
O144   C561    1.388   1_545 S
O147   Zn155   1.934   .     S
O148   Zn158   1.932   .     S
O149   Zn156   1.923   .     S
O150   Zn157   1.936   .     S
O151   Zn158   1.935   .     S
O152   Zn155   1.923   .     S
O153   Zn156   1.935   .     S
O154   Zn157   1.933   .     S
C159   O230    1.272   .     A
C159   C165    1.437   .     S
C159   O228    1.273   .     A
C160   H208    1.076   .     S
C160   C185    1.409   .     A
C160   C174    1.384   .     A
C161   O222    1.386   .     S
C161   C173    1.405   .     A
C161   C174    1.403   .     A
C162   C164    1.455   .     S
C162   O231    1.275   .     A
C162   O229    1.278   .     A
C163   C175    1.413   .     A
C163   C172    1.487   .     S
C163   C184    1.426   .     A
C164   C7      1.334   1_655 S
C164   H53     1.088   1_655 S
C166   C169    1.459   .     S
C166   C404    1.336   .     S
C166   O460    1.388   .     S
C167   C168    1.437   .     S
C167   C640    1.336   1_545 S
C167   H674    1.087   1_545 S
C168   O226    1.275   .     A
C168   O232    1.282   .     A
C169   O227    1.268   .     A
C169   O233    1.267   .     A
C170   C175    1.394   .     A
C170   C892    1.386   .     S
C170   H921    1.083   .     S
C171   O218    1.280   .     A
C171   O220    1.272   .     A
C171   C174    1.457   .     S
C172   O219    1.282   .     A
C172   O221    1.287   .     A
C173   C897    1.429   1_554 S
C173   N927    1.425   1_554 S
C175   O224    1.385   .     S
C176   H214    1.109   .     S
C176   H213    1.110   .     S
C176   O222    1.411   .     S
C176   H212    1.115   .     S
C177   H191    1.112   .     S
C177   H427    1.113   .     S
C177   H429    1.107   .     S
C177   O460    1.411   .     S
C178   H196    1.110   .     S
C178   H195    1.112   .     S
C178   H194    1.110   .     S
C178   N215    1.447   .     S
C179   H199    1.111   .     S
C179   N216    1.447   .     S
C179   H198    1.110   .     S
C179   H912    1.110   .     S
C180   O224    1.409   .     S
C180   H202    1.111   .     S
C180   H204    1.108   .     S
C180   H203    1.115   .     S
C181   H209    1.075   .     S
C181   C881    1.386   1_554 S
C181   C894    1.418   1_554 S
C182   O225    1.410   .     S
C182   H206    1.113   .     S
C182   H207    1.109   .     S
C182   H205    1.114   .     S
C183   C184    1.418   .     A
C183   C892    1.418   .     S
C183   C896    1.428   .     S
C184   C188    1.415   .     A
C185   C894    1.428   1_554 S
C185   C897    1.431   1_554 S
C186   C187    1.417   .     A
C186   C884    1.429   .     S
C186   C896    1.431   .     S
C187   C188    1.398   .     A
C187   N215    1.424   .     S
C188   O225    1.385   .     S
H189   C7      1.085   1_655 S
H190   C651    1.113   1_545 S
H192   C651    1.107   1_545 S
H193   N215    1.030   .     S
H197   N927    1.031   1_554 S
H200   C404    1.087   .     S
H201   C890    1.110   1_554 S
H210   C881    1.083   1_554 S
N216   H908    1.031   .     S
N216   C884    1.425   .     S
O217   Zn235   1.953   .     S
O217   Zn236   1.928   .     S
O217   Zn237   1.929   .     S
O217   Zn234   1.954   .     S
O218   Zn235   1.923   .     S
O219   Zn237   1.936   .     S
O220   Zn236   1.936   .     S
O221   Zn234   1.923   .     S
O223   C651    1.411   1_545 S
O223   C640    1.388   1_545 S
O226   Zn234   1.934   .     S
O227   Zn237   1.932   .     S
O228   Zn235   1.923   .     S
O229   Zn236   1.936   .     S
O230   Zn237   1.935   .     S
O231   Zn234   1.923   .     S
O232   Zn235   1.935   .     S
O233   Zn236   1.933   .     S
C238   O309    1.272   .     A
C238   C244    1.437   .     S
C238   O307    1.273   .     A
C239   H287    1.076   .     S
C239   C264    1.409   .     A
C239   C253    1.384   .     A
C240   O301    1.386   .     S
C240   C252    1.405   .     A
C240   C253    1.403   .     A
C241   C243    1.455   .     S
C241   O310    1.275   .     A
C241   O308    1.278   .     A
C242   C254    1.413   .     A
C242   C251    1.487   .     S
C242   C263    1.426   .     A
C243   C323    1.334   .     S
C243   H369    1.088   .     S
C244   C401    1.334   1_455 S
C244   H426    1.085   1_455 S
C245   C248    1.459   .     S
C245   C483    1.336   .     S
C245   O539    1.388   .     S
C246   C247    1.437   .     S
C247   O305    1.275   .     A
C247   O311    1.282   .     A
C248   O306    1.268   .     A
C248   O312    1.267   .     A
C249   C254    1.394   .     A
C249   C971    1.386   .     S
C249   H1000   1.083   .     S
C250   O297    1.280   .     A
C250   O299    1.272   .     A
C250   C253    1.457   .     S
C251   O298    1.282   .     A
C251   O300    1.287   .     A
C252   C976    1.429   1_554 S
C252   N1006   1.425   1_554 S
C254   O303    1.385   .     S
C255   H293    1.109   .     S
C255   H292    1.110   .     S
C255   O301    1.411   .     S
C255   H291    1.115   .     S
C256   H270    1.112   .     S
C256   H506    1.113   .     S
C256   H508    1.107   .     S
C256   O539    1.411   .     S
C257   H275    1.110   .     S
C257   H274    1.112   .     S
C257   H273    1.110   .     S
C257   N294    1.447   .     S
C258   H278    1.111   .     S
C258   N295    1.447   .     S
C258   H277    1.110   .     S
C258   H991    1.110   .     S
C259   O303    1.409   .     S
C259   H281    1.111   .     S
C259   H283    1.108   .     S
C259   H282    1.115   .     S
C260   H288    1.075   .     S
C260   C960    1.386   1_554 S
C260   C973    1.418   1_554 S
C261   O304    1.410   .     S
C261   H285    1.113   .     S
C261   H286    1.109   .     S
C261   H284    1.114   .     S
C262   C263    1.418   .     A
C262   C971    1.418   .     S
C262   C975    1.428   .     S
C263   C267    1.415   .     A
C264   C973    1.428   1_554 S
C264   C976    1.431   1_554 S
C265   C266    1.417   .     A
C265   C963    1.429   .     S
C265   C975    1.431   .     S
C266   C267    1.398   .     A
C266   N294    1.424   .     S
C267   O304    1.385   .     S
H268   C323    1.085   .     S
H272   N294    1.030   .     S
H276   N1006   1.031   1_554 S
H279   C483    1.087   .     S
H280   C969    1.110   1_554 S
H289   C960    1.083   1_554 S
H290   C401    1.088   1_455 S
N295   H987    1.031   .     S
N295   C963    1.425   .     S
O296   Zn314   1.953   .     S
O296   Zn315   1.928   .     S
O296   Zn316   1.929   .     S
O296   Zn313   1.954   .     S
O297   Zn314   1.923   .     S
O298   Zn316   1.936   .     S
O299   Zn315   1.936   .     S
O300   Zn313   1.923   .     S
O305   Zn313   1.934   .     S
O306   Zn316   1.932   .     S
O307   Zn314   1.923   .     S
O308   Zn315   1.936   .     S
O309   Zn316   1.935   .     S
O310   Zn313   1.923   .     S
O311   Zn314   1.935   .     S
O312   Zn315   1.933   .     S
C317   O388    1.272   .     A
C317   C323    1.437   .     S
C317   O386    1.273   .     A
C318   H366    1.076   .     S
C318   C343    1.409   .     A
C318   C332    1.384   .     A
C319   O380    1.386   .     S
C319   C331    1.405   .     A
C319   C332    1.403   .     A
C320   C322    1.455   .     S
C320   O389    1.275   .     A
C320   O387    1.278   .     A
C321   C333    1.413   .     A
C321   C330    1.487   .     S
C321   C342    1.426   .     A
C322   C402    1.334   .     S
C322   H448    1.088   .     S
C324   C327    1.459   .     S
C324   C562    1.336   .     S
C324   O618    1.388   .     S
C325   C326    1.437   .     S
C326   O384    1.275   .     A
C326   O390    1.282   .     A
C327   O385    1.268   .     A
C327   O391    1.267   .     A
C328   C333    1.394   .     A
C328   C1050   1.386   .     S
C328   H1079   1.083   .     S
C329   O376    1.280   .     A
C329   O378    1.272   .     A
C329   C332    1.457   .     S
C330   O377    1.282   .     A
C330   O379    1.287   .     A
C331   C1055   1.429   1_554 S
C331   N1085   1.425   1_554 S
C333   O382    1.385   .     S
C334   H372    1.109   .     S
C334   H371    1.110   .     S
C334   O380    1.411   .     S
C334   H370    1.115   .     S
C335   H349    1.112   .     S
C335   H585    1.113   .     S
C335   H587    1.107   .     S
C335   O618    1.411   .     S
C336   H354    1.110   .     S
C336   H353    1.112   .     S
C336   H352    1.110   .     S
C336   N373    1.447   .     S
C337   H357    1.111   .     S
C337   N374    1.447   .     S
C337   H356    1.110   .     S
C337   H1070   1.110   .     S
C338   O382    1.409   .     S
C338   H360    1.111   .     S
C338   H362    1.108   .     S
C338   H361    1.115   .     S
C339   H367    1.075   .     S
C339   C1039   1.386   1_554 S
C339   C1052   1.418   1_554 S
C340   O383    1.410   .     S
C340   H364    1.113   .     S
C340   H365    1.109   .     S
C340   H363    1.114   .     S
C341   C342    1.418   .     A
C341   C1050   1.418   .     S
C341   C1054   1.428   .     S
C342   C346    1.415   .     A
C343   C1052   1.428   1_554 S
C343   C1055   1.431   1_554 S
C344   C345    1.417   .     A
C344   C1042   1.429   .     S
C344   C1054   1.431   .     S
C345   C346    1.398   .     A
C345   N373    1.424   .     S
C346   O383    1.385   .     S
H347   C402    1.085   .     S
H351   N373    1.030   .     S
H355   N1085   1.031   1_554 S
H358   C562    1.087   .     S
H359   C1048   1.110   1_554 S
H368   C1039   1.083   1_554 S
N374   H1066   1.031   .     S
N374   C1042   1.425   .     S
O375   Zn393   1.953   .     S
O375   Zn394   1.928   .     S
O375   Zn395   1.929   .     S
O375   Zn392   1.954   .     S
O376   Zn393   1.923   .     S
O377   Zn395   1.936   .     S
O378   Zn394   1.936   .     S
O379   Zn392   1.923   .     S
O384   Zn392   1.934   .     S
O385   Zn395   1.932   .     S
O386   Zn393   1.923   .     S
O387   Zn394   1.936   .     S
O388   Zn395   1.935   .     S
O389   Zn392   1.923   .     S
O390   Zn393   1.935   .     S
O391   Zn394   1.933   .     S
C396   O467    1.272   .     A
C396   C402    1.437   .     S
C396   O465    1.273   .     A
C397   H445    1.076   .     S
C397   C422    1.409   .     A
C397   C411    1.384   .     A
C398   O459    1.386   .     S
C398   C410    1.405   .     A
C398   C411    1.403   .     A
C399   C401    1.455   .     S
C399   O468    1.275   .     A
C399   O466    1.278   .     A
C400   C412    1.413   .     A
C400   C409    1.487   .     S
C400   C421    1.426   .     A
C401   C244    1.334   1_655 S
C401   H290    1.088   1_655 S
C403   C406    1.459   .     S
C403   C641    1.336   .     S
C403   O697    1.388   .     S
C404   C405    1.437   .     S
C405   O463    1.275   .     A
C405   O469    1.282   .     A
C406   O464    1.268   .     A
C406   O470    1.267   .     A
C407   C412    1.394   .     A
C407   C1129   1.386   .     S
C407   H1158   1.083   .     S
C408   O455    1.280   .     A
C408   O457    1.272   .     A
C408   C411    1.457   .     S
C409   O456    1.282   .     A
C409   O458    1.287   .     A
C410   C1134   1.429   1_554 S
C410   N1164   1.425   1_554 S
C412   O461    1.385   .     S
C413   H451    1.109   .     S
C413   H450    1.110   .     S
C413   O459    1.411   .     S
C413   H449    1.115   .     S
C414   H428    1.112   .     S
C414   H664    1.113   .     S
C414   H666    1.107   .     S
C414   O697    1.411   .     S
C415   H433    1.110   .     S
C415   H432    1.112   .     S
C415   H431    1.110   .     S
C415   N452    1.447   .     S
C416   H436    1.111   .     S
C416   N453    1.447   .     S
C416   H435    1.110   .     S
C416   H1149   1.110   .     S
C417   O461    1.409   .     S
C417   H439    1.111   .     S
C417   H441    1.108   .     S
C417   H440    1.115   .     S
C418   H446    1.075   .     S
C418   C1118   1.386   1_554 S
C418   C1131   1.418   1_554 S
C419   O462    1.410   .     S
C419   H443    1.113   .     S
C419   H444    1.109   .     S
C419   H442    1.114   .     S
C420   C421    1.418   .     A
C420   C1129   1.418   .     S
C420   C1133   1.428   .     S
C421   C425    1.415   .     A
C422   C1131   1.428   1_554 S
C422   C1134   1.431   1_554 S
C423   C424    1.417   .     A
C423   C1121   1.429   .     S
C423   C1133   1.431   .     S
C424   C425    1.398   .     A
C424   N452    1.424   .     S
C425   O462    1.385   .     S
H426   C244    1.085   1_655 S
H430   N452    1.030   .     S
H434   N1164   1.031   1_554 S
H437   C641    1.087   .     S
H438   C1127   1.110   1_554 S
H447   C1118   1.083   1_554 S
N453   H1145   1.031   .     S
N453   C1121   1.425   .     S
O454   Zn472   1.953   .     S
O454   Zn473   1.928   .     S
O454   Zn474   1.929   .     S
O454   Zn471   1.954   .     S
O455   Zn472   1.923   .     S
O456   Zn474   1.936   .     S
O457   Zn473   1.936   .     S
O458   Zn471   1.923   .     S
O463   Zn471   1.934   .     S
O464   Zn474   1.932   .     S
O465   Zn472   1.923   .     S
O466   Zn473   1.936   .     S
O467   Zn474   1.935   .     S
O468   Zn471   1.923   .     S
O469   Zn472   1.935   .     S
O470   Zn473   1.933   .     S
C475   O546    1.272   .     A
C475   C481    1.437   .     S
C475   O544    1.273   .     A
C476   H524    1.076   .     S
C476   C501    1.409   .     A
C476   C490    1.384   .     A
C477   O538    1.386   .     S
C477   C489    1.405   .     A
C477   C490    1.403   .     A
C478   C480    1.455   .     S
C478   O547    1.275   .     A
C478   O545    1.278   .     A
C479   C491    1.413   .     A
C479   C488    1.487   .     S
C479   C500    1.426   .     A
C480   C560    1.334   .     S
C480   H606    1.088   .     S
C481   C638    1.334   1_455 S
C481   H663    1.085   1_455 S
C482   C485    1.459   .     S
C482   C9      1.336   1_565 S
C482   O65     1.388   1_565 S
C483   C484    1.437   .     S
C484   O542    1.275   .     A
C484   O548    1.282   .     A
C485   O543    1.268   .     A
C485   O549    1.267   .     A
C486   C491    1.394   .     A
C486   C1208   1.386   .     S
C486   H1237   1.083   .     S
C487   O534    1.280   .     A
C487   O536    1.272   .     A
C487   C490    1.457   .     S
C488   O535    1.282   .     A
C488   O537    1.287   .     A
C489   C1213   1.429   1_554 S
C489   N1243   1.425   1_554 S
C491   O540    1.385   .     S
C492   H530    1.109   .     S
C492   H529    1.110   .     S
C492   O538    1.411   .     S
C492   H528    1.115   .     S
C493   H507    1.112   .     S
C493   H32     1.113   1_565 S
C493   H34     1.107   1_565 S
C493   O65     1.411   1_565 S
C494   H512    1.110   .     S
C494   H511    1.112   .     S
C494   H510    1.110   .     S
C494   N531    1.447   .     S
C495   H515    1.111   .     S
C495   N532    1.447   .     S
C495   H514    1.110   .     S
C495   H1228   1.110   .     S
C496   O540    1.409   .     S
C496   H518    1.111   .     S
C496   H520    1.108   .     S
C496   H519    1.115   .     S
C497   H525    1.075   .     S
C497   C1197   1.386   1_554 S
C497   C1210   1.418   1_554 S
C498   O541    1.410   .     S
C498   H522    1.113   .     S
C498   H523    1.109   .     S
C498   H521    1.114   .     S
C499   C500    1.418   .     A
C499   C1208   1.418   .     S
C499   C1212   1.428   .     S
C500   C504    1.415   .     A
C501   C1210   1.428   1_554 S
C501   C1213   1.431   1_554 S
C502   C503    1.417   .     A
C502   C1200   1.429   .     S
C502   C1212   1.431   .     S
C503   C504    1.398   .     A
C503   N531    1.424   .     S
C504   O541    1.385   .     S
H505   C560    1.085   .     S
H509   N531    1.030   .     S
H513   N1243   1.031   1_554 S
H516   C9      1.087   1_565 S
H517   C1206   1.110   1_554 S
H526   C1197   1.083   1_554 S
H527   C638    1.088   1_455 S
N532   H1224   1.031   .     S
N532   C1200   1.425   .     S
O533   Zn551   1.953   .     S
O533   Zn552   1.928   .     S
O533   Zn553   1.929   .     S
O533   Zn550   1.954   .     S
O534   Zn551   1.923   .     S
O535   Zn553   1.936   .     S
O536   Zn552   1.936   .     S
O537   Zn550   1.923   .     S
O542   Zn550   1.934   .     S
O543   Zn553   1.932   .     S
O544   Zn551   1.923   .     S
O545   Zn552   1.936   .     S
O546   Zn553   1.935   .     S
O547   Zn550   1.923   .     S
O548   Zn551   1.935   .     S
O549   Zn552   1.933   .     S
C554   O625    1.272   .     A
C554   C560    1.437   .     S
C554   O623    1.273   .     A
C555   H603    1.076   .     S
C555   C580    1.409   .     A
C555   C569    1.384   .     A
C556   O617    1.386   .     S
C556   C568    1.405   .     A
C556   C569    1.403   .     A
C557   C559    1.455   .     S
C557   O626    1.275   .     A
C557   O624    1.278   .     A
C558   C570    1.413   .     A
C558   C567    1.487   .     S
C558   C579    1.426   .     A
C559   C639    1.334   .     S
C559   H685    1.088   .     S
C561   C564    1.459   .     S
C561   C88     1.336   1_565 S
C561   O144    1.388   1_565 S
C562   C563    1.437   .     S
C563   O621    1.275   .     A
C563   O627    1.282   .     A
C564   O622    1.268   .     A
C564   O628    1.267   .     A
C565   C570    1.394   .     A
C565   C1287   1.386   .     S
C565   H1316   1.083   .     S
C566   O613    1.280   .     A
C566   O615    1.272   .     A
C566   C569    1.457   .     S
C567   O614    1.282   .     A
C567   O616    1.287   .     A
C568   C1292   1.429   1_554 S
C568   N1322   1.425   1_554 S
C570   O619    1.385   .     S
C571   H609    1.109   .     S
C571   H608    1.110   .     S
C571   O617    1.411   .     S
C571   H607    1.115   .     S
C572   H586    1.112   .     S
C572   H111    1.113   1_565 S
C572   H113    1.107   1_565 S
C572   O144    1.411   1_565 S
C573   H591    1.110   .     S
C573   H590    1.112   .     S
C573   H589    1.110   .     S
C573   N610    1.447   .     S
C574   H594    1.111   .     S
C574   N611    1.447   .     S
C574   H593    1.110   .     S
C574   H1307   1.110   .     S
C575   O619    1.409   .     S
C575   H597    1.111   .     S
C575   H599    1.108   .     S
C575   H598    1.115   .     S
C576   H604    1.075   .     S
C576   C1276   1.386   1_554 S
C576   C1289   1.418   1_554 S
C577   O620    1.410   .     S
C577   H601    1.113   .     S
C577   H602    1.109   .     S
C577   H600    1.114   .     S
C578   C579    1.418   .     A
C578   C1287   1.418   .     S
C578   C1291   1.428   .     S
C579   C583    1.415   .     A
C580   C1289   1.428   1_554 S
C580   C1292   1.431   1_554 S
C581   C582    1.417   .     A
C581   C1279   1.429   .     S
C581   C1291   1.431   .     S
C582   C583    1.398   .     A
C582   N610    1.424   .     S
C583   O620    1.385   .     S
H584   C639    1.085   .     S
H588   N610    1.030   .     S
H592   N1322   1.031   1_554 S
H595   C88     1.087   1_565 S
H596   C1285   1.110   1_554 S
H605   C1276   1.083   1_554 S
N611   H1303   1.031   .     S
N611   C1279   1.425   .     S
O612   Zn630   1.953   .     S
O612   Zn631   1.928   .     S
O612   Zn632   1.929   .     S
O612   Zn629   1.954   .     S
O613   Zn630   1.923   .     S
O614   Zn632   1.936   .     S
O615   Zn631   1.936   .     S
O616   Zn629   1.923   .     S
O621   Zn629   1.934   .     S
O622   Zn632   1.932   .     S
O623   Zn630   1.923   .     S
O624   Zn631   1.936   .     S
O625   Zn632   1.935   .     S
O626   Zn629   1.923   .     S
O627   Zn630   1.935   .     S
O628   Zn631   1.933   .     S
C633   O704    1.272   .     A
C633   C639    1.437   .     S
C633   O702    1.273   .     A
C634   H682    1.076   .     S
C634   C659    1.409   .     A
C634   C648    1.384   .     A
C635   O696    1.386   .     S
C635   C647    1.405   .     A
C635   C648    1.403   .     A
C636   C638    1.455   .     S
C636   O705    1.275   .     A
C636   O703    1.278   .     A
C637   C649    1.413   .     A
C637   C646    1.487   .     S
C637   C658    1.426   .     A
C638   C481    1.334   1_655 S
C638   H527    1.088   1_655 S
C640   C643    1.459   .     S
C640   C167    1.336   1_565 S
C640   O223    1.388   1_565 S
C641   C642    1.437   .     S
C642   O700    1.275   .     A
C642   O706    1.282   .     A
C643   O701    1.268   .     A
C643   O707    1.267   .     A
C644   C649    1.394   .     A
C644   C1366   1.386   .     S
C644   H1395   1.083   .     S
C645   O692    1.280   .     A
C645   O694    1.272   .     A
C645   C648    1.457   .     S
C646   O693    1.282   .     A
C646   O695    1.287   .     A
C647   C1371   1.429   1_554 S
C647   N1401   1.425   1_554 S
C649   O698    1.385   .     S
C650   H688    1.109   .     S
C650   H687    1.110   .     S
C650   O696    1.411   .     S
C650   H686    1.115   .     S
C651   H665    1.112   .     S
C651   H190    1.113   1_565 S
C651   H192    1.107   1_565 S
C651   O223    1.411   1_565 S
C652   H670    1.110   .     S
C652   H669    1.112   .     S
C652   H668    1.110   .     S
C652   N689    1.447   .     S
C653   H673    1.111   .     S
C653   N690    1.447   .     S
C653   H672    1.110   .     S
C653   H1386   1.110   .     S
C654   O698    1.409   .     S
C654   H676    1.111   .     S
C654   H678    1.108   .     S
C654   H677    1.115   .     S
C655   H683    1.075   .     S
C655   C1355   1.386   1_554 S
C655   C1368   1.418   1_554 S
C656   O699    1.410   .     S
C656   H680    1.113   .     S
C656   H681    1.109   .     S
C656   H679    1.114   .     S
C657   C658    1.418   .     A
C657   C1366   1.418   .     S
C657   C1370   1.428   .     S
C658   C662    1.415   .     A
C659   C1368   1.428   1_554 S
C659   C1371   1.431   1_554 S
C660   C661    1.417   .     A
C660   C1358   1.429   .     S
C660   C1370   1.431   .     S
C661   C662    1.398   .     A
C661   N689    1.424   .     S
C662   O699    1.385   .     S
H663   C481    1.085   1_655 S
H667   N689    1.030   .     S
H671   N1401   1.031   1_554 S
H674   C167    1.087   1_565 S
H675   C1364   1.110   1_554 S
H684   C1355   1.083   1_554 S
N690   H1382   1.031   .     S
N690   C1358   1.425   .     S
O691   Zn709   1.953   .     S
O691   Zn710   1.928   .     S
O691   Zn711   1.929   .     S
O691   Zn708   1.954   .     S
O692   Zn709   1.923   .     S
O693   Zn711   1.936   .     S
O694   Zn710   1.936   .     S
O695   Zn708   1.923   .     S
O700   Zn708   1.934   .     S
O701   Zn711   1.932   .     S
O702   Zn709   1.923   .     S
O703   Zn710   1.936   .     S
O704   Zn711   1.935   .     S
O705   Zn708   1.923   .     S
O706   Zn709   1.935   .     S
O707   Zn710   1.933   .     S
C712   O783    1.272   .     A
C712   C718    1.437   .     S
C712   O781    1.273   .     A
C713   H761    1.076   .     S
C713   C738    1.409   .     A
C713   C727    1.384   .     A
C714   O775    1.386   .     S
C714   C726    1.405   .     A
C714   C727    1.403   .     A
C715   C717    1.455   .     S
C715   O784    1.275   .     A
C715   O782    1.278   .     A
C716   C728    1.413   .     A
C716   C725    1.487   .     S
C716   C737    1.426   .     A
C717   C797    1.334   .     S
C717   H843    1.088   .     S
C718   C875    1.334   1_455 S
C718   H900    1.085   1_455 S
C719   C722    1.459   .     S
C719   C957    1.336   .     S
C719   O1013   1.388   .     S
C720   C721    1.437   .     S
C720   C1193   1.336   1_545 S
C720   H1227   1.087   1_545 S
C721   O779    1.275   .     A
C721   O785    1.282   .     A
C722   O780    1.268   .     A
C722   O786    1.267   .     A
C723   C728    1.394   .     A
C723   C23     1.386   1_556 S
C723   H52     1.083   1_556 S
C724   O771    1.280   .     A
C724   O773    1.272   .     A
C724   C727    1.457   .     S
C725   O772    1.282   .     A
C725   O774    1.287   .     A
C728   O777    1.385   .     S
C729   H767    1.109   .     S
C729   H766    1.110   .     S
C729   O775    1.411   .     S
C729   H765    1.115   .     S
C730   H744    1.112   .     S
C730   H980    1.113   .     S
C730   H982    1.107   .     S
C730   O1013   1.411   .     S
C731   H749    1.110   .     S
C731   H748    1.112   .     S
C731   H747    1.110   .     S
C731   N768    1.447   .     S
C732   H752    1.111   .     S
C732   N769    1.447   .     S
C732   H751    1.110   .     S
C732   H43     1.110   1_556 S
C733   O777    1.409   .     S
C733   H755    1.111   .     S
C733   H757    1.108   .     S
C733   H756    1.115   .     S
C734   H762    1.075   .     S
C735   O778    1.410   .     S
C735   H759    1.113   .     S
C735   H760    1.109   .     S
C735   H758    1.114   .     S
C736   C737    1.418   .     A
C736   C23     1.418   1_556 S
C736   C27     1.428   1_556 S
C737   C741    1.415   .     A
C739   C740    1.417   .     A
C739   C15     1.429   1_556 S
C739   C27     1.431   1_556 S
C740   C741    1.398   .     A
C740   N768    1.424   .     S
C741   O778    1.385   .     S
H742   C797    1.085   .     S
H743   C1204   1.113   1_545 S
H745   C1204   1.107   1_545 S
H746   N768    1.030   .     S
H753   C957    1.087   .     S
H764   C875    1.088   1_455 S
N769   H39     1.031   1_556 S
N769   C15     1.425   1_556 S
O770   Zn788   1.953   .     S
O770   Zn789   1.928   .     S
O770   Zn790   1.929   .     S
O770   Zn787   1.954   .     S
O771   Zn788   1.923   .     S
O772   Zn790   1.936   .     S
O773   Zn789   1.936   .     S
O774   Zn787   1.923   .     S
O776   C1204   1.411   1_545 S
O776   C1193   1.388   1_545 S
O779   Zn787   1.934   .     S
O780   Zn790   1.932   .     S
O781   Zn788   1.923   .     S
O782   Zn789   1.936   .     S
O783   Zn790   1.935   .     S
O784   Zn787   1.923   .     S
O785   Zn788   1.935   .     S
O786   Zn789   1.933   .     S
C791   O862    1.272   .     A
C791   C797    1.437   .     S
C791   O860    1.273   .     A
C792   H840    1.076   .     S
C792   C817    1.409   .     A
C792   C806    1.384   .     A
C793   O854    1.386   .     S
C793   C805    1.405   .     A
C793   C806    1.403   .     A
C794   C796    1.455   .     S
C794   O863    1.275   .     A
C794   O861    1.278   .     A
C795   C807    1.413   .     A
C795   C804    1.487   .     S
C795   C816    1.426   .     A
C796   C876    1.334   .     S
C796   H922    1.088   .     S
C798   C801    1.459   .     S
C798   C1036   1.336   .     S
C798   O1092   1.388   .     S
C799   C800    1.437   .     S
C799   C1272   1.336   1_545 S
C799   H1306   1.087   1_545 S
C800   O858    1.275   .     A
C800   O864    1.282   .     A
C801   O859    1.268   .     A
C801   O865    1.267   .     A
C802   C807    1.394   .     A
C802   C102    1.386   1_556 S
C802   H131    1.083   1_556 S
C803   O850    1.280   .     A
C803   O852    1.272   .     A
C803   C806    1.457   .     S
C804   O851    1.282   .     A
C804   O853    1.287   .     A
C807   O856    1.385   .     S
C808   H846    1.109   .     S
C808   H845    1.110   .     S
C808   O854    1.411   .     S
C808   H844    1.115   .     S
C809   H823    1.112   .     S
C809   H1059   1.113   .     S
C809   H1061   1.107   .     S
C809   O1092   1.411   .     S
C810   H828    1.110   .     S
C810   H827    1.112   .     S
C810   H826    1.110   .     S
C810   N847    1.447   .     S
C811   H831    1.111   .     S
C811   N848    1.447   .     S
C811   H830    1.110   .     S
C811   H122    1.110   1_556 S
C812   O856    1.409   .     S
C812   H834    1.111   .     S
C812   H836    1.108   .     S
C812   H835    1.115   .     S
C813   H841    1.075   .     S
C814   O857    1.410   .     S
C814   H838    1.113   .     S
C814   H839    1.109   .     S
C814   H837    1.114   .     S
C815   C816    1.418   .     A
C815   C102    1.418   1_556 S
C815   C106    1.428   1_556 S
C816   C820    1.415   .     A
C818   C819    1.417   .     A
C818   C94     1.429   1_556 S
C818   C106    1.431   1_556 S
C819   C820    1.398   .     A
C819   N847    1.424   .     S
C820   O857    1.385   .     S
H821   C876    1.085   .     S
H822   C1283   1.113   1_545 S
H824   C1283   1.107   1_545 S
H825   N847    1.030   .     S
H832   C1036   1.087   .     S
N848   H118    1.031   1_556 S
N848   C94     1.425   1_556 S
O849   Zn867   1.953   .     S
O849   Zn868   1.928   .     S
O849   Zn869   1.929   .     S
O849   Zn866   1.954   .     S
O850   Zn867   1.923   .     S
O851   Zn869   1.936   .     S
O852   Zn868   1.936   .     S
O853   Zn866   1.923   .     S
O855   C1283   1.411   1_545 S
O855   C1272   1.388   1_545 S
O858   Zn866   1.934   .     S
O859   Zn869   1.932   .     S
O860   Zn867   1.923   .     S
O861   Zn868   1.936   .     S
O862   Zn869   1.935   .     S
O863   Zn866   1.923   .     S
O864   Zn867   1.935   .     S
O865   Zn868   1.933   .     S
C870   O941    1.272   .     A
C870   C876    1.437   .     S
C870   O939    1.273   .     A
C871   H919    1.076   .     S
C871   C896    1.409   .     A
C871   C885    1.384   .     A
C872   O933    1.386   .     S
C872   C884    1.405   .     A
C872   C885    1.403   .     A
C873   C875    1.455   .     S
C873   O942    1.275   .     A
C873   O940    1.278   .     A
C874   C886    1.413   .     A
C874   C883    1.487   .     S
C874   C895    1.426   .     A
C875   C718    1.334   1_655 S
C875   H764    1.088   1_655 S
C877   C880    1.459   .     S
C877   C1115   1.336   .     S
C877   O1171   1.388   .     S
C878   C879    1.437   .     S
C878   C1351   1.336   1_545 S
C878   H1385   1.087   1_545 S
C879   O937    1.275   .     A
C879   O943    1.282   .     A
C880   O938    1.268   .     A
C880   O944    1.267   .     A
C881   C886    1.394   .     A
C881   C181    1.386   1_556 S
C881   H210    1.083   1_556 S
C882   O929    1.280   .     A
C882   O931    1.272   .     A
C882   C885    1.457   .     S
C883   O930    1.282   .     A
C883   O932    1.287   .     A
C886   O935    1.385   .     S
C887   H925    1.109   .     S
C887   H924    1.110   .     S
C887   O933    1.411   .     S
C887   H923    1.115   .     S
C888   H902    1.112   .     S
C888   H1138   1.113   .     S
C888   H1140   1.107   .     S
C888   O1171   1.411   .     S
C889   H907    1.110   .     S
C889   H906    1.112   .     S
C889   H905    1.110   .     S
C889   N926    1.447   .     S
C890   H910    1.111   .     S
C890   N927    1.447   .     S
C890   H909    1.110   .     S
C890   H201    1.110   1_556 S
C891   O935    1.409   .     S
C891   H913    1.111   .     S
C891   H915    1.108   .     S
C891   H914    1.115   .     S
C892   H920    1.075   .     S
C893   O936    1.410   .     S
C893   H917    1.113   .     S
C893   H918    1.109   .     S
C893   H916    1.114   .     S
C894   C895    1.418   .     A
C894   C181    1.418   1_556 S
C894   C185    1.428   1_556 S
C895   C899    1.415   .     A
C897   C898    1.417   .     A
C897   C173    1.429   1_556 S
C897   C185    1.431   1_556 S
C898   C899    1.398   .     A
C898   N926    1.424   .     S
C899   O936    1.385   .     S
H900   C718    1.085   1_655 S
H901   C1362   1.113   1_545 S
H903   C1362   1.107   1_545 S
H904   N926    1.030   .     S
H911   C1115   1.087   .     S
N927   H197    1.031   1_556 S
N927   C173    1.425   1_556 S
O928   Zn946   1.953   .     S
O928   Zn947   1.928   .     S
O928   Zn948   1.929   .     S
O928   Zn945   1.954   .     S
O929   Zn946   1.923   .     S
O930   Zn948   1.936   .     S
O931   Zn947   1.936   .     S
O932   Zn945   1.923   .     S
O934   C1362   1.411   1_545 S
O934   C1351   1.388   1_545 S
O937   Zn945   1.934   .     S
O938   Zn948   1.932   .     S
O939   Zn946   1.923   .     S
O940   Zn947   1.936   .     S
O941   Zn948   1.935   .     S
O942   Zn945   1.923   .     S
O943   Zn946   1.935   .     S
O944   Zn947   1.933   .     S
C949   O1020   1.272   .     A
C949   C955    1.437   .     S
C949   O1018   1.273   .     A
C950   H998    1.076   .     S
C950   C975    1.409   .     A
C950   C964    1.384   .     A
C951   O1012   1.386   .     S
C951   C963    1.405   .     A
C951   C964    1.403   .     A
C952   C954    1.455   .     S
C952   O1021   1.275   .     A
C952   O1019   1.278   .     A
C953   C965    1.413   .     A
C953   C962    1.487   .     S
C953   C974    1.426   .     A
C954   C1034   1.334   .     S
C954   H1080   1.088   .     S
C955   C1112   1.334   1_455 S
C955   H1137   1.085   1_455 S
C956   C959    1.459   .     S
C956   C1194   1.336   .     S
C956   O1250   1.388   .     S
C957   C958    1.437   .     S
C958   O1016   1.275   .     A
C958   O1022   1.282   .     A
C959   O1017   1.268   .     A
C959   O1023   1.267   .     A
C960   C965    1.394   .     A
C960   C260    1.386   1_556 S
C960   H289    1.083   1_556 S
C961   O1008   1.280   .     A
C961   O1010   1.272   .     A
C961   C964    1.457   .     S
C962   O1009   1.282   .     A
C962   O1011   1.287   .     A
C965   O1014   1.385   .     S
C966   H1004   1.109   .     S
C966   H1003   1.110   .     S
C966   O1012   1.411   .     S
C966   H1002   1.115   .     S
C967   H981    1.112   .     S
C967   H1217   1.113   .     S
C967   H1219   1.107   .     S
C967   O1250   1.411   .     S
C968   H986    1.110   .     S
C968   H985    1.112   .     S
C968   H984    1.110   .     S
C968   N1005   1.447   .     S
C969   H989    1.111   .     S
C969   N1006   1.447   .     S
C969   H988    1.110   .     S
C969   H280    1.110   1_556 S
C970   O1014   1.409   .     S
C970   H992    1.111   .     S
C970   H994    1.108   .     S
C970   H993    1.115   .     S
C971   H999    1.075   .     S
C972   O1015   1.410   .     S
C972   H996    1.113   .     S
C972   H997    1.109   .     S
C972   H995    1.114   .     S
C973   C974    1.418   .     A
C973   C260    1.418   1_556 S
C973   C264    1.428   1_556 S
C974   C978    1.415   .     A
C976   C977    1.417   .     A
C976   C252    1.429   1_556 S
C976   C264    1.431   1_556 S
C977   C978    1.398   .     A
C977   N1005   1.424   .     S
C978   O1015   1.385   .     S
H979   C1034   1.085   .     S
H983   N1005   1.030   .     S
H990   C1194   1.087   .     S
H1001  C1112   1.088   1_455 S
N1006  H276    1.031   1_556 S
N1006  C252    1.425   1_556 S
O1007  Zn1025  1.953   .     S
O1007  Zn1026  1.928   .     S
O1007  Zn1027  1.929   .     S
O1007  Zn1024  1.954   .     S
O1008  Zn1025  1.923   .     S
O1009  Zn1027  1.936   .     S
O1010  Zn1026  1.936   .     S
O1011  Zn1024  1.923   .     S
O1016  Zn1024  1.934   .     S
O1017  Zn1027  1.932   .     S
O1018  Zn1025  1.923   .     S
O1019  Zn1026  1.936   .     S
O1020  Zn1027  1.935   .     S
O1021  Zn1024  1.923   .     S
O1022  Zn1025  1.935   .     S
O1023  Zn1026  1.933   .     S
C1028  O1099   1.272   .     A
C1028  C1034   1.437   .     S
C1028  O1097   1.273   .     A
C1029  H1077   1.076   .     S
C1029  C1054   1.409   .     A
C1029  C1043   1.384   .     A
C1030  O1091   1.386   .     S
C1030  C1042   1.405   .     A
C1030  C1043   1.403   .     A
C1031  C1033   1.455   .     S
C1031  O1100   1.275   .     A
C1031  O1098   1.278   .     A
C1032  C1044   1.413   .     A
C1032  C1041   1.487   .     S
C1032  C1053   1.426   .     A
C1033  C1113   1.334   .     S
C1033  H1159   1.088   .     S
C1035  C1038   1.459   .     S
C1035  C1273   1.336   .     S
C1035  O1329   1.388   .     S
C1036  C1037   1.437   .     S
C1037  O1095   1.275   .     A
C1037  O1101   1.282   .     A
C1038  O1096   1.268   .     A
C1038  O1102   1.267   .     A
C1039  C1044   1.394   .     A
C1039  C339    1.386   1_556 S
C1039  H368    1.083   1_556 S
C1040  O1087   1.280   .     A
C1040  O1089   1.272   .     A
C1040  C1043   1.457   .     S
C1041  O1088   1.282   .     A
C1041  O1090   1.287   .     A
C1044  O1093   1.385   .     S
C1045  H1083   1.109   .     S
C1045  H1082   1.110   .     S
C1045  O1091   1.411   .     S
C1045  H1081   1.115   .     S
C1046  H1060   1.112   .     S
C1046  H1296   1.113   .     S
C1046  H1298   1.107   .     S
C1046  O1329   1.411   .     S
C1047  H1065   1.110   .     S
C1047  H1064   1.112   .     S
C1047  H1063   1.110   .     S
C1047  N1084   1.447   .     S
C1048  H1068   1.111   .     S
C1048  N1085   1.447   .     S
C1048  H1067   1.110   .     S
C1048  H359    1.110   1_556 S
C1049  O1093   1.409   .     S
C1049  H1071   1.111   .     S
C1049  H1073   1.108   .     S
C1049  H1072   1.115   .     S
C1050  H1078   1.075   .     S
C1051  O1094   1.410   .     S
C1051  H1075   1.113   .     S
C1051  H1076   1.109   .     S
C1051  H1074   1.114   .     S
C1052  C1053   1.418   .     A
C1052  C339    1.418   1_556 S
C1052  C343    1.428   1_556 S
C1053  C1057   1.415   .     A
C1055  C1056   1.417   .     A
C1055  C331    1.429   1_556 S
C1055  C343    1.431   1_556 S
C1056  C1057   1.398   .     A
C1056  N1084   1.424   .     S
C1057  O1094   1.385   .     S
H1058  C1113   1.085   .     S
H1062  N1084   1.030   .     S
H1069  C1273   1.087   .     S
N1085  H355    1.031   1_556 S
N1085  C331    1.425   1_556 S
O1086  Zn1104  1.953   .     S
O1086  Zn1105  1.928   .     S
O1086  Zn1106  1.929   .     S
O1086  Zn1103  1.954   .     S
O1087  Zn1104  1.923   .     S
O1088  Zn1106  1.936   .     S
O1089  Zn1105  1.936   .     S
O1090  Zn1103  1.923   .     S
O1095  Zn1103  1.934   .     S
O1096  Zn1106  1.932   .     S
O1097  Zn1104  1.923   .     S
O1098  Zn1105  1.936   .     S
O1099  Zn1106  1.935   .     S
O1100  Zn1103  1.923   .     S
O1101  Zn1104  1.935   .     S
O1102  Zn1105  1.933   .     S
C1107  O1178   1.272   .     A
C1107  C1113   1.437   .     S
C1107  O1176   1.273   .     A
C1108  H1156   1.076   .     S
C1108  C1133   1.409   .     A
C1108  C1122   1.384   .     A
C1109  O1170   1.386   .     S
C1109  C1121   1.405   .     A
C1109  C1122   1.403   .     A
C1110  C1112   1.455   .     S
C1110  O1179   1.275   .     A
C1110  O1177   1.278   .     A
C1111  C1123   1.413   .     A
C1111  C1120   1.487   .     S
C1111  C1132   1.426   .     A
C1112  C955    1.334   1_655 S
C1112  H1001   1.088   1_655 S
C1114  C1117   1.459   .     S
C1114  C1352   1.336   .     S
C1114  O1408   1.388   .     S
C1115  C1116   1.437   .     S
C1116  O1174   1.275   .     A
C1116  O1180   1.282   .     A
C1117  O1175   1.268   .     A
C1117  O1181   1.267   .     A
C1118  C1123   1.394   .     A
C1118  C418    1.386   1_556 S
C1118  H447    1.083   1_556 S
C1119  O1166   1.280   .     A
C1119  O1168   1.272   .     A
C1119  C1122   1.457   .     S
C1120  O1167   1.282   .     A
C1120  O1169   1.287   .     A
C1123  O1172   1.385   .     S
C1124  H1162   1.109   .     S
C1124  H1161   1.110   .     S
C1124  O1170   1.411   .     S
C1124  H1160   1.115   .     S
C1125  H1139   1.112   .     S
C1125  H1375   1.113   .     S
C1125  H1377   1.107   .     S
C1125  O1408   1.411   .     S
C1126  H1144   1.110   .     S
C1126  H1143   1.112   .     S
C1126  H1142   1.110   .     S
C1126  N1163   1.447   .     S
C1127  H1147   1.111   .     S
C1127  N1164   1.447   .     S
C1127  H1146   1.110   .     S
C1127  H438    1.110   1_556 S
C1128  O1172   1.409   .     S
C1128  H1150   1.111   .     S
C1128  H1152   1.108   .     S
C1128  H1151   1.115   .     S
C1129  H1157   1.075   .     S
C1130  O1173   1.410   .     S
C1130  H1154   1.113   .     S
C1130  H1155   1.109   .     S
C1130  H1153   1.114   .     S
C1131  C1132   1.418   .     A
C1131  C418    1.418   1_556 S
C1131  C422    1.428   1_556 S
C1132  C1136   1.415   .     A
C1134  C1135   1.417   .     A
C1134  C410    1.429   1_556 S
C1134  C422    1.431   1_556 S
C1135  C1136   1.398   .     A
C1135  N1163   1.424   .     S
C1136  O1173   1.385   .     S
H1137  C955    1.085   1_655 S
H1141  N1163   1.030   .     S
H1148  C1352   1.087   .     S
N1164  H434    1.031   1_556 S
N1164  C410    1.425   1_556 S
O1165  Zn1183  1.953   .     S
O1165  Zn1184  1.928   .     S
O1165  Zn1185  1.929   .     S
O1165  Zn1182  1.954   .     S
O1166  Zn1183  1.923   .     S
O1167  Zn1185  1.936   .     S
O1168  Zn1184  1.936   .     S
O1169  Zn1182  1.923   .     S
O1174  Zn1182  1.934   .     S
O1175  Zn1185  1.932   .     S
O1176  Zn1183  1.923   .     S
O1177  Zn1184  1.936   .     S
O1178  Zn1185  1.935   .     S
O1179  Zn1182  1.923   .     S
O1180  Zn1183  1.935   .     S
O1181  Zn1184  1.933   .     S
C1186  O1257   1.272   .     A
C1186  C1192   1.437   .     S
C1186  O1255   1.273   .     A
C1187  H1235   1.076   .     S
C1187  C1212   1.409   .     A
C1187  C1201   1.384   .     A
C1188  O1249   1.386   .     S
C1188  C1200   1.405   .     A
C1188  C1201   1.403   .     A
C1189  C1191   1.455   .     S
C1189  O1258   1.275   .     A
C1189  O1256   1.278   .     A
C1190  C1202   1.413   .     A
C1190  C1199   1.487   .     S
C1190  C1211   1.426   .     A
C1191  C1271   1.334   .     S
C1191  H1317   1.088   .     S
C1192  C1349   1.334   1_455 S
C1192  H1374   1.085   1_455 S
C1193  C1196   1.459   .     S
C1193  C720    1.336   1_565 S
C1193  O776    1.388   1_565 S
C1194  C1195   1.437   .     S
C1195  O1253   1.275   .     A
C1195  O1259   1.282   .     A
C1196  O1254   1.268   .     A
C1196  O1260   1.267   .     A
C1197  C1202   1.394   .     A
C1197  C497    1.386   1_556 S
C1197  H526    1.083   1_556 S
C1198  O1245   1.280   .     A
C1198  O1247   1.272   .     A
C1198  C1201   1.457   .     S
C1199  O1246   1.282   .     A
C1199  O1248   1.287   .     A
C1202  O1251   1.385   .     S
C1203  H1241   1.109   .     S
C1203  H1240   1.110   .     S
C1203  O1249   1.411   .     S
C1203  H1239   1.115   .     S
C1204  H1218   1.112   .     S
C1204  H743    1.113   1_565 S
C1204  H745    1.107   1_565 S
C1204  O776    1.411   1_565 S
C1205  H1223   1.110   .     S
C1205  H1222   1.112   .     S
C1205  H1221   1.110   .     S
C1205  N1242   1.447   .     S
C1206  H1226   1.111   .     S
C1206  N1243   1.447   .     S
C1206  H1225   1.110   .     S
C1206  H517    1.110   1_556 S
C1207  O1251   1.409   .     S
C1207  H1229   1.111   .     S
C1207  H1231   1.108   .     S
C1207  H1230   1.115   .     S
C1208  H1236   1.075   .     S
C1209  O1252   1.410   .     S
C1209  H1233   1.113   .     S
C1209  H1234   1.109   .     S
C1209  H1232   1.114   .     S
C1210  C1211   1.418   .     A
C1210  C497    1.418   1_556 S
C1210  C501    1.428   1_556 S
C1211  C1215   1.415   .     A
C1213  C1214   1.417   .     A
C1213  C489    1.429   1_556 S
C1213  C501    1.431   1_556 S
C1214  C1215   1.398   .     A
C1214  N1242   1.424   .     S
C1215  O1252   1.385   .     S
H1216  C1271   1.085   .     S
H1220  N1242   1.030   .     S
H1227  C720    1.087   1_565 S
H1238  C1349   1.088   1_455 S
N1243  H513    1.031   1_556 S
N1243  C489    1.425   1_556 S
O1244  Zn1262  1.953   .     S
O1244  Zn1263  1.928   .     S
O1244  Zn1264  1.929   .     S
O1244  Zn1261  1.954   .     S
O1245  Zn1262  1.923   .     S
O1246  Zn1264  1.936   .     S
O1247  Zn1263  1.936   .     S
O1248  Zn1261  1.923   .     S
O1253  Zn1261  1.934   .     S
O1254  Zn1264  1.932   .     S
O1255  Zn1262  1.923   .     S
O1256  Zn1263  1.936   .     S
O1257  Zn1264  1.935   .     S
O1258  Zn1261  1.923   .     S
O1259  Zn1262  1.935   .     S
O1260  Zn1263  1.933   .     S
C1265  O1336   1.272   .     A
C1265  C1271   1.437   .     S
C1265  O1334   1.273   .     A
C1266  H1314   1.076   .     S
C1266  C1291   1.409   .     A
C1266  C1280   1.384   .     A
C1267  O1328   1.386   .     S
C1267  C1279   1.405   .     A
C1267  C1280   1.403   .     A
C1268  C1270   1.455   .     S
C1268  O1337   1.275   .     A
C1268  O1335   1.278   .     A
C1269  C1281   1.413   .     A
C1269  C1278   1.487   .     S
C1269  C1290   1.426   .     A
C1270  C1350   1.334   .     S
C1270  H1396   1.088   .     S
C1272  C1275   1.459   .     S
C1272  C799    1.336   1_565 S
C1272  O855    1.388   1_565 S
C1273  C1274   1.437   .     S
C1274  O1332   1.275   .     A
C1274  O1338   1.282   .     A
C1275  O1333   1.268   .     A
C1275  O1339   1.267   .     A
C1276  C1281   1.394   .     A
C1276  C576    1.386   1_556 S
C1276  H605    1.083   1_556 S
C1277  O1324   1.280   .     A
C1277  O1326   1.272   .     A
C1277  C1280   1.457   .     S
C1278  O1325   1.282   .     A
C1278  O1327   1.287   .     A
C1281  O1330   1.385   .     S
C1282  H1320   1.109   .     S
C1282  H1319   1.110   .     S
C1282  O1328   1.411   .     S
C1282  H1318   1.115   .     S
C1283  H1297   1.112   .     S
C1283  H822    1.113   1_565 S
C1283  H824    1.107   1_565 S
C1283  O855    1.411   1_565 S
C1284  H1302   1.110   .     S
C1284  H1301   1.112   .     S
C1284  H1300   1.110   .     S
C1284  N1321   1.447   .     S
C1285  H1305   1.111   .     S
C1285  N1322   1.447   .     S
C1285  H1304   1.110   .     S
C1285  H596    1.110   1_556 S
C1286  O1330   1.409   .     S
C1286  H1308   1.111   .     S
C1286  H1310   1.108   .     S
C1286  H1309   1.115   .     S
C1287  H1315   1.075   .     S
C1288  O1331   1.410   .     S
C1288  H1312   1.113   .     S
C1288  H1313   1.109   .     S
C1288  H1311   1.114   .     S
C1289  C1290   1.418   .     A
C1289  C576    1.418   1_556 S
C1289  C580    1.428   1_556 S
C1290  C1294   1.415   .     A
C1292  C1293   1.417   .     A
C1292  C568    1.429   1_556 S
C1292  C580    1.431   1_556 S
C1293  C1294   1.398   .     A
C1293  N1321   1.424   .     S
C1294  O1331   1.385   .     S
H1295  C1350   1.085   .     S
H1299  N1321   1.030   .     S
H1306  C799    1.087   1_565 S
N1322  H592    1.031   1_556 S
N1322  C568    1.425   1_556 S
O1323  Zn1341  1.953   .     S
O1323  Zn1342  1.928   .     S
O1323  Zn1343  1.929   .     S
O1323  Zn1340  1.954   .     S
O1324  Zn1341  1.923   .     S
O1325  Zn1343  1.936   .     S
O1326  Zn1342  1.936   .     S
O1327  Zn1340  1.923   .     S
O1332  Zn1340  1.934   .     S
O1333  Zn1343  1.932   .     S
O1334  Zn1341  1.923   .     S
O1335  Zn1342  1.936   .     S
O1336  Zn1343  1.935   .     S
O1337  Zn1340  1.923   .     S
O1338  Zn1341  1.935   .     S
O1339  Zn1342  1.933   .     S
C1344  O1415   1.272   .     A
C1344  C1350   1.437   .     S
C1344  O1413   1.273   .     A
C1345  H1393   1.076   .     S
C1345  C1370   1.409   .     A
C1345  C1359   1.384   .     A
C1346  O1407   1.386   .     S
C1346  C1358   1.405   .     A
C1346  C1359   1.403   .     A
C1347  C1349   1.455   .     S
C1347  O1416   1.275   .     A
C1347  O1414   1.278   .     A
C1348  C1360   1.413   .     A
C1348  C1357   1.487   .     S
C1348  C1369   1.426   .     A
C1349  C1192   1.334   1_655 S
C1349  H1238   1.088   1_655 S
C1351  C1354   1.459   .     S
C1351  C878    1.336   1_565 S
C1351  O934    1.388   1_565 S
C1352  C1353   1.437   .     S
C1353  O1411   1.275   .     A
C1353  O1417   1.282   .     A
C1354  O1412   1.268   .     A
C1354  O1418   1.267   .     A
C1355  C1360   1.394   .     A
C1355  C655    1.386   1_556 S
C1355  H684    1.083   1_556 S
C1356  O1403   1.280   .     A
C1356  O1405   1.272   .     A
C1356  C1359   1.457   .     S
C1357  O1404   1.282   .     A
C1357  O1406   1.287   .     A
C1360  O1409   1.385   .     S
C1361  H1399   1.109   .     S
C1361  H1398   1.110   .     S
C1361  O1407   1.411   .     S
C1361  H1397   1.115   .     S
C1362  H1376   1.112   .     S
C1362  H901    1.113   1_565 S
C1362  H903    1.107   1_565 S
C1362  O934    1.411   1_565 S
C1363  H1381   1.110   .     S
C1363  H1380   1.112   .     S
C1363  H1379   1.110   .     S
C1363  N1400   1.447   .     S
C1364  H1384   1.111   .     S
C1364  N1401   1.447   .     S
C1364  H1383   1.110   .     S
C1364  H675    1.110   1_556 S
C1365  O1409   1.409   .     S
C1365  H1387   1.111   .     S
C1365  H1389   1.108   .     S
C1365  H1388   1.115   .     S
C1366  H1394   1.075   .     S
C1367  O1410   1.410   .     S
C1367  H1391   1.113   .     S
C1367  H1392   1.109   .     S
C1367  H1390   1.114   .     S
C1368  C1369   1.418   .     A
C1368  C655    1.418   1_556 S
C1368  C659    1.428   1_556 S
C1369  C1373   1.415   .     A
C1371  C1372   1.417   .     A
C1371  C647    1.429   1_556 S
C1371  C659    1.431   1_556 S
C1372  C1373   1.398   .     A
C1372  N1400   1.424   .     S
C1373  O1410   1.385   .     S
H1374  C1192   1.085   1_655 S
H1378  N1400   1.030   .     S
H1385  C878    1.087   1_565 S
N1401  H671    1.031   1_556 S
N1401  C647    1.425   1_556 S
O1402  Zn1420  1.953   .     S
O1402  Zn1421  1.928   .     S
O1402  Zn1422  1.929   .     S
O1402  Zn1419  1.954   .     S
O1403  Zn1420  1.923   .     S
O1404  Zn1422  1.936   .     S
O1405  Zn1421  1.936   .     S
O1406  Zn1419  1.923   .     S
O1411  Zn1419  1.934   .     S
O1412  Zn1422  1.932   .     S
O1413  Zn1420  1.923   .     S
O1414  Zn1421  1.936   .     S
O1415  Zn1422  1.935   .     S
O1416  Zn1419  1.923   .     S
O1417  Zn1420  1.935   .     S
O1418  Zn1421  1.933   .     S
