data_str_m2_o1_o18_pcu_sym.190
_audit_creation_date              2020-01-03
_audit_creation_method            'Materials Studio'
_symmetry_space_group_name_H-M    'P1'
_symmetry_Int_Tables_number       1
_symmetry_cell_setting            triclinic
loop_
_symmetry_equiv_pos_as_xyz
  x,y,z
_cell_length_a                    29.0399
_cell_length_b                    32.4151
_cell_length_c                    31.8428
_cell_angle_alpha                 89.5555
_cell_angle_beta                  72.0104
_cell_angle_gamma                 89.7993
loop_
_atom_site_label
_atom_site_type_symbol
_atom_site_fract_x
_atom_site_fract_y
_atom_site_fract_z
_atom_site_U_iso_or_equiv
_atom_site_adp_type
_atom_site_occupancy
C1     C     0.00004   0.08754   0.24999   0.00000  Uiso   1.00
C2     C     0.33330   0.24580   0.24999   0.00000  Uiso   1.00
C3     C     0.19581   0.16957   0.04458   0.00000  Uiso   1.00
C4     C     0.13742   0.16936   0.45538   0.00000  Uiso   1.00
C5     C     0.24372   0.16202   0.01985   0.00000  Uiso   1.00
C6     C     0.08957   0.16180   0.48025   0.00000  Uiso   1.00
C7     C     0.28935   0.02141   0.26231   0.00000  Uiso   1.00
C8     C     0.04398   0.31192   0.23760   0.00000  Uiso   1.00
C9     C     0.28932   0.31205   0.26241   0.00000  Uiso   1.00
C10    C     0.04401   0.02129   0.23749   0.00000  Uiso   1.00
C11    C     0.33329   0.29050   0.24998   0.00000  Uiso   1.00
C12    C     0.00005   0.04284   0.24995   0.00000  Uiso   1.00
C13    C     0.18154   0.14319   0.27952   0.00000  Uiso   1.00
C14    C     0.15179   0.19015   0.22048   0.00000  Uiso   1.00
C15    C     0.13211   0.14245   0.27913   0.00000  Uiso   1.00
C16    C     0.20125   0.19084   0.22082   0.00000  Uiso   1.00
C17    C     0.30528   0.16610   0.33527   0.00000  Uiso   1.00
C18    C     0.02805   0.16622   0.16474   0.00000  Uiso   1.00
C19    C     0.28822   0.16223   0.38298   0.00000  Uiso   1.00
C20    C     0.04507   0.16240   0.11709   0.00000  Uiso   1.00
C21    C     0.29795   0.13539   0.45012   0.00000  Uiso   1.00
C22    C     0.03535   0.13544   0.05044   0.00000  Uiso   1.00
C23    C     0.31477   0.13925   0.40456   0.00000  Uiso   1.00
C24    C     0.01852   0.13942   0.09593   0.00000  Uiso   1.00
C25    C     0.24209   0.17662   0.40656   0.00000  Uiso   1.00
C26    C     0.09112   0.17682   0.09327   0.00000  Uiso   1.00
C27    C     0.22334   0.16947   0.45222   0.00000  Uiso   1.00
C28    C     0.10990   0.16955   0.04773   0.00000  Uiso   1.00
C29    C     0.25547   0.15566   0.47440   0.00000  Uiso   1.00
C30    C     0.07782   0.15561   0.02581   0.00000  Uiso   1.00
C31    C     0.17365   0.17258   0.47636   0.00000  Uiso   1.00
C32    C     0.15958   0.17265   0.02353   0.00000  Uiso   1.00
Cu33   Cu    0.04689   0.16667   0.25000   0.00000  Uiso   1.00
Cu34   Cu    0.28645   0.16666   0.25000   0.00000  Uiso   1.00
H35    H     0.11113   0.19443   0.11043   0.00000  Uiso   1.00
H36    H     0.22201   0.19415   0.38908   0.00000  Uiso   1.00
H37    H     0.31871   0.12399   0.11454   0.00000  Uiso   1.00
H38    H     0.01458   0.12375   0.38622   0.00000  Uiso   1.00
H39    H     0.25500   0.03759   0.27233   0.00000  Uiso   1.00
H40    H     0.07833   0.29575   0.22758   0.00000  Uiso   1.00
H41    H     0.25500   0.29597   0.27272   0.00000  Uiso   1.00
H42    H     0.07834   0.03736   0.22714   0.00000  Uiso   1.00
N43    N     0.11736   0.16668   0.24999   0.00000  Uiso   1.00
N44    N     0.21597   0.16666   0.25001   0.00000  Uiso   1.00
O45    O     0.03958   0.10655   0.25000   0.00000  Uiso   1.00
O46    O     0.29375   0.22678   0.25000   0.00000  Uiso   1.00
O47    O     0.29372   0.10654   0.25000   0.00000  Uiso   1.00
O48    O     0.03961   0.22679   0.24999   0.00000  Uiso   1.00
O49    O     0.01852   0.16668   0.31491   0.00000  Uiso   1.00
O50    O     0.31481   0.16666   0.18508   0.00000  Uiso   1.00
O51    O     0.27267   0.16667   0.31492   0.00000  Uiso   1.00
O52    O     0.06067   0.16667   0.18508   0.00000  Uiso   1.00
O53    O     0.27973   0.16374   0.03963   0.00000  Uiso   1.00
C54    C     0.28524   0.20529   0.05075   0.00000  Uiso   1.00
H55    H     0.25617   0.21429   0.08118   0.00000  Uiso   1.00
H56    H     0.28622   0.22716   0.02329   0.00000  Uiso   1.00
H57    H     0.32009   0.20874   0.05772   0.00000  Uiso   1.00
O58    O     0.05356   0.16359   0.46045   0.00000  Uiso   1.00
C59    C     0.04735   0.20530   0.44966   0.00000  Uiso   1.00
H60    H     0.07672   0.21519   0.41972   0.00000  Uiso   1.00
H61    H     0.04530   0.22656   0.47753   0.00000  Uiso   1.00
H62    H     0.01281   0.20860   0.44205   0.00000  Uiso   1.00
F63    F     0.31954   0.10753   0.46938   0.00000  Uiso   1.00
F64    F     0.01378   0.10756   0.03168   0.00000  Uiso   1.00
F65    F     0.18547   0.16776   0.08912   0.00000  Uiso   1.00
F66    F     0.14772   0.16754   0.41087   0.00000  Uiso   1.00
F67    F     0.19458   0.12074   0.31011   0.00000  Uiso   1.00
F68    F     0.13873   0.21264   0.18993   0.00000  Uiso   1.00
O69    O     0.09770   0.11914   0.30983   0.00000  Uiso   1.00
C70    C     0.10936   0.07677   0.30448   0.00000  Uiso   1.00
H71    H     0.07527   0.05881   0.31624   0.00000  Uiso   1.00
H72    H     0.13213   0.06754   0.32528   0.00000  Uiso   1.00
H73    H     0.12745   0.06799   0.26944   0.00000  Uiso   1.00
O74    O     0.23572   0.21401   0.19000   0.00000  Uiso   1.00
C75    C     0.22408   0.25642   0.19501   0.00000  Uiso   1.00
H76    H     0.25820   0.27435   0.18336   0.00000  Uiso   1.00
H77    H     0.20575   0.26540   0.22995   0.00000  Uiso   1.00
H78    H     0.20157   0.26549   0.17393   0.00000  Uiso   1.00
C79    C     0.33337   0.08754   0.24999   0.00000  Uiso   1.00
C80    C     0.66663   0.24580   0.24999   0.00000  Uiso   1.00
C81    C     0.52915   0.16957   0.04458   0.00000  Uiso   1.00
C82    C     0.47076   0.16936   0.45538   0.00000  Uiso   1.00
C83    C     0.57705   0.16202   0.01985   0.00000  Uiso   1.00
C84    C     0.42290   0.16180   0.48025   0.00000  Uiso   1.00
C85    C     0.62269   0.02141   0.26231   0.00000  Uiso   1.00
C86    C     0.37732   0.31192   0.23760   0.00000  Uiso   1.00
C87    C     0.62266   0.31205   0.26241   0.00000  Uiso   1.00
C88    C     0.37735   0.02129   0.23749   0.00000  Uiso   1.00
C89    C     0.66662   0.29050   0.24998   0.00000  Uiso   1.00
C90    C     0.33338   0.04284   0.24995   0.00000  Uiso   1.00
C91    C     0.51488   0.14319   0.27952   0.00000  Uiso   1.00
C92    C     0.48512   0.19015   0.22048   0.00000  Uiso   1.00
C93    C     0.46544   0.14245   0.27913   0.00000  Uiso   1.00
C94    C     0.53458   0.19084   0.22082   0.00000  Uiso   1.00
C95    C     0.63861   0.16610   0.33527   0.00000  Uiso   1.00
C96    C     0.36138   0.16622   0.16474   0.00000  Uiso   1.00
C97    C     0.62155   0.16223   0.38298   0.00000  Uiso   1.00
C98    C     0.37840   0.16240   0.11709   0.00000  Uiso   1.00
C99    C     0.63128   0.13539   0.45012   0.00000  Uiso   1.00
C100   C     0.36869   0.13544   0.05044   0.00000  Uiso   1.00
C101   C     0.64811   0.13925   0.40456   0.00000  Uiso   1.00
C102   C     0.35186   0.13942   0.09593   0.00000  Uiso   1.00
C103   C     0.57542   0.17662   0.40656   0.00000  Uiso   1.00
C104   C     0.42446   0.17682   0.09327   0.00000  Uiso   1.00
C105   C     0.55667   0.16947   0.45222   0.00000  Uiso   1.00
C106   C     0.44323   0.16955   0.04773   0.00000  Uiso   1.00
C107   C     0.58880   0.15566   0.47440   0.00000  Uiso   1.00
C108   C     0.41115   0.15561   0.02581   0.00000  Uiso   1.00
C109   C     0.50699   0.17258   0.47636   0.00000  Uiso   1.00
C110   C     0.49291   0.17265   0.02353   0.00000  Uiso   1.00
Cu111  Cu    0.38022   0.16667   0.25000   0.00000  Uiso   1.00
Cu112  Cu    0.61978   0.16666   0.25000   0.00000  Uiso   1.00
H113   H     0.44446   0.19443   0.11043   0.00000  Uiso   1.00
H114   H     0.55535   0.19415   0.38908   0.00000  Uiso   1.00
H115   H     0.65204   0.12399   0.11454   0.00000  Uiso   1.00
H116   H     0.34792   0.12375   0.38622   0.00000  Uiso   1.00
H117   H     0.58834   0.03759   0.27233   0.00000  Uiso   1.00
H118   H     0.41167   0.29575   0.22758   0.00000  Uiso   1.00
H119   H     0.58833   0.29597   0.27272   0.00000  Uiso   1.00
H120   H     0.41167   0.03736   0.22714   0.00000  Uiso   1.00
N121   N     0.45069   0.16668   0.24999   0.00000  Uiso   1.00
N122   N     0.54931   0.16666   0.25001   0.00000  Uiso   1.00
O123   O     0.37291   0.10655   0.25000   0.00000  Uiso   1.00
O124   O     0.62709   0.22678   0.25000   0.00000  Uiso   1.00
O125   O     0.62706   0.10654   0.25000   0.00000  Uiso   1.00
O126   O     0.37294   0.22679   0.24999   0.00000  Uiso   1.00
O127   O     0.35186   0.16668   0.31491   0.00000  Uiso   1.00
O128   O     0.64814   0.16666   0.18508   0.00000  Uiso   1.00
O129   O     0.60600   0.16667   0.31492   0.00000  Uiso   1.00
O130   O     0.39400   0.16667   0.18508   0.00000  Uiso   1.00
O131   O     0.61306   0.16374   0.03963   0.00000  Uiso   1.00
C132   C     0.61858   0.20529   0.05075   0.00000  Uiso   1.00
H133   H     0.58950   0.21429   0.08118   0.00000  Uiso   1.00
H134   H     0.61955   0.22716   0.02329   0.00000  Uiso   1.00
H135   H     0.65342   0.20874   0.05772   0.00000  Uiso   1.00
O136   O     0.38690   0.16359   0.46045   0.00000  Uiso   1.00
C137   C     0.38068   0.20530   0.44966   0.00000  Uiso   1.00
H138   H     0.41005   0.21519   0.41972   0.00000  Uiso   1.00
H139   H     0.37864   0.22656   0.47753   0.00000  Uiso   1.00
H140   H     0.34614   0.20860   0.44205   0.00000  Uiso   1.00
F141   F     0.65288   0.10753   0.46938   0.00000  Uiso   1.00
F142   F     0.34711   0.10756   0.03168   0.00000  Uiso   1.00
F143   F     0.51880   0.16776   0.08912   0.00000  Uiso   1.00
F144   F     0.48105   0.16754   0.41087   0.00000  Uiso   1.00
F145   F     0.52791   0.12074   0.31011   0.00000  Uiso   1.00
F146   F     0.47207   0.21264   0.18993   0.00000  Uiso   1.00
O147   O     0.43103   0.11914   0.30983   0.00000  Uiso   1.00
C148   C     0.44269   0.07677   0.30448   0.00000  Uiso   1.00
H149   H     0.40860   0.05881   0.31624   0.00000  Uiso   1.00
H150   H     0.46546   0.06754   0.32528   0.00000  Uiso   1.00
H151   H     0.46078   0.06799   0.26944   0.00000  Uiso   1.00
O152   O     0.56906   0.21401   0.19000   0.00000  Uiso   1.00
C153   C     0.55741   0.25642   0.19501   0.00000  Uiso   1.00
H154   H     0.59153   0.27435   0.18336   0.00000  Uiso   1.00
H155   H     0.53909   0.26540   0.22995   0.00000  Uiso   1.00
H156   H     0.53490   0.26549   0.17393   0.00000  Uiso   1.00
C157   C     0.66670   0.08754   0.24999   0.00000  Uiso   1.00
C158   C     0.99997   0.24580   0.24999   0.00000  Uiso   1.00
C159   C     0.86248   0.16957   0.04458   0.00000  Uiso   1.00
C160   C     0.80409   0.16936   0.45538   0.00000  Uiso   1.00
C161   C     0.91038   0.16202   0.01985   0.00000  Uiso   1.00
C162   C     0.75623   0.16180   0.48025   0.00000  Uiso   1.00
C163   C     0.95602   0.02141   0.26231   0.00000  Uiso   1.00
C164   C     0.71065   0.31192   0.23760   0.00000  Uiso   1.00
C165   C     0.95599   0.31205   0.26241   0.00000  Uiso   1.00
C166   C     0.71068   0.02129   0.23749   0.00000  Uiso   1.00
C167   C     0.99996   0.29050   0.24998   0.00000  Uiso   1.00
C168   C     0.66672   0.04284   0.24995   0.00000  Uiso   1.00
C169   C     0.84821   0.14319   0.27952   0.00000  Uiso   1.00
C170   C     0.81846   0.19015   0.22048   0.00000  Uiso   1.00
C171   C     0.79878   0.14245   0.27913   0.00000  Uiso   1.00
C172   C     0.86792   0.19084   0.22082   0.00000  Uiso   1.00
C173   C     0.97194   0.16610   0.33527   0.00000  Uiso   1.00
C174   C     0.69472   0.16622   0.16474   0.00000  Uiso   1.00
C175   C     0.95488   0.16223   0.38298   0.00000  Uiso   1.00
C176   C     0.71173   0.16240   0.11709   0.00000  Uiso   1.00
C177   C     0.96462   0.13539   0.45012   0.00000  Uiso   1.00
C178   C     0.70202   0.13544   0.05044   0.00000  Uiso   1.00
C179   C     0.98144   0.13925   0.40456   0.00000  Uiso   1.00
C180   C     0.68519   0.13942   0.09593   0.00000  Uiso   1.00
C181   C     0.90876   0.17662   0.40656   0.00000  Uiso   1.00
C182   C     0.75779   0.17682   0.09327   0.00000  Uiso   1.00
C183   C     0.89001   0.16947   0.45222   0.00000  Uiso   1.00
C184   C     0.77657   0.16955   0.04773   0.00000  Uiso   1.00
C185   C     0.92214   0.15566   0.47440   0.00000  Uiso   1.00
C186   C     0.74448   0.15561   0.02581   0.00000  Uiso   1.00
C187   C     0.84032   0.17258   0.47636   0.00000  Uiso   1.00
C188   C     0.82624   0.17265   0.02353   0.00000  Uiso   1.00
Cu189  Cu    0.71355   0.16667   0.25000   0.00000  Uiso   1.00
Cu190  Cu    0.95311   0.16666   0.25000   0.00000  Uiso   1.00
H191   H     0.77780   0.19443   0.11043   0.00000  Uiso   1.00
H192   H     0.88868   0.19415   0.38908   0.00000  Uiso   1.00
H193   H     0.98537   0.12399   0.11454   0.00000  Uiso   1.00
H194   H     0.68125   0.12375   0.38622   0.00000  Uiso   1.00
H195   H     0.92167   0.03759   0.27233   0.00000  Uiso   1.00
H196   H     0.74500   0.29575   0.22758   0.00000  Uiso   1.00
H197   H     0.92166   0.29597   0.27272   0.00000  Uiso   1.00
H198   H     0.74500   0.03736   0.22714   0.00000  Uiso   1.00
N199   N     0.78403   0.16668   0.24999   0.00000  Uiso   1.00
N200   N     0.88264   0.16666   0.25001   0.00000  Uiso   1.00
O201   O     0.70625   0.10655   0.25000   0.00000  Uiso   1.00
O202   O     0.96042   0.22678   0.25000   0.00000  Uiso   1.00
O203   O     0.96039   0.10654   0.25000   0.00000  Uiso   1.00
O204   O     0.70628   0.22679   0.24999   0.00000  Uiso   1.00
O205   O     0.68519   0.16668   0.31491   0.00000  Uiso   1.00
O206   O     0.98148   0.16666   0.18508   0.00000  Uiso   1.00
O207   O     0.93933   0.16667   0.31492   0.00000  Uiso   1.00
O208   O     0.72733   0.16667   0.18508   0.00000  Uiso   1.00
O209   O     0.94640   0.16374   0.03963   0.00000  Uiso   1.00
C210   C     0.95191   0.20529   0.05075   0.00000  Uiso   1.00
H211   H     0.92284   0.21429   0.08118   0.00000  Uiso   1.00
H212   H     0.95289   0.22716   0.02329   0.00000  Uiso   1.00
H213   H     0.98675   0.20874   0.05772   0.00000  Uiso   1.00
O214   O     0.72023   0.16359   0.46045   0.00000  Uiso   1.00
C215   C     0.71402   0.20530   0.44966   0.00000  Uiso   1.00
H216   H     0.74338   0.21519   0.41972   0.00000  Uiso   1.00
H217   H     0.71197   0.22656   0.47753   0.00000  Uiso   1.00
H218   H     0.67947   0.20860   0.44205   0.00000  Uiso   1.00
F219   F     0.98621   0.10753   0.46938   0.00000  Uiso   1.00
F220   F     0.68045   0.10756   0.03168   0.00000  Uiso   1.00
F221   F     0.85213   0.16776   0.08912   0.00000  Uiso   1.00
F222   F     0.81438   0.16754   0.41087   0.00000  Uiso   1.00
F223   F     0.86124   0.12074   0.31011   0.00000  Uiso   1.00
F224   F     0.80540   0.21264   0.18993   0.00000  Uiso   1.00
O225   O     0.76436   0.11914   0.30983   0.00000  Uiso   1.00
C226   C     0.77603   0.07677   0.30448   0.00000  Uiso   1.00
H227   H     0.74193   0.05881   0.31624   0.00000  Uiso   1.00
H228   H     0.79880   0.06754   0.32528   0.00000  Uiso   1.00
H229   H     0.79412   0.06799   0.26944   0.00000  Uiso   1.00
O230   O     0.90239   0.21401   0.19000   0.00000  Uiso   1.00
C231   C     0.89075   0.25642   0.19501   0.00000  Uiso   1.00
H232   H     0.92487   0.27435   0.18336   0.00000  Uiso   1.00
H233   H     0.87242   0.26540   0.22995   0.00000  Uiso   1.00
H234   H     0.86823   0.26549   0.17393   0.00000  Uiso   1.00
C235   C     0.00004   0.42087   0.24999   0.00000  Uiso   1.00
C236   C     0.33330   0.57913   0.24999   0.00000  Uiso   1.00
C237   C     0.19581   0.50290   0.04458   0.00000  Uiso   1.00
C238   C     0.13742   0.50269   0.45538   0.00000  Uiso   1.00
C239   C     0.24372   0.49535   0.01985   0.00000  Uiso   1.00
C240   C     0.08957   0.49513   0.48025   0.00000  Uiso   1.00
C241   C     0.28935   0.35475   0.26231   0.00000  Uiso   1.00
C242   C     0.04398   0.64525   0.23760   0.00000  Uiso   1.00
C243   C     0.28932   0.64538   0.26241   0.00000  Uiso   1.00
C244   C     0.04401   0.35462   0.23749   0.00000  Uiso   1.00
C245   C     0.33329   0.62383   0.24998   0.00000  Uiso   1.00
C246   C     0.00005   0.37617   0.24995   0.00000  Uiso   1.00
C247   C     0.18154   0.47652   0.27952   0.00000  Uiso   1.00
C248   C     0.15179   0.52349   0.22048   0.00000  Uiso   1.00
C249   C     0.13211   0.47578   0.27913   0.00000  Uiso   1.00
C250   C     0.20125   0.52418   0.22082   0.00000  Uiso   1.00
C251   C     0.30528   0.49943   0.33527   0.00000  Uiso   1.00
C252   C     0.02805   0.49956   0.16474   0.00000  Uiso   1.00
C253   C     0.28822   0.49556   0.38298   0.00000  Uiso   1.00
C254   C     0.04507   0.49573   0.11709   0.00000  Uiso   1.00
C255   C     0.29795   0.46872   0.45012   0.00000  Uiso   1.00
C256   C     0.03535   0.46877   0.05044   0.00000  Uiso   1.00
C257   C     0.31477   0.47259   0.40456   0.00000  Uiso   1.00
C258   C     0.01852   0.47275   0.09593   0.00000  Uiso   1.00
C259   C     0.24209   0.50996   0.40656   0.00000  Uiso   1.00
C260   C     0.09112   0.51015   0.09327   0.00000  Uiso   1.00
C261   C     0.22334   0.50281   0.45222   0.00000  Uiso   1.00
C262   C     0.10990   0.50288   0.04773   0.00000  Uiso   1.00
C263   C     0.25547   0.48899   0.47440   0.00000  Uiso   1.00
C264   C     0.07782   0.48895   0.02581   0.00000  Uiso   1.00
C265   C     0.17365   0.50591   0.47636   0.00000  Uiso   1.00
C266   C     0.15958   0.50599   0.02353   0.00000  Uiso   1.00
Cu267  Cu    0.04689   0.50001   0.25000   0.00000  Uiso   1.00
Cu268  Cu    0.28645   0.49999   0.25000   0.00000  Uiso   1.00
H269   H     0.11113   0.52776   0.11043   0.00000  Uiso   1.00
H270   H     0.22201   0.52749   0.38908   0.00000  Uiso   1.00
H271   H     0.31871   0.45733   0.11454   0.00000  Uiso   1.00
H272   H     0.01458   0.45708   0.38622   0.00000  Uiso   1.00
H273   H     0.25500   0.37092   0.27233   0.00000  Uiso   1.00
H274   H     0.07833   0.62908   0.22758   0.00000  Uiso   1.00
H275   H     0.25500   0.62930   0.27272   0.00000  Uiso   1.00
H276   H     0.07834   0.37070   0.22714   0.00000  Uiso   1.00
N277   N     0.11736   0.50001   0.24999   0.00000  Uiso   1.00
N278   N     0.21597   0.49999   0.25001   0.00000  Uiso   1.00
O279   O     0.03958   0.43989   0.25000   0.00000  Uiso   1.00
O280   O     0.29375   0.56011   0.25000   0.00000  Uiso   1.00
O281   O     0.29372   0.43988   0.25000   0.00000  Uiso   1.00
O282   O     0.03961   0.56012   0.24999   0.00000  Uiso   1.00
O283   O     0.01852   0.50001   0.31491   0.00000  Uiso   1.00
O284   O     0.31481   0.49999   0.18508   0.00000  Uiso   1.00
O285   O     0.27267   0.50000   0.31492   0.00000  Uiso   1.00
O286   O     0.06067   0.50000   0.18508   0.00000  Uiso   1.00
O287   O     0.27973   0.49708   0.03963   0.00000  Uiso   1.00
C288   C     0.28524   0.53862   0.05075   0.00000  Uiso   1.00
H289   H     0.25617   0.54762   0.08118   0.00000  Uiso   1.00
H290   H     0.28622   0.56050   0.02329   0.00000  Uiso   1.00
H291   H     0.32009   0.54208   0.05772   0.00000  Uiso   1.00
O292   O     0.05356   0.49692   0.46045   0.00000  Uiso   1.00
C293   C     0.04735   0.53863   0.44966   0.00000  Uiso   1.00
H294   H     0.07672   0.54853   0.41972   0.00000  Uiso   1.00
H295   H     0.04530   0.55990   0.47753   0.00000  Uiso   1.00
H296   H     0.01281   0.54193   0.44205   0.00000  Uiso   1.00
F297   F     0.31954   0.44087   0.46938   0.00000  Uiso   1.00
F298   F     0.01378   0.44089   0.03168   0.00000  Uiso   1.00
F299   F     0.18547   0.50110   0.08912   0.00000  Uiso   1.00
F300   F     0.14772   0.50087   0.41087   0.00000  Uiso   1.00
F301   F     0.19458   0.45407   0.31011   0.00000  Uiso   1.00
F302   F     0.13873   0.54597   0.18993   0.00000  Uiso   1.00
O303   O     0.09770   0.45248   0.30983   0.00000  Uiso   1.00
C304   C     0.10936   0.41010   0.30448   0.00000  Uiso   1.00
H305   H     0.07527   0.39214   0.31624   0.00000  Uiso   1.00
H306   H     0.13213   0.40087   0.32528   0.00000  Uiso   1.00
H307   H     0.12745   0.40132   0.26944   0.00000  Uiso   1.00
O308   O     0.23572   0.54735   0.19000   0.00000  Uiso   1.00
C309   C     0.22408   0.58975   0.19501   0.00000  Uiso   1.00
H310   H     0.25820   0.60768   0.18336   0.00000  Uiso   1.00
H311   H     0.20575   0.59873   0.22995   0.00000  Uiso   1.00
H312   H     0.20157   0.59883   0.17393   0.00000  Uiso   1.00
C313   C     0.33337   0.42087   0.24999   0.00000  Uiso   1.00
C314   C     0.66663   0.57913   0.24999   0.00000  Uiso   1.00
C315   C     0.52915   0.50290   0.04458   0.00000  Uiso   1.00
C316   C     0.47076   0.50269   0.45538   0.00000  Uiso   1.00
C317   C     0.57705   0.49535   0.01985   0.00000  Uiso   1.00
C318   C     0.42290   0.49513   0.48025   0.00000  Uiso   1.00
C319   C     0.62269   0.35475   0.26231   0.00000  Uiso   1.00
C320   C     0.37732   0.64525   0.23760   0.00000  Uiso   1.00
C321   C     0.62266   0.64538   0.26241   0.00000  Uiso   1.00
C322   C     0.37735   0.35462   0.23749   0.00000  Uiso   1.00
C323   C     0.66662   0.62383   0.24998   0.00000  Uiso   1.00
C324   C     0.33338   0.37617   0.24995   0.00000  Uiso   1.00
C325   C     0.51488   0.47652   0.27952   0.00000  Uiso   1.00
C326   C     0.48512   0.52349   0.22048   0.00000  Uiso   1.00
C327   C     0.46544   0.47578   0.27913   0.00000  Uiso   1.00
C328   C     0.53458   0.52418   0.22082   0.00000  Uiso   1.00
C329   C     0.63861   0.49943   0.33527   0.00000  Uiso   1.00
C330   C     0.36138   0.49956   0.16474   0.00000  Uiso   1.00
C331   C     0.62155   0.49556   0.38298   0.00000  Uiso   1.00
C332   C     0.37840   0.49573   0.11709   0.00000  Uiso   1.00
C333   C     0.63128   0.46872   0.45012   0.00000  Uiso   1.00
C334   C     0.36869   0.46877   0.05044   0.00000  Uiso   1.00
C335   C     0.64811   0.47259   0.40456   0.00000  Uiso   1.00
C336   C     0.35186   0.47275   0.09593   0.00000  Uiso   1.00
C337   C     0.57542   0.50996   0.40656   0.00000  Uiso   1.00
C338   C     0.42446   0.51015   0.09327   0.00000  Uiso   1.00
C339   C     0.55667   0.50281   0.45222   0.00000  Uiso   1.00
C340   C     0.44323   0.50288   0.04773   0.00000  Uiso   1.00
C341   C     0.58880   0.48899   0.47440   0.00000  Uiso   1.00
C342   C     0.41115   0.48895   0.02581   0.00000  Uiso   1.00
C343   C     0.50699   0.50591   0.47636   0.00000  Uiso   1.00
C344   C     0.49291   0.50599   0.02353   0.00000  Uiso   1.00
Cu345  Cu    0.38022   0.50001   0.25000   0.00000  Uiso   1.00
Cu346  Cu    0.61978   0.49999   0.25000   0.00000  Uiso   1.00
H347   H     0.44446   0.52776   0.11043   0.00000  Uiso   1.00
H348   H     0.55535   0.52749   0.38908   0.00000  Uiso   1.00
H349   H     0.65204   0.45733   0.11454   0.00000  Uiso   1.00
H350   H     0.34792   0.45708   0.38622   0.00000  Uiso   1.00
H351   H     0.58834   0.37092   0.27233   0.00000  Uiso   1.00
H352   H     0.41167   0.62908   0.22758   0.00000  Uiso   1.00
H353   H     0.58833   0.62930   0.27272   0.00000  Uiso   1.00
H354   H     0.41167   0.37070   0.22714   0.00000  Uiso   1.00
N355   N     0.45069   0.50001   0.24999   0.00000  Uiso   1.00
N356   N     0.54931   0.49999   0.25001   0.00000  Uiso   1.00
O357   O     0.37291   0.43989   0.25000   0.00000  Uiso   1.00
O358   O     0.62709   0.56011   0.25000   0.00000  Uiso   1.00
O359   O     0.62706   0.43988   0.25000   0.00000  Uiso   1.00
O360   O     0.37294   0.56012   0.24999   0.00000  Uiso   1.00
O361   O     0.35186   0.50001   0.31491   0.00000  Uiso   1.00
O362   O     0.64814   0.49999   0.18508   0.00000  Uiso   1.00
O363   O     0.60600   0.50000   0.31492   0.00000  Uiso   1.00
O364   O     0.39400   0.50000   0.18508   0.00000  Uiso   1.00
O365   O     0.61306   0.49708   0.03963   0.00000  Uiso   1.00
C366   C     0.61858   0.53862   0.05075   0.00000  Uiso   1.00
H367   H     0.58950   0.54762   0.08118   0.00000  Uiso   1.00
H368   H     0.61955   0.56050   0.02329   0.00000  Uiso   1.00
H369   H     0.65342   0.54208   0.05772   0.00000  Uiso   1.00
O370   O     0.38690   0.49692   0.46045   0.00000  Uiso   1.00
C371   C     0.38068   0.53863   0.44966   0.00000  Uiso   1.00
H372   H     0.41005   0.54853   0.41972   0.00000  Uiso   1.00
H373   H     0.37864   0.55990   0.47753   0.00000  Uiso   1.00
H374   H     0.34614   0.54193   0.44205   0.00000  Uiso   1.00
F375   F     0.65288   0.44087   0.46938   0.00000  Uiso   1.00
F376   F     0.34711   0.44089   0.03168   0.00000  Uiso   1.00
F377   F     0.51880   0.50110   0.08912   0.00000  Uiso   1.00
F378   F     0.48105   0.50087   0.41087   0.00000  Uiso   1.00
F379   F     0.52791   0.45407   0.31011   0.00000  Uiso   1.00
F380   F     0.47207   0.54597   0.18993   0.00000  Uiso   1.00
O381   O     0.43103   0.45248   0.30983   0.00000  Uiso   1.00
C382   C     0.44269   0.41010   0.30448   0.00000  Uiso   1.00
H383   H     0.40860   0.39214   0.31624   0.00000  Uiso   1.00
H384   H     0.46546   0.40087   0.32528   0.00000  Uiso   1.00
H385   H     0.46078   0.40132   0.26944   0.00000  Uiso   1.00
O386   O     0.56906   0.54735   0.19000   0.00000  Uiso   1.00
C387   C     0.55741   0.58975   0.19501   0.00000  Uiso   1.00
H388   H     0.59153   0.60768   0.18336   0.00000  Uiso   1.00
H389   H     0.53909   0.59873   0.22995   0.00000  Uiso   1.00
H390   H     0.53490   0.59883   0.17393   0.00000  Uiso   1.00
C391   C     0.66670   0.42087   0.24999   0.00000  Uiso   1.00
C392   C     0.99997   0.57913   0.24999   0.00000  Uiso   1.00
C393   C     0.86248   0.50290   0.04458   0.00000  Uiso   1.00
C394   C     0.80409   0.50269   0.45538   0.00000  Uiso   1.00
C395   C     0.91038   0.49535   0.01985   0.00000  Uiso   1.00
C396   C     0.75623   0.49513   0.48025   0.00000  Uiso   1.00
C397   C     0.95602   0.35475   0.26231   0.00000  Uiso   1.00
C398   C     0.71065   0.64525   0.23760   0.00000  Uiso   1.00
C399   C     0.95599   0.64538   0.26241   0.00000  Uiso   1.00
C400   C     0.71068   0.35462   0.23749   0.00000  Uiso   1.00
C401   C     0.99996   0.62383   0.24998   0.00000  Uiso   1.00
C402   C     0.66672   0.37617   0.24995   0.00000  Uiso   1.00
C403   C     0.84821   0.47652   0.27952   0.00000  Uiso   1.00
C404   C     0.81846   0.52349   0.22048   0.00000  Uiso   1.00
C405   C     0.79878   0.47578   0.27913   0.00000  Uiso   1.00
C406   C     0.86792   0.52418   0.22082   0.00000  Uiso   1.00
C407   C     0.97194   0.49943   0.33527   0.00000  Uiso   1.00
C408   C     0.69472   0.49956   0.16474   0.00000  Uiso   1.00
C409   C     0.95488   0.49556   0.38298   0.00000  Uiso   1.00
C410   C     0.71173   0.49573   0.11709   0.00000  Uiso   1.00
C411   C     0.96462   0.46872   0.45012   0.00000  Uiso   1.00
C412   C     0.70202   0.46877   0.05044   0.00000  Uiso   1.00
C413   C     0.98144   0.47259   0.40456   0.00000  Uiso   1.00
C414   C     0.68519   0.47275   0.09593   0.00000  Uiso   1.00
C415   C     0.90876   0.50996   0.40656   0.00000  Uiso   1.00
C416   C     0.75779   0.51015   0.09327   0.00000  Uiso   1.00
C417   C     0.89001   0.50281   0.45222   0.00000  Uiso   1.00
C418   C     0.77657   0.50288   0.04773   0.00000  Uiso   1.00
C419   C     0.92214   0.48899   0.47440   0.00000  Uiso   1.00
C420   C     0.74448   0.48895   0.02581   0.00000  Uiso   1.00
C421   C     0.84032   0.50591   0.47636   0.00000  Uiso   1.00
C422   C     0.82624   0.50599   0.02353   0.00000  Uiso   1.00
Cu423  Cu    0.71355   0.50001   0.25000   0.00000  Uiso   1.00
Cu424  Cu    0.95311   0.49999   0.25000   0.00000  Uiso   1.00
H425   H     0.77780   0.52776   0.11043   0.00000  Uiso   1.00
H426   H     0.88868   0.52749   0.38908   0.00000  Uiso   1.00
H427   H     0.98537   0.45733   0.11454   0.00000  Uiso   1.00
H428   H     0.68125   0.45708   0.38622   0.00000  Uiso   1.00
H429   H     0.92167   0.37092   0.27233   0.00000  Uiso   1.00
H430   H     0.74500   0.62908   0.22758   0.00000  Uiso   1.00
H431   H     0.92166   0.62930   0.27272   0.00000  Uiso   1.00
H432   H     0.74500   0.37070   0.22714   0.00000  Uiso   1.00
N433   N     0.78403   0.50001   0.24999   0.00000  Uiso   1.00
N434   N     0.88264   0.49999   0.25001   0.00000  Uiso   1.00
O435   O     0.70625   0.43989   0.25000   0.00000  Uiso   1.00
O436   O     0.96042   0.56011   0.25000   0.00000  Uiso   1.00
O437   O     0.96039   0.43988   0.25000   0.00000  Uiso   1.00
O438   O     0.70628   0.56012   0.24999   0.00000  Uiso   1.00
O439   O     0.68519   0.50001   0.31491   0.00000  Uiso   1.00
O440   O     0.98148   0.49999   0.18508   0.00000  Uiso   1.00
O441   O     0.93933   0.50000   0.31492   0.00000  Uiso   1.00
O442   O     0.72733   0.50000   0.18508   0.00000  Uiso   1.00
O443   O     0.94640   0.49708   0.03963   0.00000  Uiso   1.00
C444   C     0.95191   0.53862   0.05075   0.00000  Uiso   1.00
H445   H     0.92284   0.54762   0.08118   0.00000  Uiso   1.00
H446   H     0.95289   0.56050   0.02329   0.00000  Uiso   1.00
H447   H     0.98675   0.54208   0.05772   0.00000  Uiso   1.00
O448   O     0.72023   0.49692   0.46045   0.00000  Uiso   1.00
C449   C     0.71402   0.53863   0.44966   0.00000  Uiso   1.00
H450   H     0.74338   0.54853   0.41972   0.00000  Uiso   1.00
H451   H     0.71197   0.55990   0.47753   0.00000  Uiso   1.00
H452   H     0.67947   0.54193   0.44205   0.00000  Uiso   1.00
F453   F     0.98621   0.44087   0.46938   0.00000  Uiso   1.00
F454   F     0.68045   0.44089   0.03168   0.00000  Uiso   1.00
F455   F     0.85213   0.50110   0.08912   0.00000  Uiso   1.00
F456   F     0.81438   0.50087   0.41087   0.00000  Uiso   1.00
F457   F     0.86124   0.45407   0.31011   0.00000  Uiso   1.00
F458   F     0.80540   0.54597   0.18993   0.00000  Uiso   1.00
O459   O     0.76436   0.45248   0.30983   0.00000  Uiso   1.00
C460   C     0.77603   0.41010   0.30448   0.00000  Uiso   1.00
H461   H     0.74193   0.39214   0.31624   0.00000  Uiso   1.00
H462   H     0.79880   0.40087   0.32528   0.00000  Uiso   1.00
H463   H     0.79412   0.40132   0.26944   0.00000  Uiso   1.00
O464   O     0.90239   0.54735   0.19000   0.00000  Uiso   1.00
C465   C     0.89075   0.58975   0.19501   0.00000  Uiso   1.00
H466   H     0.92487   0.60768   0.18336   0.00000  Uiso   1.00
H467   H     0.87242   0.59873   0.22995   0.00000  Uiso   1.00
H468   H     0.86823   0.59883   0.17393   0.00000  Uiso   1.00
C469   C     0.00004   0.75420   0.24999   0.00000  Uiso   1.00
C470   C     0.33330   0.91246   0.24999   0.00000  Uiso   1.00
C471   C     0.19581   0.83624   0.04458   0.00000  Uiso   1.00
C472   C     0.13742   0.83602   0.45538   0.00000  Uiso   1.00
C473   C     0.24372   0.82869   0.01985   0.00000  Uiso   1.00
C474   C     0.08957   0.82847   0.48025   0.00000  Uiso   1.00
C475   C     0.28935   0.68808   0.26231   0.00000  Uiso   1.00
C476   C     0.04398   0.97859   0.23760   0.00000  Uiso   1.00
C477   C     0.28932   0.97871   0.26241   0.00000  Uiso   1.00
C478   C     0.04401   0.68795   0.23749   0.00000  Uiso   1.00
C479   C     0.33329   0.95716   0.24998   0.00000  Uiso   1.00
C480   C     0.00005   0.70950   0.24995   0.00000  Uiso   1.00
C481   C     0.18154   0.80986   0.27952   0.00000  Uiso   1.00
C482   C     0.15179   0.85682   0.22048   0.00000  Uiso   1.00
C483   C     0.13211   0.80912   0.27913   0.00000  Uiso   1.00
C484   C     0.20125   0.85751   0.22082   0.00000  Uiso   1.00
C485   C     0.30528   0.83277   0.33527   0.00000  Uiso   1.00
C486   C     0.02805   0.83289   0.16474   0.00000  Uiso   1.00
C487   C     0.28822   0.82889   0.38298   0.00000  Uiso   1.00
C488   C     0.04507   0.82907   0.11709   0.00000  Uiso   1.00
C489   C     0.29795   0.80205   0.45012   0.00000  Uiso   1.00
C490   C     0.03535   0.80210   0.05044   0.00000  Uiso   1.00
C491   C     0.31477   0.80592   0.40456   0.00000  Uiso   1.00
C492   C     0.01852   0.80608   0.09593   0.00000  Uiso   1.00
C493   C     0.24209   0.84329   0.40656   0.00000  Uiso   1.00
C494   C     0.09112   0.84348   0.09327   0.00000  Uiso   1.00
C495   C     0.22334   0.83614   0.45222   0.00000  Uiso   1.00
C496   C     0.10990   0.83621   0.04773   0.00000  Uiso   1.00
C497   C     0.25547   0.82232   0.47440   0.00000  Uiso   1.00
C498   C     0.07782   0.82228   0.02581   0.00000  Uiso   1.00
C499   C     0.17365   0.83925   0.47636   0.00000  Uiso   1.00
C500   C     0.15958   0.83932   0.02353   0.00000  Uiso   1.00
Cu501  Cu    0.04689   0.83334   0.25000   0.00000  Uiso   1.00
Cu502  Cu    0.28645   0.83333   0.25000   0.00000  Uiso   1.00
H503   H     0.11113   0.86110   0.11043   0.00000  Uiso   1.00
H504   H     0.22201   0.86082   0.38908   0.00000  Uiso   1.00
H505   H     0.31871   0.79066   0.11454   0.00000  Uiso   1.00
H506   H     0.01458   0.79042   0.38622   0.00000  Uiso   1.00
H507   H     0.25500   0.70425   0.27233   0.00000  Uiso   1.00
H508   H     0.07833   0.96241   0.22758   0.00000  Uiso   1.00
H509   H     0.25500   0.96264   0.27272   0.00000  Uiso   1.00
H510   H     0.07834   0.70403   0.22714   0.00000  Uiso   1.00
N511   N     0.11736   0.83334   0.24999   0.00000  Uiso   1.00
N512   N     0.21597   0.83332   0.25001   0.00000  Uiso   1.00
O513   O     0.03958   0.77322   0.25000   0.00000  Uiso   1.00
O514   O     0.29375   0.89345   0.25000   0.00000  Uiso   1.00
O515   O     0.29372   0.77321   0.25000   0.00000  Uiso   1.00
O516   O     0.03961   0.89346   0.24999   0.00000  Uiso   1.00
O517   O     0.01852   0.83334   0.31491   0.00000  Uiso   1.00
O518   O     0.31481   0.83332   0.18508   0.00000  Uiso   1.00
O519   O     0.27267   0.83333   0.31492   0.00000  Uiso   1.00
O520   O     0.06067   0.83333   0.18508   0.00000  Uiso   1.00
O521   O     0.27973   0.83041   0.03963   0.00000  Uiso   1.00
C522   C     0.28524   0.87196   0.05075   0.00000  Uiso   1.00
H523   H     0.25617   0.88095   0.08118   0.00000  Uiso   1.00
H524   H     0.28622   0.89383   0.02329   0.00000  Uiso   1.00
H525   H     0.32009   0.87541   0.05772   0.00000  Uiso   1.00
O526   O     0.05356   0.83026   0.46045   0.00000  Uiso   1.00
C527   C     0.04735   0.87196   0.44966   0.00000  Uiso   1.00
H528   H     0.07672   0.88186   0.41972   0.00000  Uiso   1.00
H529   H     0.04530   0.89323   0.47753   0.00000  Uiso   1.00
H530   H     0.01281   0.87527   0.44205   0.00000  Uiso   1.00
F531   F     0.31954   0.77420   0.46938   0.00000  Uiso   1.00
F532   F     0.01378   0.77423   0.03168   0.00000  Uiso   1.00
F533   F     0.18547   0.83443   0.08912   0.00000  Uiso   1.00
F534   F     0.14772   0.83420   0.41087   0.00000  Uiso   1.00
F535   F     0.19458   0.78741   0.31011   0.00000  Uiso   1.00
F536   F     0.13873   0.87930   0.18993   0.00000  Uiso   1.00
O537   O     0.09770   0.78581   0.30983   0.00000  Uiso   1.00
C538   C     0.10936   0.74343   0.30448   0.00000  Uiso   1.00
H539   H     0.07527   0.72547   0.31624   0.00000  Uiso   1.00
H540   H     0.13213   0.73421   0.32528   0.00000  Uiso   1.00
H541   H     0.12745   0.73465   0.26944   0.00000  Uiso   1.00
O542   O     0.23572   0.88068   0.19000   0.00000  Uiso   1.00
C543   C     0.22408   0.92308   0.19501   0.00000  Uiso   1.00
H544   H     0.25820   0.94101   0.18336   0.00000  Uiso   1.00
H545   H     0.20575   0.93206   0.22995   0.00000  Uiso   1.00
H546   H     0.20157   0.93216   0.17393   0.00000  Uiso   1.00
C547   C     0.33337   0.75420   0.24999   0.00000  Uiso   1.00
C548   C     0.66663   0.91246   0.24999   0.00000  Uiso   1.00
C549   C     0.52915   0.83624   0.04458   0.00000  Uiso   1.00
C550   C     0.47076   0.83602   0.45538   0.00000  Uiso   1.00
C551   C     0.57705   0.82869   0.01985   0.00000  Uiso   1.00
C552   C     0.42290   0.82847   0.48025   0.00000  Uiso   1.00
C553   C     0.62269   0.68808   0.26231   0.00000  Uiso   1.00
C554   C     0.37732   0.97859   0.23760   0.00000  Uiso   1.00
C555   C     0.62266   0.97871   0.26241   0.00000  Uiso   1.00
C556   C     0.37735   0.68795   0.23749   0.00000  Uiso   1.00
C557   C     0.66662   0.95716   0.24998   0.00000  Uiso   1.00
C558   C     0.33338   0.70950   0.24995   0.00000  Uiso   1.00
C559   C     0.51488   0.80986   0.27952   0.00000  Uiso   1.00
C560   C     0.48512   0.85682   0.22048   0.00000  Uiso   1.00
C561   C     0.46544   0.80912   0.27913   0.00000  Uiso   1.00
C562   C     0.53458   0.85751   0.22082   0.00000  Uiso   1.00
C563   C     0.63861   0.83277   0.33527   0.00000  Uiso   1.00
C564   C     0.36138   0.83289   0.16474   0.00000  Uiso   1.00
C565   C     0.62155   0.82889   0.38298   0.00000  Uiso   1.00
C566   C     0.37840   0.82907   0.11709   0.00000  Uiso   1.00
C567   C     0.63128   0.80205   0.45012   0.00000  Uiso   1.00
C568   C     0.36869   0.80210   0.05044   0.00000  Uiso   1.00
C569   C     0.64811   0.80592   0.40456   0.00000  Uiso   1.00
C570   C     0.35186   0.80608   0.09593   0.00000  Uiso   1.00
C571   C     0.57542   0.84329   0.40656   0.00000  Uiso   1.00
C572   C     0.42446   0.84348   0.09327   0.00000  Uiso   1.00
C573   C     0.55667   0.83614   0.45222   0.00000  Uiso   1.00
C574   C     0.44323   0.83621   0.04773   0.00000  Uiso   1.00
C575   C     0.58880   0.82232   0.47440   0.00000  Uiso   1.00
C576   C     0.41115   0.82228   0.02581   0.00000  Uiso   1.00
C577   C     0.50699   0.83925   0.47636   0.00000  Uiso   1.00
C578   C     0.49291   0.83932   0.02353   0.00000  Uiso   1.00
Cu579  Cu    0.38022   0.83334   0.25000   0.00000  Uiso   1.00
Cu580  Cu    0.61978   0.83333   0.25000   0.00000  Uiso   1.00
H581   H     0.44446   0.86110   0.11043   0.00000  Uiso   1.00
H582   H     0.55535   0.86082   0.38908   0.00000  Uiso   1.00
H583   H     0.65204   0.79066   0.11454   0.00000  Uiso   1.00
H584   H     0.34792   0.79042   0.38622   0.00000  Uiso   1.00
H585   H     0.58834   0.70425   0.27233   0.00000  Uiso   1.00
H586   H     0.41167   0.96241   0.22758   0.00000  Uiso   1.00
H587   H     0.58833   0.96264   0.27272   0.00000  Uiso   1.00
H588   H     0.41167   0.70403   0.22714   0.00000  Uiso   1.00
N589   N     0.45069   0.83334   0.24999   0.00000  Uiso   1.00
N590   N     0.54931   0.83332   0.25001   0.00000  Uiso   1.00
O591   O     0.37291   0.77322   0.25000   0.00000  Uiso   1.00
O592   O     0.62709   0.89345   0.25000   0.00000  Uiso   1.00
O593   O     0.62706   0.77321   0.25000   0.00000  Uiso   1.00
O594   O     0.37294   0.89346   0.24999   0.00000  Uiso   1.00
O595   O     0.35186   0.83334   0.31491   0.00000  Uiso   1.00
O596   O     0.64814   0.83332   0.18508   0.00000  Uiso   1.00
O597   O     0.60600   0.83333   0.31492   0.00000  Uiso   1.00
O598   O     0.39400   0.83333   0.18508   0.00000  Uiso   1.00
O599   O     0.61306   0.83041   0.03963   0.00000  Uiso   1.00
C600   C     0.61858   0.87196   0.05075   0.00000  Uiso   1.00
H601   H     0.58950   0.88095   0.08118   0.00000  Uiso   1.00
H602   H     0.61955   0.89383   0.02329   0.00000  Uiso   1.00
H603   H     0.65342   0.87541   0.05772   0.00000  Uiso   1.00
O604   O     0.38690   0.83026   0.46045   0.00000  Uiso   1.00
C605   C     0.38068   0.87196   0.44966   0.00000  Uiso   1.00
H606   H     0.41005   0.88186   0.41972   0.00000  Uiso   1.00
H607   H     0.37864   0.89323   0.47753   0.00000  Uiso   1.00
H608   H     0.34614   0.87527   0.44205   0.00000  Uiso   1.00
F609   F     0.65288   0.77420   0.46938   0.00000  Uiso   1.00
F610   F     0.34711   0.77423   0.03168   0.00000  Uiso   1.00
F611   F     0.51880   0.83443   0.08912   0.00000  Uiso   1.00
F612   F     0.48105   0.83420   0.41087   0.00000  Uiso   1.00
F613   F     0.52791   0.78741   0.31011   0.00000  Uiso   1.00
F614   F     0.47207   0.87930   0.18993   0.00000  Uiso   1.00
O615   O     0.43103   0.78581   0.30983   0.00000  Uiso   1.00
C616   C     0.44269   0.74343   0.30448   0.00000  Uiso   1.00
H617   H     0.40860   0.72547   0.31624   0.00000  Uiso   1.00
H618   H     0.46546   0.73421   0.32528   0.00000  Uiso   1.00
H619   H     0.46078   0.73465   0.26944   0.00000  Uiso   1.00
O620   O     0.56906   0.88068   0.19000   0.00000  Uiso   1.00
C621   C     0.55741   0.92308   0.19501   0.00000  Uiso   1.00
H622   H     0.59153   0.94101   0.18336   0.00000  Uiso   1.00
H623   H     0.53909   0.93206   0.22995   0.00000  Uiso   1.00
H624   H     0.53490   0.93216   0.17393   0.00000  Uiso   1.00
C625   C     0.66670   0.75420   0.24999   0.00000  Uiso   1.00
C626   C     0.99997   0.91246   0.24999   0.00000  Uiso   1.00
C627   C     0.86248   0.83624   0.04458   0.00000  Uiso   1.00
C628   C     0.80409   0.83602   0.45538   0.00000  Uiso   1.00
C629   C     0.91038   0.82869   0.01985   0.00000  Uiso   1.00
C630   C     0.75623   0.82847   0.48025   0.00000  Uiso   1.00
C631   C     0.95602   0.68808   0.26231   0.00000  Uiso   1.00
C632   C     0.71065   0.97859   0.23760   0.00000  Uiso   1.00
C633   C     0.95599   0.97871   0.26241   0.00000  Uiso   1.00
C634   C     0.71068   0.68795   0.23749   0.00000  Uiso   1.00
C635   C     0.99996   0.95716   0.24998   0.00000  Uiso   1.00
C636   C     0.66672   0.70950   0.24995   0.00000  Uiso   1.00
C637   C     0.84821   0.80986   0.27952   0.00000  Uiso   1.00
C638   C     0.81846   0.85682   0.22048   0.00000  Uiso   1.00
C639   C     0.79878   0.80912   0.27913   0.00000  Uiso   1.00
C640   C     0.86792   0.85751   0.22082   0.00000  Uiso   1.00
C641   C     0.97194   0.83277   0.33527   0.00000  Uiso   1.00
C642   C     0.69472   0.83289   0.16474   0.00000  Uiso   1.00
C643   C     0.95488   0.82889   0.38298   0.00000  Uiso   1.00
C644   C     0.71173   0.82907   0.11709   0.00000  Uiso   1.00
C645   C     0.96462   0.80205   0.45012   0.00000  Uiso   1.00
C646   C     0.70202   0.80210   0.05044   0.00000  Uiso   1.00
C647   C     0.98144   0.80592   0.40456   0.00000  Uiso   1.00
C648   C     0.68519   0.80608   0.09593   0.00000  Uiso   1.00
C649   C     0.90876   0.84329   0.40656   0.00000  Uiso   1.00
C650   C     0.75779   0.84348   0.09327   0.00000  Uiso   1.00
C651   C     0.89001   0.83614   0.45222   0.00000  Uiso   1.00
C652   C     0.77657   0.83621   0.04773   0.00000  Uiso   1.00
C653   C     0.92214   0.82232   0.47440   0.00000  Uiso   1.00
C654   C     0.74448   0.82228   0.02581   0.00000  Uiso   1.00
C655   C     0.84032   0.83925   0.47636   0.00000  Uiso   1.00
C656   C     0.82624   0.83932   0.02353   0.00000  Uiso   1.00
Cu657  Cu    0.71355   0.83334   0.25000   0.00000  Uiso   1.00
Cu658  Cu    0.95311   0.83333   0.25000   0.00000  Uiso   1.00
H659   H     0.77780   0.86110   0.11043   0.00000  Uiso   1.00
H660   H     0.88868   0.86082   0.38908   0.00000  Uiso   1.00
H661   H     0.98537   0.79066   0.11454   0.00000  Uiso   1.00
H662   H     0.68125   0.79042   0.38622   0.00000  Uiso   1.00
H663   H     0.92167   0.70425   0.27233   0.00000  Uiso   1.00
H664   H     0.74500   0.96241   0.22758   0.00000  Uiso   1.00
H665   H     0.92166   0.96264   0.27272   0.00000  Uiso   1.00
H666   H     0.74500   0.70403   0.22714   0.00000  Uiso   1.00
N667   N     0.78403   0.83334   0.24999   0.00000  Uiso   1.00
N668   N     0.88264   0.83332   0.25001   0.00000  Uiso   1.00
O669   O     0.70625   0.77322   0.25000   0.00000  Uiso   1.00
O670   O     0.96042   0.89345   0.25000   0.00000  Uiso   1.00
O671   O     0.96039   0.77321   0.25000   0.00000  Uiso   1.00
O672   O     0.70628   0.89346   0.24999   0.00000  Uiso   1.00
O673   O     0.68519   0.83334   0.31491   0.00000  Uiso   1.00
O674   O     0.98148   0.83332   0.18508   0.00000  Uiso   1.00
O675   O     0.93933   0.83333   0.31492   0.00000  Uiso   1.00
O676   O     0.72733   0.83333   0.18508   0.00000  Uiso   1.00
O677   O     0.94640   0.83041   0.03963   0.00000  Uiso   1.00
C678   C     0.95191   0.87196   0.05075   0.00000  Uiso   1.00
H679   H     0.92284   0.88095   0.08118   0.00000  Uiso   1.00
H680   H     0.95289   0.89383   0.02329   0.00000  Uiso   1.00
H681   H     0.98675   0.87541   0.05772   0.00000  Uiso   1.00
O682   O     0.72023   0.83026   0.46045   0.00000  Uiso   1.00
C683   C     0.71402   0.87196   0.44966   0.00000  Uiso   1.00
H684   H     0.74338   0.88186   0.41972   0.00000  Uiso   1.00
H685   H     0.71197   0.89323   0.47753   0.00000  Uiso   1.00
H686   H     0.67947   0.87527   0.44205   0.00000  Uiso   1.00
F687   F     0.98621   0.77420   0.46938   0.00000  Uiso   1.00
F688   F     0.68045   0.77423   0.03168   0.00000  Uiso   1.00
F689   F     0.85213   0.83443   0.08912   0.00000  Uiso   1.00
F690   F     0.81438   0.83420   0.41087   0.00000  Uiso   1.00
F691   F     0.86124   0.78741   0.31011   0.00000  Uiso   1.00
F692   F     0.80540   0.87930   0.18993   0.00000  Uiso   1.00
O693   O     0.76436   0.78581   0.30983   0.00000  Uiso   1.00
C694   C     0.77603   0.74343   0.30448   0.00000  Uiso   1.00
H695   H     0.74193   0.72547   0.31624   0.00000  Uiso   1.00
H696   H     0.79880   0.73421   0.32528   0.00000  Uiso   1.00
H697   H     0.79412   0.73465   0.26944   0.00000  Uiso   1.00
O698   O     0.90239   0.88068   0.19000   0.00000  Uiso   1.00
C699   C     0.89075   0.92308   0.19501   0.00000  Uiso   1.00
H700   H     0.92487   0.94101   0.18336   0.00000  Uiso   1.00
H701   H     0.87242   0.93206   0.22995   0.00000  Uiso   1.00
H702   H     0.86823   0.93216   0.17393   0.00000  Uiso   1.00
C703   C     0.00004   0.08754   0.74999   0.00000  Uiso   1.00
C704   C     0.33330   0.24580   0.74999   0.00000  Uiso   1.00
C705   C     0.19581   0.16957   0.54458   0.00000  Uiso   1.00
C706   C     0.13742   0.16936   0.95538   0.00000  Uiso   1.00
C707   C     0.24372   0.16202   0.51985   0.00000  Uiso   1.00
C708   C     0.08957   0.16180   0.98025   0.00000  Uiso   1.00
C709   C     0.28935   0.02141   0.76231   0.00000  Uiso   1.00
C710   C     0.04398   0.31192   0.73760   0.00000  Uiso   1.00
C711   C     0.28932   0.31205   0.76241   0.00000  Uiso   1.00
C712   C     0.04401   0.02129   0.73749   0.00000  Uiso   1.00
C713   C     0.33329   0.29050   0.74998   0.00000  Uiso   1.00
C714   C     0.00005   0.04284   0.74995   0.00000  Uiso   1.00
C715   C     0.18154   0.14319   0.77952   0.00000  Uiso   1.00
C716   C     0.15179   0.19015   0.72048   0.00000  Uiso   1.00
C717   C     0.13211   0.14245   0.77913   0.00000  Uiso   1.00
C718   C     0.20125   0.19084   0.72082   0.00000  Uiso   1.00
C719   C     0.30528   0.16610   0.83527   0.00000  Uiso   1.00
C720   C     0.02805   0.16622   0.66474   0.00000  Uiso   1.00
C721   C     0.28822   0.16223   0.88298   0.00000  Uiso   1.00
C722   C     0.04507   0.16240   0.61709   0.00000  Uiso   1.00
C723   C     0.29795   0.13539   0.95012   0.00000  Uiso   1.00
C724   C     0.03535   0.13544   0.55044   0.00000  Uiso   1.00
C725   C     0.31477   0.13925   0.90456   0.00000  Uiso   1.00
C726   C     0.01852   0.13942   0.59593   0.00000  Uiso   1.00
C727   C     0.24209   0.17662   0.90656   0.00000  Uiso   1.00
C728   C     0.09112   0.17682   0.59327   0.00000  Uiso   1.00
C729   C     0.22334   0.16947   0.95222   0.00000  Uiso   1.00
C730   C     0.10990   0.16955   0.54773   0.00000  Uiso   1.00
C731   C     0.25547   0.15566   0.97440   0.00000  Uiso   1.00
C732   C     0.07782   0.15561   0.52581   0.00000  Uiso   1.00
C733   C     0.17365   0.17258   0.97636   0.00000  Uiso   1.00
C734   C     0.15958   0.17265   0.52353   0.00000  Uiso   1.00
Cu735  Cu    0.04689   0.16667   0.75000   0.00000  Uiso   1.00
Cu736  Cu    0.28645   0.16666   0.75000   0.00000  Uiso   1.00
H737   H     0.11113   0.19443   0.61043   0.00000  Uiso   1.00
H738   H     0.22201   0.19415   0.88908   0.00000  Uiso   1.00
H739   H     0.31871   0.12399   0.61454   0.00000  Uiso   1.00
H740   H     0.01458   0.12375   0.88622   0.00000  Uiso   1.00
H741   H     0.25500   0.03759   0.77233   0.00000  Uiso   1.00
H742   H     0.07833   0.29575   0.72758   0.00000  Uiso   1.00
H743   H     0.25500   0.29597   0.77272   0.00000  Uiso   1.00
H744   H     0.07834   0.03736   0.72714   0.00000  Uiso   1.00
N745   N     0.11736   0.16668   0.74999   0.00000  Uiso   1.00
N746   N     0.21597   0.16666   0.75001   0.00000  Uiso   1.00
O747   O     0.03958   0.10655   0.75000   0.00000  Uiso   1.00
O748   O     0.29375   0.22678   0.75000   0.00000  Uiso   1.00
O749   O     0.29372   0.10654   0.75000   0.00000  Uiso   1.00
O750   O     0.03961   0.22679   0.74999   0.00000  Uiso   1.00
O751   O     0.01852   0.16668   0.81491   0.00000  Uiso   1.00
O752   O     0.31481   0.16666   0.68508   0.00000  Uiso   1.00
O753   O     0.27267   0.16667   0.81492   0.00000  Uiso   1.00
O754   O     0.06067   0.16667   0.68508   0.00000  Uiso   1.00
O755   O     0.27973   0.16374   0.53963   0.00000  Uiso   1.00
C756   C     0.28524   0.20529   0.55075   0.00000  Uiso   1.00
H757   H     0.25617   0.21429   0.58118   0.00000  Uiso   1.00
H758   H     0.28622   0.22716   0.52329   0.00000  Uiso   1.00
H759   H     0.32009   0.20874   0.55772   0.00000  Uiso   1.00
O760   O     0.05356   0.16359   0.96045   0.00000  Uiso   1.00
C761   C     0.04735   0.20530   0.94966   0.00000  Uiso   1.00
H762   H     0.07672   0.21519   0.91972   0.00000  Uiso   1.00
H763   H     0.04530   0.22656   0.97753   0.00000  Uiso   1.00
H764   H     0.01281   0.20860   0.94205   0.00000  Uiso   1.00
F765   F     0.31954   0.10753   0.96938   0.00000  Uiso   1.00
F766   F     0.01378   0.10756   0.53168   0.00000  Uiso   1.00
F767   F     0.18547   0.16776   0.58912   0.00000  Uiso   1.00
F768   F     0.14772   0.16754   0.91087   0.00000  Uiso   1.00
F769   F     0.19458   0.12074   0.81011   0.00000  Uiso   1.00
F770   F     0.13873   0.21264   0.68993   0.00000  Uiso   1.00
O771   O     0.09770   0.11914   0.80983   0.00000  Uiso   1.00
C772   C     0.10936   0.07677   0.80448   0.00000  Uiso   1.00
H773   H     0.07527   0.05881   0.81624   0.00000  Uiso   1.00
H774   H     0.13213   0.06754   0.82528   0.00000  Uiso   1.00
H775   H     0.12745   0.06799   0.76944   0.00000  Uiso   1.00
O776   O     0.23572   0.21401   0.69000   0.00000  Uiso   1.00
C777   C     0.22408   0.25642   0.69501   0.00000  Uiso   1.00
H778   H     0.25820   0.27435   0.68336   0.00000  Uiso   1.00
H779   H     0.20575   0.26540   0.72995   0.00000  Uiso   1.00
H780   H     0.20157   0.26549   0.67393   0.00000  Uiso   1.00
C781   C     0.33337   0.08754   0.74999   0.00000  Uiso   1.00
C782   C     0.66663   0.24580   0.74999   0.00000  Uiso   1.00
C783   C     0.52915   0.16957   0.54458   0.00000  Uiso   1.00
C784   C     0.47076   0.16936   0.95538   0.00000  Uiso   1.00
C785   C     0.57705   0.16202   0.51985   0.00000  Uiso   1.00
C786   C     0.42290   0.16180   0.98025   0.00000  Uiso   1.00
C787   C     0.62269   0.02141   0.76231   0.00000  Uiso   1.00
C788   C     0.37732   0.31192   0.73760   0.00000  Uiso   1.00
C789   C     0.62266   0.31205   0.76241   0.00000  Uiso   1.00
C790   C     0.37735   0.02129   0.73749   0.00000  Uiso   1.00
C791   C     0.66662   0.29050   0.74998   0.00000  Uiso   1.00
C792   C     0.33338   0.04284   0.74995   0.00000  Uiso   1.00
C793   C     0.51488   0.14319   0.77952   0.00000  Uiso   1.00
C794   C     0.48512   0.19015   0.72048   0.00000  Uiso   1.00
C795   C     0.46544   0.14245   0.77913   0.00000  Uiso   1.00
C796   C     0.53458   0.19084   0.72082   0.00000  Uiso   1.00
C797   C     0.63861   0.16610   0.83527   0.00000  Uiso   1.00
C798   C     0.36138   0.16622   0.66474   0.00000  Uiso   1.00
C799   C     0.62155   0.16223   0.88298   0.00000  Uiso   1.00
C800   C     0.37840   0.16240   0.61709   0.00000  Uiso   1.00
C801   C     0.63128   0.13539   0.95012   0.00000  Uiso   1.00
C802   C     0.36869   0.13544   0.55044   0.00000  Uiso   1.00
C803   C     0.64811   0.13925   0.90456   0.00000  Uiso   1.00
C804   C     0.35186   0.13942   0.59593   0.00000  Uiso   1.00
C805   C     0.57542   0.17662   0.90656   0.00000  Uiso   1.00
C806   C     0.42446   0.17682   0.59327   0.00000  Uiso   1.00
C807   C     0.55667   0.16947   0.95222   0.00000  Uiso   1.00
C808   C     0.44323   0.16955   0.54773   0.00000  Uiso   1.00
C809   C     0.58880   0.15566   0.97440   0.00000  Uiso   1.00
C810   C     0.41115   0.15561   0.52581   0.00000  Uiso   1.00
C811   C     0.50699   0.17258   0.97636   0.00000  Uiso   1.00
C812   C     0.49291   0.17265   0.52353   0.00000  Uiso   1.00
Cu813  Cu    0.38022   0.16667   0.75000   0.00000  Uiso   1.00
Cu814  Cu    0.61978   0.16666   0.75000   0.00000  Uiso   1.00
H815   H     0.44446   0.19443   0.61043   0.00000  Uiso   1.00
H816   H     0.55535   0.19415   0.88908   0.00000  Uiso   1.00
H817   H     0.65204   0.12399   0.61454   0.00000  Uiso   1.00
H818   H     0.34792   0.12375   0.88622   0.00000  Uiso   1.00
H819   H     0.58834   0.03759   0.77233   0.00000  Uiso   1.00
H820   H     0.41167   0.29575   0.72758   0.00000  Uiso   1.00
H821   H     0.58833   0.29597   0.77272   0.00000  Uiso   1.00
H822   H     0.41167   0.03736   0.72714   0.00000  Uiso   1.00
N823   N     0.45069   0.16668   0.74999   0.00000  Uiso   1.00
N824   N     0.54931   0.16666   0.75001   0.00000  Uiso   1.00
O825   O     0.37291   0.10655   0.75000   0.00000  Uiso   1.00
O826   O     0.62709   0.22678   0.75000   0.00000  Uiso   1.00
O827   O     0.62706   0.10654   0.75000   0.00000  Uiso   1.00
O828   O     0.37294   0.22679   0.74999   0.00000  Uiso   1.00
O829   O     0.35186   0.16668   0.81491   0.00000  Uiso   1.00
O830   O     0.64814   0.16666   0.68508   0.00000  Uiso   1.00
O831   O     0.60600   0.16667   0.81492   0.00000  Uiso   1.00
O832   O     0.39400   0.16667   0.68508   0.00000  Uiso   1.00
O833   O     0.61306   0.16374   0.53963   0.00000  Uiso   1.00
C834   C     0.61858   0.20529   0.55075   0.00000  Uiso   1.00
H835   H     0.58950   0.21429   0.58118   0.00000  Uiso   1.00
H836   H     0.61955   0.22716   0.52329   0.00000  Uiso   1.00
H837   H     0.65342   0.20874   0.55772   0.00000  Uiso   1.00
O838   O     0.38690   0.16359   0.96045   0.00000  Uiso   1.00
C839   C     0.38068   0.20530   0.94966   0.00000  Uiso   1.00
H840   H     0.41005   0.21519   0.91972   0.00000  Uiso   1.00
H841   H     0.37864   0.22656   0.97753   0.00000  Uiso   1.00
H842   H     0.34614   0.20860   0.94205   0.00000  Uiso   1.00
F843   F     0.65288   0.10753   0.96938   0.00000  Uiso   1.00
F844   F     0.34711   0.10756   0.53168   0.00000  Uiso   1.00
F845   F     0.51880   0.16776   0.58912   0.00000  Uiso   1.00
F846   F     0.48105   0.16754   0.91087   0.00000  Uiso   1.00
F847   F     0.52791   0.12074   0.81011   0.00000  Uiso   1.00
F848   F     0.47207   0.21264   0.68993   0.00000  Uiso   1.00
O849   O     0.43103   0.11914   0.80983   0.00000  Uiso   1.00
C850   C     0.44269   0.07677   0.80448   0.00000  Uiso   1.00
H851   H     0.40860   0.05881   0.81624   0.00000  Uiso   1.00
H852   H     0.46546   0.06754   0.82528   0.00000  Uiso   1.00
H853   H     0.46078   0.06799   0.76944   0.00000  Uiso   1.00
O854   O     0.56906   0.21401   0.69000   0.00000  Uiso   1.00
C855   C     0.55741   0.25642   0.69501   0.00000  Uiso   1.00
H856   H     0.59153   0.27435   0.68336   0.00000  Uiso   1.00
H857   H     0.53909   0.26540   0.72995   0.00000  Uiso   1.00
H858   H     0.53490   0.26549   0.67393   0.00000  Uiso   1.00
C859   C     0.66670   0.08754   0.74999   0.00000  Uiso   1.00
C860   C     0.99997   0.24580   0.74999   0.00000  Uiso   1.00
C861   C     0.86248   0.16957   0.54458   0.00000  Uiso   1.00
C862   C     0.80409   0.16936   0.95538   0.00000  Uiso   1.00
C863   C     0.91038   0.16202   0.51985   0.00000  Uiso   1.00
C864   C     0.75623   0.16180   0.98025   0.00000  Uiso   1.00
C865   C     0.95602   0.02141   0.76231   0.00000  Uiso   1.00
C866   C     0.71065   0.31192   0.73760   0.00000  Uiso   1.00
C867   C     0.95599   0.31205   0.76241   0.00000  Uiso   1.00
C868   C     0.71068   0.02129   0.73749   0.00000  Uiso   1.00
C869   C     0.99996   0.29050   0.74998   0.00000  Uiso   1.00
C870   C     0.66672   0.04284   0.74995   0.00000  Uiso   1.00
C871   C     0.84821   0.14319   0.77952   0.00000  Uiso   1.00
C872   C     0.81846   0.19015   0.72048   0.00000  Uiso   1.00
C873   C     0.79878   0.14245   0.77913   0.00000  Uiso   1.00
C874   C     0.86792   0.19084   0.72082   0.00000  Uiso   1.00
C875   C     0.97194   0.16610   0.83527   0.00000  Uiso   1.00
C876   C     0.69472   0.16622   0.66474   0.00000  Uiso   1.00
C877   C     0.95488   0.16223   0.88298   0.00000  Uiso   1.00
C878   C     0.71173   0.16240   0.61709   0.00000  Uiso   1.00
C879   C     0.96462   0.13539   0.95012   0.00000  Uiso   1.00
C880   C     0.70202   0.13544   0.55044   0.00000  Uiso   1.00
C881   C     0.98144   0.13925   0.90456   0.00000  Uiso   1.00
C882   C     0.68519   0.13942   0.59593   0.00000  Uiso   1.00
C883   C     0.90876   0.17662   0.90656   0.00000  Uiso   1.00
C884   C     0.75779   0.17682   0.59327   0.00000  Uiso   1.00
C885   C     0.89001   0.16947   0.95222   0.00000  Uiso   1.00
C886   C     0.77657   0.16955   0.54773   0.00000  Uiso   1.00
C887   C     0.92214   0.15566   0.97440   0.00000  Uiso   1.00
C888   C     0.74448   0.15561   0.52581   0.00000  Uiso   1.00
C889   C     0.84032   0.17258   0.97636   0.00000  Uiso   1.00
C890   C     0.82624   0.17265   0.52353   0.00000  Uiso   1.00
Cu891  Cu    0.71355   0.16667   0.75000   0.00000  Uiso   1.00
Cu892  Cu    0.95311   0.16666   0.75000   0.00000  Uiso   1.00
H893   H     0.77780   0.19443   0.61043   0.00000  Uiso   1.00
H894   H     0.88868   0.19415   0.88908   0.00000  Uiso   1.00
H895   H     0.98537   0.12399   0.61454   0.00000  Uiso   1.00
H896   H     0.68125   0.12375   0.88622   0.00000  Uiso   1.00
H897   H     0.92167   0.03759   0.77233   0.00000  Uiso   1.00
H898   H     0.74500   0.29575   0.72758   0.00000  Uiso   1.00
H899   H     0.92166   0.29597   0.77272   0.00000  Uiso   1.00
H900   H     0.74500   0.03736   0.72714   0.00000  Uiso   1.00
N901   N     0.78403   0.16668   0.74999   0.00000  Uiso   1.00
N902   N     0.88264   0.16666   0.75001   0.00000  Uiso   1.00
O903   O     0.70625   0.10655   0.75000   0.00000  Uiso   1.00
O904   O     0.96042   0.22678   0.75000   0.00000  Uiso   1.00
O905   O     0.96039   0.10654   0.75000   0.00000  Uiso   1.00
O906   O     0.70628   0.22679   0.74999   0.00000  Uiso   1.00
O907   O     0.68519   0.16668   0.81491   0.00000  Uiso   1.00
O908   O     0.98148   0.16666   0.68508   0.00000  Uiso   1.00
O909   O     0.93933   0.16667   0.81492   0.00000  Uiso   1.00
O910   O     0.72733   0.16667   0.68508   0.00000  Uiso   1.00
O911   O     0.94640   0.16374   0.53963   0.00000  Uiso   1.00
C912   C     0.95191   0.20529   0.55075   0.00000  Uiso   1.00
H913   H     0.92284   0.21429   0.58118   0.00000  Uiso   1.00
H914   H     0.95289   0.22716   0.52329   0.00000  Uiso   1.00
H915   H     0.98675   0.20874   0.55772   0.00000  Uiso   1.00
O916   O     0.72023   0.16359   0.96045   0.00000  Uiso   1.00
C917   C     0.71402   0.20530   0.94966   0.00000  Uiso   1.00
H918   H     0.74338   0.21519   0.91972   0.00000  Uiso   1.00
H919   H     0.71197   0.22656   0.97753   0.00000  Uiso   1.00
H920   H     0.67947   0.20860   0.94205   0.00000  Uiso   1.00
F921   F     0.98621   0.10753   0.96938   0.00000  Uiso   1.00
F922   F     0.68045   0.10756   0.53168   0.00000  Uiso   1.00
F923   F     0.85213   0.16776   0.58912   0.00000  Uiso   1.00
F924   F     0.81438   0.16754   0.91087   0.00000  Uiso   1.00
F925   F     0.86124   0.12074   0.81011   0.00000  Uiso   1.00
F926   F     0.80540   0.21264   0.68993   0.00000  Uiso   1.00
O927   O     0.76436   0.11914   0.80983   0.00000  Uiso   1.00
C928   C     0.77603   0.07677   0.80448   0.00000  Uiso   1.00
H929   H     0.74193   0.05881   0.81624   0.00000  Uiso   1.00
H930   H     0.79880   0.06754   0.82528   0.00000  Uiso   1.00
H931   H     0.79412   0.06799   0.76944   0.00000  Uiso   1.00
O932   O     0.90239   0.21401   0.69000   0.00000  Uiso   1.00
C933   C     0.89075   0.25642   0.69501   0.00000  Uiso   1.00
H934   H     0.92487   0.27435   0.68336   0.00000  Uiso   1.00
H935   H     0.87242   0.26540   0.72995   0.00000  Uiso   1.00
H936   H     0.86823   0.26549   0.67393   0.00000  Uiso   1.00
C937   C     0.00004   0.42087   0.74999   0.00000  Uiso   1.00
C938   C     0.33330   0.57913   0.74999   0.00000  Uiso   1.00
C939   C     0.19581   0.50290   0.54458   0.00000  Uiso   1.00
C940   C     0.13742   0.50269   0.95538   0.00000  Uiso   1.00
C941   C     0.24372   0.49535   0.51985   0.00000  Uiso   1.00
C942   C     0.08957   0.49513   0.98025   0.00000  Uiso   1.00
C943   C     0.28935   0.35475   0.76231   0.00000  Uiso   1.00
C944   C     0.04398   0.64525   0.73760   0.00000  Uiso   1.00
C945   C     0.28932   0.64538   0.76241   0.00000  Uiso   1.00
C946   C     0.04401   0.35462   0.73749   0.00000  Uiso   1.00
C947   C     0.33329   0.62383   0.74998   0.00000  Uiso   1.00
C948   C     0.00005   0.37617   0.74995   0.00000  Uiso   1.00
C949   C     0.18154   0.47652   0.77952   0.00000  Uiso   1.00
C950   C     0.15179   0.52349   0.72048   0.00000  Uiso   1.00
C951   C     0.13211   0.47578   0.77913   0.00000  Uiso   1.00
C952   C     0.20125   0.52418   0.72082   0.00000  Uiso   1.00
C953   C     0.30528   0.49943   0.83527   0.00000  Uiso   1.00
C954   C     0.02805   0.49956   0.66474   0.00000  Uiso   1.00
C955   C     0.28822   0.49556   0.88298   0.00000  Uiso   1.00
C956   C     0.04507   0.49573   0.61709   0.00000  Uiso   1.00
C957   C     0.29795   0.46872   0.95012   0.00000  Uiso   1.00
C958   C     0.03535   0.46877   0.55044   0.00000  Uiso   1.00
C959   C     0.31477   0.47259   0.90456   0.00000  Uiso   1.00
C960   C     0.01852   0.47275   0.59593   0.00000  Uiso   1.00
C961   C     0.24209   0.50996   0.90656   0.00000  Uiso   1.00
C962   C     0.09112   0.51015   0.59327   0.00000  Uiso   1.00
C963   C     0.22334   0.50281   0.95222   0.00000  Uiso   1.00
C964   C     0.10990   0.50288   0.54773   0.00000  Uiso   1.00
C965   C     0.25547   0.48899   0.97440   0.00000  Uiso   1.00
C966   C     0.07782   0.48895   0.52581   0.00000  Uiso   1.00
C967   C     0.17365   0.50591   0.97636   0.00000  Uiso   1.00
C968   C     0.15958   0.50599   0.52353   0.00000  Uiso   1.00
Cu969  Cu    0.04689   0.50001   0.75000   0.00000  Uiso   1.00
Cu970  Cu    0.28645   0.49999   0.75000   0.00000  Uiso   1.00
H971   H     0.11113   0.52776   0.61043   0.00000  Uiso   1.00
H972   H     0.22201   0.52749   0.88908   0.00000  Uiso   1.00
H973   H     0.31871   0.45733   0.61454   0.00000  Uiso   1.00
H974   H     0.01458   0.45708   0.88622   0.00000  Uiso   1.00
H975   H     0.25500   0.37092   0.77233   0.00000  Uiso   1.00
H976   H     0.07833   0.62908   0.72758   0.00000  Uiso   1.00
H977   H     0.25500   0.62930   0.77272   0.00000  Uiso   1.00
H978   H     0.07834   0.37070   0.72714   0.00000  Uiso   1.00
N979   N     0.11736   0.50001   0.74999   0.00000  Uiso   1.00
N980   N     0.21597   0.49999   0.75001   0.00000  Uiso   1.00
O981   O     0.03958   0.43989   0.75000   0.00000  Uiso   1.00
O982   O     0.29375   0.56011   0.75000   0.00000  Uiso   1.00
O983   O     0.29372   0.43988   0.75000   0.00000  Uiso   1.00
O984   O     0.03961   0.56012   0.74999   0.00000  Uiso   1.00
O985   O     0.01852   0.50001   0.81491   0.00000  Uiso   1.00
O986   O     0.31481   0.49999   0.68508   0.00000  Uiso   1.00
O987   O     0.27267   0.50000   0.81492   0.00000  Uiso   1.00
O988   O     0.06067   0.50000   0.68508   0.00000  Uiso   1.00
O989   O     0.27973   0.49708   0.53963   0.00000  Uiso   1.00
C990   C     0.28524   0.53862   0.55075   0.00000  Uiso   1.00
H991   H     0.25617   0.54762   0.58118   0.00000  Uiso   1.00
H992   H     0.28622   0.56050   0.52329   0.00000  Uiso   1.00
H993   H     0.32009   0.54208   0.55772   0.00000  Uiso   1.00
O994   O     0.05356   0.49692   0.96045   0.00000  Uiso   1.00
C995   C     0.04735   0.53863   0.94966   0.00000  Uiso   1.00
H996   H     0.07672   0.54853   0.91972   0.00000  Uiso   1.00
H997   H     0.04530   0.55990   0.97753   0.00000  Uiso   1.00
H998   H     0.01281   0.54193   0.94205   0.00000  Uiso   1.00
F999   F     0.31954   0.44087   0.96938   0.00000  Uiso   1.00
F1000  F     0.01378   0.44089   0.53168   0.00000  Uiso   1.00
F1001  F     0.18547   0.50110   0.58912   0.00000  Uiso   1.00
F1002  F     0.14772   0.50087   0.91087   0.00000  Uiso   1.00
F1003  F     0.19458   0.45407   0.81011   0.00000  Uiso   1.00
F1004  F     0.13873   0.54597   0.68993   0.00000  Uiso   1.00
O1005  O     0.09770   0.45248   0.80983   0.00000  Uiso   1.00
C1006  C     0.10936   0.41010   0.80448   0.00000  Uiso   1.00
H1007  H     0.07527   0.39214   0.81624   0.00000  Uiso   1.00
H1008  H     0.13213   0.40087   0.82528   0.00000  Uiso   1.00
H1009  H     0.12745   0.40132   0.76944   0.00000  Uiso   1.00
O1010  O     0.23572   0.54735   0.69000   0.00000  Uiso   1.00
C1011  C     0.22408   0.58975   0.69501   0.00000  Uiso   1.00
H1012  H     0.25820   0.60768   0.68336   0.00000  Uiso   1.00
H1013  H     0.20575   0.59873   0.72995   0.00000  Uiso   1.00
H1014  H     0.20157   0.59883   0.67393   0.00000  Uiso   1.00
C1015  C     0.33337   0.42087   0.74999   0.00000  Uiso   1.00
C1016  C     0.66663   0.57913   0.74999   0.00000  Uiso   1.00
C1017  C     0.52915   0.50290   0.54458   0.00000  Uiso   1.00
C1018  C     0.47076   0.50269   0.95538   0.00000  Uiso   1.00
C1019  C     0.57705   0.49535   0.51985   0.00000  Uiso   1.00
C1020  C     0.42290   0.49513   0.98025   0.00000  Uiso   1.00
C1021  C     0.62269   0.35475   0.76231   0.00000  Uiso   1.00
C1022  C     0.37732   0.64525   0.73760   0.00000  Uiso   1.00
C1023  C     0.62266   0.64538   0.76241   0.00000  Uiso   1.00
C1024  C     0.37735   0.35462   0.73749   0.00000  Uiso   1.00
C1025  C     0.66662   0.62383   0.74998   0.00000  Uiso   1.00
C1026  C     0.33338   0.37617   0.74995   0.00000  Uiso   1.00
C1027  C     0.51488   0.47652   0.77952   0.00000  Uiso   1.00
C1028  C     0.48512   0.52349   0.72048   0.00000  Uiso   1.00
C1029  C     0.46544   0.47578   0.77913   0.00000  Uiso   1.00
C1030  C     0.53458   0.52418   0.72082   0.00000  Uiso   1.00
C1031  C     0.63861   0.49943   0.83527   0.00000  Uiso   1.00
C1032  C     0.36138   0.49956   0.66474   0.00000  Uiso   1.00
C1033  C     0.62155   0.49556   0.88298   0.00000  Uiso   1.00
C1034  C     0.37840   0.49573   0.61709   0.00000  Uiso   1.00
C1035  C     0.63128   0.46872   0.95012   0.00000  Uiso   1.00
C1036  C     0.36869   0.46877   0.55044   0.00000  Uiso   1.00
C1037  C     0.64811   0.47259   0.90456   0.00000  Uiso   1.00
C1038  C     0.35186   0.47275   0.59593   0.00000  Uiso   1.00
C1039  C     0.57542   0.50996   0.90656   0.00000  Uiso   1.00
C1040  C     0.42446   0.51015   0.59327   0.00000  Uiso   1.00
C1041  C     0.55667   0.50281   0.95222   0.00000  Uiso   1.00
C1042  C     0.44323   0.50288   0.54773   0.00000  Uiso   1.00
C1043  C     0.58880   0.48899   0.97440   0.00000  Uiso   1.00
C1044  C     0.41115   0.48895   0.52581   0.00000  Uiso   1.00
C1045  C     0.50699   0.50591   0.97636   0.00000  Uiso   1.00
C1046  C     0.49291   0.50599   0.52353   0.00000  Uiso   1.00
Cu1047 Cu    0.38022   0.50001   0.75000   0.00000  Uiso   1.00
Cu1048 Cu    0.61978   0.49999   0.75000   0.00000  Uiso   1.00
H1049  H     0.44446   0.52776   0.61043   0.00000  Uiso   1.00
H1050  H     0.55535   0.52749   0.88908   0.00000  Uiso   1.00
H1051  H     0.65204   0.45733   0.61454   0.00000  Uiso   1.00
H1052  H     0.34792   0.45708   0.88622   0.00000  Uiso   1.00
H1053  H     0.58834   0.37092   0.77233   0.00000  Uiso   1.00
H1054  H     0.41167   0.62908   0.72758   0.00000  Uiso   1.00
H1055  H     0.58833   0.62930   0.77272   0.00000  Uiso   1.00
H1056  H     0.41167   0.37070   0.72714   0.00000  Uiso   1.00
N1057  N     0.45069   0.50001   0.74999   0.00000  Uiso   1.00
N1058  N     0.54931   0.49999   0.75001   0.00000  Uiso   1.00
O1059  O     0.37291   0.43989   0.75000   0.00000  Uiso   1.00
O1060  O     0.62709   0.56011   0.75000   0.00000  Uiso   1.00
O1061  O     0.62706   0.43988   0.75000   0.00000  Uiso   1.00
O1062  O     0.37294   0.56012   0.74999   0.00000  Uiso   1.00
O1063  O     0.35186   0.50001   0.81491   0.00000  Uiso   1.00
O1064  O     0.64814   0.49999   0.68508   0.00000  Uiso   1.00
O1065  O     0.60600   0.50000   0.81492   0.00000  Uiso   1.00
O1066  O     0.39400   0.50000   0.68508   0.00000  Uiso   1.00
O1067  O     0.61306   0.49708   0.53963   0.00000  Uiso   1.00
C1068  C     0.61858   0.53862   0.55075   0.00000  Uiso   1.00
H1069  H     0.58950   0.54762   0.58118   0.00000  Uiso   1.00
H1070  H     0.61955   0.56050   0.52329   0.00000  Uiso   1.00
H1071  H     0.65342   0.54208   0.55772   0.00000  Uiso   1.00
O1072  O     0.38690   0.49692   0.96045   0.00000  Uiso   1.00
C1073  C     0.38068   0.53863   0.94966   0.00000  Uiso   1.00
H1074  H     0.41005   0.54853   0.91972   0.00000  Uiso   1.00
H1075  H     0.37864   0.55990   0.97753   0.00000  Uiso   1.00
H1076  H     0.34614   0.54193   0.94205   0.00000  Uiso   1.00
F1077  F     0.65288   0.44087   0.96938   0.00000  Uiso   1.00
F1078  F     0.34711   0.44089   0.53168   0.00000  Uiso   1.00
F1079  F     0.51880   0.50110   0.58912   0.00000  Uiso   1.00
F1080  F     0.48105   0.50087   0.91087   0.00000  Uiso   1.00
F1081  F     0.52791   0.45407   0.81011   0.00000  Uiso   1.00
F1082  F     0.47207   0.54597   0.68993   0.00000  Uiso   1.00
O1083  O     0.43103   0.45248   0.80983   0.00000  Uiso   1.00
C1084  C     0.44269   0.41010   0.80448   0.00000  Uiso   1.00
H1085  H     0.40860   0.39214   0.81624   0.00000  Uiso   1.00
H1086  H     0.46546   0.40087   0.82528   0.00000  Uiso   1.00
H1087  H     0.46078   0.40132   0.76944   0.00000  Uiso   1.00
O1088  O     0.56906   0.54735   0.69000   0.00000  Uiso   1.00
C1089  C     0.55741   0.58975   0.69501   0.00000  Uiso   1.00
H1090  H     0.59153   0.60768   0.68336   0.00000  Uiso   1.00
H1091  H     0.53909   0.59873   0.72995   0.00000  Uiso   1.00
H1092  H     0.53490   0.59883   0.67393   0.00000  Uiso   1.00
C1093  C     0.66670   0.42087   0.74999   0.00000  Uiso   1.00
C1094  C     0.99997   0.57913   0.74999   0.00000  Uiso   1.00
C1095  C     0.86248   0.50290   0.54458   0.00000  Uiso   1.00
C1096  C     0.80409   0.50269   0.95538   0.00000  Uiso   1.00
C1097  C     0.91038   0.49535   0.51985   0.00000  Uiso   1.00
C1098  C     0.75623   0.49513   0.98025   0.00000  Uiso   1.00
C1099  C     0.95602   0.35475   0.76231   0.00000  Uiso   1.00
C1100  C     0.71065   0.64525   0.73760   0.00000  Uiso   1.00
C1101  C     0.95599   0.64538   0.76241   0.00000  Uiso   1.00
C1102  C     0.71068   0.35462   0.73749   0.00000  Uiso   1.00
C1103  C     0.99996   0.62383   0.74998   0.00000  Uiso   1.00
C1104  C     0.66672   0.37617   0.74995   0.00000  Uiso   1.00
C1105  C     0.84821   0.47652   0.77952   0.00000  Uiso   1.00
C1106  C     0.81846   0.52349   0.72048   0.00000  Uiso   1.00
C1107  C     0.79878   0.47578   0.77913   0.00000  Uiso   1.00
C1108  C     0.86792   0.52418   0.72082   0.00000  Uiso   1.00
C1109  C     0.97194   0.49943   0.83527   0.00000  Uiso   1.00
C1110  C     0.69472   0.49956   0.66474   0.00000  Uiso   1.00
C1111  C     0.95488   0.49556   0.88298   0.00000  Uiso   1.00
C1112  C     0.71173   0.49573   0.61709   0.00000  Uiso   1.00
C1113  C     0.96462   0.46872   0.95012   0.00000  Uiso   1.00
C1114  C     0.70202   0.46877   0.55044   0.00000  Uiso   1.00
C1115  C     0.98144   0.47259   0.90456   0.00000  Uiso   1.00
C1116  C     0.68519   0.47275   0.59593   0.00000  Uiso   1.00
C1117  C     0.90876   0.50996   0.90656   0.00000  Uiso   1.00
C1118  C     0.75779   0.51015   0.59327   0.00000  Uiso   1.00
C1119  C     0.89001   0.50281   0.95222   0.00000  Uiso   1.00
C1120  C     0.77657   0.50288   0.54773   0.00000  Uiso   1.00
C1121  C     0.92214   0.48899   0.97440   0.00000  Uiso   1.00
C1122  C     0.74448   0.48895   0.52581   0.00000  Uiso   1.00
C1123  C     0.84032   0.50591   0.97636   0.00000  Uiso   1.00
C1124  C     0.82624   0.50599   0.52353   0.00000  Uiso   1.00
Cu1125 Cu    0.71355   0.50001   0.75000   0.00000  Uiso   1.00
Cu1126 Cu    0.95311   0.49999   0.75000   0.00000  Uiso   1.00
H1127  H     0.77780   0.52776   0.61043   0.00000  Uiso   1.00
H1128  H     0.88868   0.52749   0.88908   0.00000  Uiso   1.00
H1129  H     0.98537   0.45733   0.61454   0.00000  Uiso   1.00
H1130  H     0.68125   0.45708   0.88622   0.00000  Uiso   1.00
H1131  H     0.92167   0.37092   0.77233   0.00000  Uiso   1.00
H1132  H     0.74500   0.62908   0.72758   0.00000  Uiso   1.00
H1133  H     0.92166   0.62930   0.77272   0.00000  Uiso   1.00
H1134  H     0.74500   0.37070   0.72714   0.00000  Uiso   1.00
N1135  N     0.78403   0.50001   0.74999   0.00000  Uiso   1.00
N1136  N     0.88264   0.49999   0.75001   0.00000  Uiso   1.00
O1137  O     0.70625   0.43989   0.75000   0.00000  Uiso   1.00
O1138  O     0.96042   0.56011   0.75000   0.00000  Uiso   1.00
O1139  O     0.96039   0.43988   0.75000   0.00000  Uiso   1.00
O1140  O     0.70628   0.56012   0.74999   0.00000  Uiso   1.00
O1141  O     0.68519   0.50001   0.81491   0.00000  Uiso   1.00
O1142  O     0.98148   0.49999   0.68508   0.00000  Uiso   1.00
O1143  O     0.93933   0.50000   0.81492   0.00000  Uiso   1.00
O1144  O     0.72733   0.50000   0.68508   0.00000  Uiso   1.00
O1145  O     0.94640   0.49708   0.53963   0.00000  Uiso   1.00
C1146  C     0.95191   0.53862   0.55075   0.00000  Uiso   1.00
H1147  H     0.92284   0.54762   0.58118   0.00000  Uiso   1.00
H1148  H     0.95289   0.56050   0.52329   0.00000  Uiso   1.00
H1149  H     0.98675   0.54208   0.55772   0.00000  Uiso   1.00
O1150  O     0.72023   0.49692   0.96045   0.00000  Uiso   1.00
C1151  C     0.71402   0.53863   0.94966   0.00000  Uiso   1.00
H1152  H     0.74338   0.54853   0.91972   0.00000  Uiso   1.00
H1153  H     0.71197   0.55990   0.97753   0.00000  Uiso   1.00
H1154  H     0.67947   0.54193   0.94205   0.00000  Uiso   1.00
F1155  F     0.98621   0.44087   0.96938   0.00000  Uiso   1.00
F1156  F     0.68045   0.44089   0.53168   0.00000  Uiso   1.00
F1157  F     0.85213   0.50110   0.58912   0.00000  Uiso   1.00
F1158  F     0.81438   0.50087   0.91087   0.00000  Uiso   1.00
F1159  F     0.86124   0.45407   0.81011   0.00000  Uiso   1.00
F1160  F     0.80540   0.54597   0.68993   0.00000  Uiso   1.00
O1161  O     0.76436   0.45248   0.80983   0.00000  Uiso   1.00
C1162  C     0.77603   0.41010   0.80448   0.00000  Uiso   1.00
H1163  H     0.74193   0.39214   0.81624   0.00000  Uiso   1.00
H1164  H     0.79880   0.40087   0.82528   0.00000  Uiso   1.00
H1165  H     0.79412   0.40132   0.76944   0.00000  Uiso   1.00
O1166  O     0.90239   0.54735   0.69000   0.00000  Uiso   1.00
C1167  C     0.89075   0.58975   0.69501   0.00000  Uiso   1.00
H1168  H     0.92487   0.60768   0.68336   0.00000  Uiso   1.00
H1169  H     0.87242   0.59873   0.72995   0.00000  Uiso   1.00
H1170  H     0.86823   0.59883   0.67393   0.00000  Uiso   1.00
C1171  C     0.00004   0.75420   0.74999   0.00000  Uiso   1.00
C1172  C     0.33330   0.91246   0.74999   0.00000  Uiso   1.00
C1173  C     0.19581   0.83624   0.54458   0.00000  Uiso   1.00
C1174  C     0.13742   0.83602   0.95538   0.00000  Uiso   1.00
C1175  C     0.24372   0.82869   0.51985   0.00000  Uiso   1.00
C1176  C     0.08957   0.82847   0.98025   0.00000  Uiso   1.00
C1177  C     0.28935   0.68808   0.76231   0.00000  Uiso   1.00
C1178  C     0.04398   0.97859   0.73760   0.00000  Uiso   1.00
C1179  C     0.28932   0.97871   0.76241   0.00000  Uiso   1.00
C1180  C     0.04401   0.68795   0.73749   0.00000  Uiso   1.00
C1181  C     0.33329   0.95716   0.74998   0.00000  Uiso   1.00
C1182  C     0.00005   0.70950   0.74995   0.00000  Uiso   1.00
C1183  C     0.18154   0.80986   0.77952   0.00000  Uiso   1.00
C1184  C     0.15179   0.85682   0.72048   0.00000  Uiso   1.00
C1185  C     0.13211   0.80912   0.77913   0.00000  Uiso   1.00
C1186  C     0.20125   0.85751   0.72082   0.00000  Uiso   1.00
C1187  C     0.30528   0.83277   0.83527   0.00000  Uiso   1.00
C1188  C     0.02805   0.83289   0.66474   0.00000  Uiso   1.00
C1189  C     0.28822   0.82889   0.88298   0.00000  Uiso   1.00
C1190  C     0.04507   0.82907   0.61709   0.00000  Uiso   1.00
C1191  C     0.29795   0.80205   0.95012   0.00000  Uiso   1.00
C1192  C     0.03535   0.80210   0.55044   0.00000  Uiso   1.00
C1193  C     0.31477   0.80592   0.90456   0.00000  Uiso   1.00
C1194  C     0.01852   0.80608   0.59593   0.00000  Uiso   1.00
C1195  C     0.24209   0.84329   0.90656   0.00000  Uiso   1.00
C1196  C     0.09112   0.84348   0.59327   0.00000  Uiso   1.00
C1197  C     0.22334   0.83614   0.95222   0.00000  Uiso   1.00
C1198  C     0.10990   0.83621   0.54773   0.00000  Uiso   1.00
C1199  C     0.25547   0.82232   0.97440   0.00000  Uiso   1.00
C1200  C     0.07782   0.82228   0.52581   0.00000  Uiso   1.00
C1201  C     0.17365   0.83925   0.97636   0.00000  Uiso   1.00
C1202  C     0.15958   0.83932   0.52353   0.00000  Uiso   1.00
Cu1203 Cu    0.04689   0.83334   0.75000   0.00000  Uiso   1.00
Cu1204 Cu    0.28645   0.83333   0.75000   0.00000  Uiso   1.00
H1205  H     0.11113   0.86110   0.61043   0.00000  Uiso   1.00
H1206  H     0.22201   0.86082   0.88908   0.00000  Uiso   1.00
H1207  H     0.31871   0.79066   0.61454   0.00000  Uiso   1.00
H1208  H     0.01458   0.79042   0.88622   0.00000  Uiso   1.00
H1209  H     0.25500   0.70425   0.77233   0.00000  Uiso   1.00
H1210  H     0.07833   0.96241   0.72758   0.00000  Uiso   1.00
H1211  H     0.25500   0.96264   0.77272   0.00000  Uiso   1.00
H1212  H     0.07834   0.70403   0.72714   0.00000  Uiso   1.00
N1213  N     0.11736   0.83334   0.74999   0.00000  Uiso   1.00
N1214  N     0.21597   0.83332   0.75001   0.00000  Uiso   1.00
O1215  O     0.03958   0.77322   0.75000   0.00000  Uiso   1.00
O1216  O     0.29375   0.89345   0.75000   0.00000  Uiso   1.00
O1217  O     0.29372   0.77321   0.75000   0.00000  Uiso   1.00
O1218  O     0.03961   0.89346   0.74999   0.00000  Uiso   1.00
O1219  O     0.01852   0.83334   0.81491   0.00000  Uiso   1.00
O1220  O     0.31481   0.83332   0.68508   0.00000  Uiso   1.00
O1221  O     0.27267   0.83333   0.81492   0.00000  Uiso   1.00
O1222  O     0.06067   0.83333   0.68508   0.00000  Uiso   1.00
O1223  O     0.27973   0.83041   0.53963   0.00000  Uiso   1.00
C1224  C     0.28524   0.87196   0.55075   0.00000  Uiso   1.00
H1225  H     0.25617   0.88095   0.58118   0.00000  Uiso   1.00
H1226  H     0.28622   0.89383   0.52329   0.00000  Uiso   1.00
H1227  H     0.32009   0.87541   0.55772   0.00000  Uiso   1.00
O1228  O     0.05356   0.83026   0.96045   0.00000  Uiso   1.00
C1229  C     0.04735   0.87196   0.94966   0.00000  Uiso   1.00
H1230  H     0.07672   0.88186   0.91972   0.00000  Uiso   1.00
H1231  H     0.04530   0.89323   0.97753   0.00000  Uiso   1.00
H1232  H     0.01281   0.87527   0.94205   0.00000  Uiso   1.00
F1233  F     0.31954   0.77420   0.96938   0.00000  Uiso   1.00
F1234  F     0.01378   0.77423   0.53168   0.00000  Uiso   1.00
F1235  F     0.18547   0.83443   0.58912   0.00000  Uiso   1.00
F1236  F     0.14772   0.83420   0.91087   0.00000  Uiso   1.00
F1237  F     0.19458   0.78741   0.81011   0.00000  Uiso   1.00
F1238  F     0.13873   0.87930   0.68993   0.00000  Uiso   1.00
O1239  O     0.09770   0.78581   0.80983   0.00000  Uiso   1.00
C1240  C     0.10936   0.74343   0.80448   0.00000  Uiso   1.00
H1241  H     0.07527   0.72547   0.81624   0.00000  Uiso   1.00
H1242  H     0.13213   0.73421   0.82528   0.00000  Uiso   1.00
H1243  H     0.12745   0.73465   0.76944   0.00000  Uiso   1.00
O1244  O     0.23572   0.88068   0.69000   0.00000  Uiso   1.00
C1245  C     0.22408   0.92308   0.69501   0.00000  Uiso   1.00
H1246  H     0.25820   0.94101   0.68336   0.00000  Uiso   1.00
H1247  H     0.20575   0.93206   0.72995   0.00000  Uiso   1.00
H1248  H     0.20157   0.93216   0.67393   0.00000  Uiso   1.00
C1249  C     0.33337   0.75420   0.74999   0.00000  Uiso   1.00
C1250  C     0.66663   0.91246   0.74999   0.00000  Uiso   1.00
C1251  C     0.52915   0.83624   0.54458   0.00000  Uiso   1.00
C1252  C     0.47076   0.83602   0.95538   0.00000  Uiso   1.00
C1253  C     0.57705   0.82869   0.51985   0.00000  Uiso   1.00
C1254  C     0.42290   0.82847   0.98025   0.00000  Uiso   1.00
C1255  C     0.62269   0.68808   0.76231   0.00000  Uiso   1.00
C1256  C     0.37732   0.97859   0.73760   0.00000  Uiso   1.00
C1257  C     0.62266   0.97871   0.76241   0.00000  Uiso   1.00
C1258  C     0.37735   0.68795   0.73749   0.00000  Uiso   1.00
C1259  C     0.66662   0.95716   0.74998   0.00000  Uiso   1.00
C1260  C     0.33338   0.70950   0.74995   0.00000  Uiso   1.00
C1261  C     0.51488   0.80986   0.77952   0.00000  Uiso   1.00
C1262  C     0.48512   0.85682   0.72048   0.00000  Uiso   1.00
C1263  C     0.46544   0.80912   0.77913   0.00000  Uiso   1.00
C1264  C     0.53458   0.85751   0.72082   0.00000  Uiso   1.00
C1265  C     0.63861   0.83277   0.83527   0.00000  Uiso   1.00
C1266  C     0.36138   0.83289   0.66474   0.00000  Uiso   1.00
C1267  C     0.62155   0.82889   0.88298   0.00000  Uiso   1.00
C1268  C     0.37840   0.82907   0.61709   0.00000  Uiso   1.00
C1269  C     0.63128   0.80205   0.95012   0.00000  Uiso   1.00
C1270  C     0.36869   0.80210   0.55044   0.00000  Uiso   1.00
C1271  C     0.64811   0.80592   0.90456   0.00000  Uiso   1.00
C1272  C     0.35186   0.80608   0.59593   0.00000  Uiso   1.00
C1273  C     0.57542   0.84329   0.90656   0.00000  Uiso   1.00
C1274  C     0.42446   0.84348   0.59327   0.00000  Uiso   1.00
C1275  C     0.55667   0.83614   0.95222   0.00000  Uiso   1.00
C1276  C     0.44323   0.83621   0.54773   0.00000  Uiso   1.00
C1277  C     0.58880   0.82232   0.97440   0.00000  Uiso   1.00
C1278  C     0.41115   0.82228   0.52581   0.00000  Uiso   1.00
C1279  C     0.50699   0.83925   0.97636   0.00000  Uiso   1.00
C1280  C     0.49291   0.83932   0.52353   0.00000  Uiso   1.00
Cu1281 Cu    0.38022   0.83334   0.75000   0.00000  Uiso   1.00
Cu1282 Cu    0.61978   0.83333   0.75000   0.00000  Uiso   1.00
H1283  H     0.44446   0.86110   0.61043   0.00000  Uiso   1.00
H1284  H     0.55535   0.86082   0.88908   0.00000  Uiso   1.00
H1285  H     0.65204   0.79066   0.61454   0.00000  Uiso   1.00
H1286  H     0.34792   0.79042   0.88622   0.00000  Uiso   1.00
H1287  H     0.58834   0.70425   0.77233   0.00000  Uiso   1.00
H1288  H     0.41167   0.96241   0.72758   0.00000  Uiso   1.00
H1289  H     0.58833   0.96264   0.77272   0.00000  Uiso   1.00
H1290  H     0.41167   0.70403   0.72714   0.00000  Uiso   1.00
N1291  N     0.45069   0.83334   0.74999   0.00000  Uiso   1.00
N1292  N     0.54931   0.83332   0.75001   0.00000  Uiso   1.00
O1293  O     0.37291   0.77322   0.75000   0.00000  Uiso   1.00
O1294  O     0.62709   0.89345   0.75000   0.00000  Uiso   1.00
O1295  O     0.62706   0.77321   0.75000   0.00000  Uiso   1.00
O1296  O     0.37294   0.89346   0.74999   0.00000  Uiso   1.00
O1297  O     0.35186   0.83334   0.81491   0.00000  Uiso   1.00
O1298  O     0.64814   0.83332   0.68508   0.00000  Uiso   1.00
O1299  O     0.60600   0.83333   0.81492   0.00000  Uiso   1.00
O1300  O     0.39400   0.83333   0.68508   0.00000  Uiso   1.00
O1301  O     0.61306   0.83041   0.53963   0.00000  Uiso   1.00
C1302  C     0.61858   0.87196   0.55075   0.00000  Uiso   1.00
H1303  H     0.58950   0.88095   0.58118   0.00000  Uiso   1.00
H1304  H     0.61955   0.89383   0.52329   0.00000  Uiso   1.00
H1305  H     0.65342   0.87541   0.55772   0.00000  Uiso   1.00
O1306  O     0.38690   0.83026   0.96045   0.00000  Uiso   1.00
C1307  C     0.38068   0.87196   0.94966   0.00000  Uiso   1.00
H1308  H     0.41005   0.88186   0.91972   0.00000  Uiso   1.00
H1309  H     0.37864   0.89323   0.97753   0.00000  Uiso   1.00
H1310  H     0.34614   0.87527   0.94205   0.00000  Uiso   1.00
F1311  F     0.65288   0.77420   0.96938   0.00000  Uiso   1.00
F1312  F     0.34711   0.77423   0.53168   0.00000  Uiso   1.00
F1313  F     0.51880   0.83443   0.58912   0.00000  Uiso   1.00
F1314  F     0.48105   0.83420   0.91087   0.00000  Uiso   1.00
F1315  F     0.52791   0.78741   0.81011   0.00000  Uiso   1.00
F1316  F     0.47207   0.87930   0.68993   0.00000  Uiso   1.00
O1317  O     0.43103   0.78581   0.80983   0.00000  Uiso   1.00
C1318  C     0.44269   0.74343   0.80448   0.00000  Uiso   1.00
H1319  H     0.40860   0.72547   0.81624   0.00000  Uiso   1.00
H1320  H     0.46546   0.73421   0.82528   0.00000  Uiso   1.00
H1321  H     0.46078   0.73465   0.76944   0.00000  Uiso   1.00
O1322  O     0.56906   0.88068   0.69000   0.00000  Uiso   1.00
C1323  C     0.55741   0.92308   0.69501   0.00000  Uiso   1.00
H1324  H     0.59153   0.94101   0.68336   0.00000  Uiso   1.00
H1325  H     0.53909   0.93206   0.72995   0.00000  Uiso   1.00
H1326  H     0.53490   0.93216   0.67393   0.00000  Uiso   1.00
C1327  C     0.66670   0.75420   0.74999   0.00000  Uiso   1.00
C1328  C     0.99997   0.91246   0.74999   0.00000  Uiso   1.00
C1329  C     0.86248   0.83624   0.54458   0.00000  Uiso   1.00
C1330  C     0.80409   0.83602   0.95538   0.00000  Uiso   1.00
C1331  C     0.91038   0.82869   0.51985   0.00000  Uiso   1.00
C1332  C     0.75623   0.82847   0.98025   0.00000  Uiso   1.00
C1333  C     0.95602   0.68808   0.76231   0.00000  Uiso   1.00
C1334  C     0.71065   0.97859   0.73760   0.00000  Uiso   1.00
C1335  C     0.95599   0.97871   0.76241   0.00000  Uiso   1.00
C1336  C     0.71068   0.68795   0.73749   0.00000  Uiso   1.00
C1337  C     0.99996   0.95716   0.74998   0.00000  Uiso   1.00
C1338  C     0.66672   0.70950   0.74995   0.00000  Uiso   1.00
C1339  C     0.84821   0.80986   0.77952   0.00000  Uiso   1.00
C1340  C     0.81846   0.85682   0.72048   0.00000  Uiso   1.00
C1341  C     0.79878   0.80912   0.77913   0.00000  Uiso   1.00
C1342  C     0.86792   0.85751   0.72082   0.00000  Uiso   1.00
C1343  C     0.97194   0.83277   0.83527   0.00000  Uiso   1.00
C1344  C     0.69472   0.83289   0.66474   0.00000  Uiso   1.00
C1345  C     0.95488   0.82889   0.88298   0.00000  Uiso   1.00
C1346  C     0.71173   0.82907   0.61709   0.00000  Uiso   1.00
C1347  C     0.96462   0.80205   0.95012   0.00000  Uiso   1.00
C1348  C     0.70202   0.80210   0.55044   0.00000  Uiso   1.00
C1349  C     0.98144   0.80592   0.90456   0.00000  Uiso   1.00
C1350  C     0.68519   0.80608   0.59593   0.00000  Uiso   1.00
C1351  C     0.90876   0.84329   0.90656   0.00000  Uiso   1.00
C1352  C     0.75779   0.84348   0.59327   0.00000  Uiso   1.00
C1353  C     0.89001   0.83614   0.95222   0.00000  Uiso   1.00
C1354  C     0.77657   0.83621   0.54773   0.00000  Uiso   1.00
C1355  C     0.92214   0.82232   0.97440   0.00000  Uiso   1.00
C1356  C     0.74448   0.82228   0.52581   0.00000  Uiso   1.00
C1357  C     0.84032   0.83925   0.97636   0.00000  Uiso   1.00
C1358  C     0.82624   0.83932   0.52353   0.00000  Uiso   1.00
Cu1359 Cu    0.71355   0.83334   0.75000   0.00000  Uiso   1.00
Cu1360 Cu    0.95311   0.83333   0.75000   0.00000  Uiso   1.00
H1361  H     0.77780   0.86110   0.61043   0.00000  Uiso   1.00
H1362  H     0.88868   0.86082   0.88908   0.00000  Uiso   1.00
H1363  H     0.98537   0.79066   0.61454   0.00000  Uiso   1.00
H1364  H     0.68125   0.79042   0.88622   0.00000  Uiso   1.00
H1365  H     0.92167   0.70425   0.77233   0.00000  Uiso   1.00
H1366  H     0.74500   0.96241   0.72758   0.00000  Uiso   1.00
H1367  H     0.92166   0.96264   0.77272   0.00000  Uiso   1.00
H1368  H     0.74500   0.70403   0.72714   0.00000  Uiso   1.00
N1369  N     0.78403   0.83334   0.74999   0.00000  Uiso   1.00
N1370  N     0.88264   0.83332   0.75001   0.00000  Uiso   1.00
O1371  O     0.70625   0.77322   0.75000   0.00000  Uiso   1.00
O1372  O     0.96042   0.89345   0.75000   0.00000  Uiso   1.00
O1373  O     0.96039   0.77321   0.75000   0.00000  Uiso   1.00
O1374  O     0.70628   0.89346   0.74999   0.00000  Uiso   1.00
O1375  O     0.68519   0.83334   0.81491   0.00000  Uiso   1.00
O1376  O     0.98148   0.83332   0.68508   0.00000  Uiso   1.00
O1377  O     0.93933   0.83333   0.81492   0.00000  Uiso   1.00
O1378  O     0.72733   0.83333   0.68508   0.00000  Uiso   1.00
O1379  O     0.94640   0.83041   0.53963   0.00000  Uiso   1.00
C1380  C     0.95191   0.87196   0.55075   0.00000  Uiso   1.00
H1381  H     0.92284   0.88095   0.58118   0.00000  Uiso   1.00
H1382  H     0.95289   0.89383   0.52329   0.00000  Uiso   1.00
H1383  H     0.98675   0.87541   0.55772   0.00000  Uiso   1.00
O1384  O     0.72023   0.83026   0.96045   0.00000  Uiso   1.00
C1385  C     0.71402   0.87196   0.94966   0.00000  Uiso   1.00
H1386  H     0.74338   0.88186   0.91972   0.00000  Uiso   1.00
H1387  H     0.71197   0.89323   0.97753   0.00000  Uiso   1.00
H1388  H     0.67947   0.87527   0.94205   0.00000  Uiso   1.00
F1389  F     0.98621   0.77420   0.96938   0.00000  Uiso   1.00
F1390  F     0.68045   0.77423   0.53168   0.00000  Uiso   1.00
F1391  F     0.85213   0.83443   0.58912   0.00000  Uiso   1.00
F1392  F     0.81438   0.83420   0.91087   0.00000  Uiso   1.00
F1393  F     0.86124   0.78741   0.81011   0.00000  Uiso   1.00
F1394  F     0.80540   0.87930   0.68993   0.00000  Uiso   1.00
O1395  O     0.76436   0.78581   0.80983   0.00000  Uiso   1.00
C1396  C     0.77603   0.74343   0.80448   0.00000  Uiso   1.00
H1397  H     0.74193   0.72547   0.81624   0.00000  Uiso   1.00
H1398  H     0.79880   0.73421   0.82528   0.00000  Uiso   1.00
H1399  H     0.79412   0.73465   0.76944   0.00000  Uiso   1.00
O1400  O     0.90239   0.88068   0.69000   0.00000  Uiso   1.00
C1401  C     0.89075   0.92308   0.69501   0.00000  Uiso   1.00
H1402  H     0.92487   0.94101   0.68336   0.00000  Uiso   1.00
H1403  H     0.87242   0.93206   0.72995   0.00000  Uiso   1.00
H1404  H     0.86823   0.93216   0.67393   0.00000  Uiso   1.00
loop_
_geom_bond_atom_site_label_1
_geom_bond_atom_site_label_2
_geom_bond_distance
_geom_bond_site_symmetry_2
_ccdc_geom_bond_type
C1     C12     1.449   .     S
C1     O45     1.305   .     A
C1     O203    1.304   1_455 S
C2     O46     1.305   .     A
C2     C11     1.449   .     S
C2     O126    1.304   .     S
C3     F65     1.357   .     S
C3     C5      1.393   .     A
C3     C32     1.414   .     A
C4     C6      1.392   .     A
C4     F66     1.357   .     S
C4     C31     1.414   .     A
C5     O53     1.379   .     S
C5     C731    1.397   1_554 S
C6     O58     1.378   .     S
C6     C732    1.397   .     S
C7     H39     1.084   .     S
C7     C477    1.384   1_545 S
C7     C90     1.401   .     S
C8     H40     1.084   .     S
C8     C244    1.384   .     S
C8     C167    1.401   1_455 S
C9     C11     1.400   .     A
C9     H41     1.083   .     S
C9     C241    1.384   .     S
C10    H42     1.082   .     S
C10    C12     1.400   .     A
C10    C476    1.384   1_545 S
C11    C86     1.401   .     S
C12    C163    1.401   1_455 S
C13    C15     1.440   .     A
C13    F67     1.355   .     S
C13    N44     1.369   .     A
C14    C16     1.440   .     A
C14    F68     1.355   .     S
C14    N43     1.370   .     A
C15    O69     1.384   .     S
C15    N43     1.376   .     A
C16    O74     1.384   .     S
C16    N44     1.376   .     A
C17    O51     1.302   .     A
C17    C19     1.450   .     S
C17    O127    1.307   .     S
C18    O52     1.302   .     A
C18    C20     1.449   .     S
C18    O206    1.307   1_455 S
C19    C23     1.392   .     A
C19    C25     1.398   .     A
C20    C24     1.391   .     A
C20    C26     1.398   .     A
C21    C29     1.402   .     A
C21    C23     1.385   .     A
C21    F63     1.345   .     S
C22    C30     1.401   .     A
C22    C24     1.385   .     A
C22    F64     1.345   .     S
C23    H116    1.083   .     S
C24    H193    1.084   1_455 S
C25    C27     1.404   .     A
C25    H36     1.080   .     S
C26    C28     1.404   .     A
C26    H35     1.080   .     S
C27    C29     1.403   .     A
C27    C31     1.413   .     A
C28    C32     1.414   .     A
C28    C30     1.403   .     A
C29    C707    1.397   .     S
C30    C708    1.397   1_554 S
C31    C734    1.430   .     S
C32    C733    1.430   1_554 S
Cu33   O45     1.961   .     S
Cu33   O52     1.981   .     S
Cu33   O49     1.975   .     S
Cu33   N43     2.046   .     S
Cu33   O48     1.959   .     S
Cu33   Cu190   2.723   1_455 S
Cu34   O51     1.981   .     S
Cu34   O46     1.961   .     S
Cu34   O50     1.975   .     S
Cu34   N44     2.046   .     S
Cu34   O47     1.959   .     S
Cu34   Cu111   2.723   .     S
H37    C102    1.084   .     S
H38    C179    1.083   1_455 S
O47    C79     1.304   .     S
O48    C158    1.304   1_455 S
O49    C173    1.307   1_455 S
O50    C96     1.307   .     S
O53    C54     1.417   .     S
C54    H56     1.115   .     S
C54    H55     1.111   .     S
C54    H57     1.107   .     S
O58    C59     1.417   .     S
C59    H60     1.111   .     S
C59    H61     1.115   .     S
C59    H62     1.107   .     S
O69    C70     1.413   .     S
C70    H71     1.110   .     S
C70    H73     1.115   .     S
C70    H72     1.110   .     S
O74    C75     1.413   .     S
C75    H76     1.109   .     S
C75    H77     1.115   .     S
C75    H78     1.110   .     S
C79    C90     1.449   .     S
C79    O123    1.305   .     A
C80    O124    1.305   .     A
C80    C89     1.449   .     S
C80    O204    1.304   .     S
C81    F143    1.357   .     S
C81    C83     1.393   .     A
C81    C110    1.414   .     A
C82    C84     1.392   .     A
C82    F144    1.357   .     S
C82    C109    1.414   .     A
C83    O131    1.379   .     S
C83    C809    1.397   1_554 S
C84    O136    1.378   .     S
C84    C810    1.397   .     S
C85    H117    1.084   .     S
C85    C555    1.384   1_545 S
C85    C168    1.401   .     S
C86    H118    1.084   .     S
C86    C322    1.384   .     S
C87    C89     1.400   .     A
C87    H119    1.083   .     S
C87    C319    1.384   .     S
C88    H120    1.082   .     S
C88    C90     1.400   .     A
C88    C554    1.384   1_545 S
C89    C164    1.401   .     S
C91    C93     1.440   .     A
C91    F145    1.355   .     S
C91    N122    1.369   .     A
C92    C94     1.440   .     A
C92    F146    1.355   .     S
C92    N121    1.370   .     A
C93    O147    1.384   .     S
C93    N121    1.376   .     A
C94    O152    1.384   .     S
C94    N122    1.376   .     A
C95    O129    1.302   .     A
C95    C97     1.450   .     S
C95    O205    1.307   .     S
C96    O130    1.302   .     A
C96    C98     1.449   .     S
C97    C101    1.392   .     A
C97    C103    1.398   .     A
C98    C102    1.391   .     A
C98    C104    1.398   .     A
C99    C107    1.402   .     A
C99    C101    1.385   .     A
C99    F141    1.345   .     S
C100   C108    1.401   .     A
C100   C102    1.385   .     A
C100   F142    1.345   .     S
C101   H194    1.083   .     S
C103   C105    1.404   .     A
C103   H114    1.080   .     S
C104   C106    1.404   .     A
C104   H113    1.080   .     S
C105   C107    1.403   .     A
C105   C109    1.413   .     A
C106   C110    1.414   .     A
C106   C108    1.403   .     A
C107   C785    1.397   .     S
C108   C786    1.397   1_554 S
C109   C812    1.430   .     S
C110   C811    1.430   1_554 S
Cu111  O123    1.961   .     S
Cu111  O130    1.981   .     S
Cu111  O127    1.975   .     S
Cu111  N121    2.046   .     S
Cu111  O126    1.959   .     S
Cu112  O129    1.981   .     S
Cu112  O124    1.961   .     S
Cu112  O128    1.975   .     S
Cu112  N122    2.046   .     S
Cu112  O125    1.959   .     S
Cu112  Cu189   2.723   .     S
H115   C180    1.084   .     S
O125   C157    1.304   .     S
O128   C174    1.307   .     S
O131   C132    1.417   .     S
C132   H134    1.115   .     S
C132   H133    1.111   .     S
C132   H135    1.107   .     S
O136   C137    1.417   .     S
C137   H138    1.111   .     S
C137   H139    1.115   .     S
C137   H140    1.107   .     S
O147   C148    1.413   .     S
C148   H149    1.110   .     S
C148   H151    1.115   .     S
C148   H150    1.110   .     S
O152   C153    1.413   .     S
C153   H154    1.109   .     S
C153   H155    1.115   .     S
C153   H156    1.110   .     S
C157   C168    1.449   .     S
C157   O201    1.305   .     A
C158   O202    1.305   .     A
C158   C167    1.449   .     S
C158   O48     1.304   1_655 S
C159   F221    1.357   .     S
C159   C161    1.393   .     A
C159   C188    1.414   .     A
C160   C162    1.392   .     A
C160   F222    1.357   .     S
C160   C187    1.414   .     A
C161   O209    1.379   .     S
C161   C887    1.397   1_554 S
C162   O214    1.378   .     S
C162   C888    1.397   .     S
C163   H195    1.084   .     S
C163   C633    1.384   1_545 S
C163   C12     1.401   1_655 S
C164   H196    1.084   .     S
C164   C400    1.384   .     S
C165   C167    1.400   .     A
C165   H197    1.083   .     S
C165   C397    1.384   .     S
C166   H198    1.082   .     S
C166   C168    1.400   .     A
C166   C632    1.384   1_545 S
C167   C8      1.401   1_655 S
C169   C171    1.440   .     A
C169   F223    1.355   .     S
C169   N200    1.369   .     A
C170   C172    1.440   .     A
C170   F224    1.355   .     S
C170   N199    1.370   .     A
C171   O225    1.384   .     S
C171   N199    1.376   .     A
C172   O230    1.384   .     S
C172   N200    1.376   .     A
C173   O207    1.302   .     A
C173   C175    1.450   .     S
C173   O49     1.307   1_655 S
C174   O208    1.302   .     A
C174   C176    1.449   .     S
C175   C179    1.392   .     A
C175   C181    1.398   .     A
C176   C180    1.391   .     A
C176   C182    1.398   .     A
C177   C185    1.402   .     A
C177   C179    1.385   .     A
C177   F219    1.345   .     S
C178   C186    1.401   .     A
C178   C180    1.385   .     A
C178   F220    1.345   .     S
C179   H38     1.083   1_655 S
C181   C183    1.404   .     A
C181   H192    1.080   .     S
C182   C184    1.404   .     A
C182   H191    1.080   .     S
C183   C185    1.403   .     A
C183   C187    1.413   .     A
C184   C188    1.414   .     A
C184   C186    1.403   .     A
C185   C863    1.397   .     S
C186   C864    1.397   1_554 S
C187   C890    1.430   .     S
C188   C889    1.430   1_554 S
Cu189  O201    1.961   .     S
Cu189  O208    1.981   .     S
Cu189  O205    1.975   .     S
Cu189  N199    2.046   .     S
Cu189  O204    1.959   .     S
Cu190  O207    1.981   .     S
Cu190  O202    1.961   .     S
Cu190  O206    1.975   .     S
Cu190  N200    2.046   .     S
Cu190  O203    1.959   .     S
Cu190  Cu33    2.723   1_655 S
H193   C24     1.084   1_655 S
O203   C1      1.304   1_655 S
O206   C18     1.307   1_655 S
O209   C210    1.417   .     S
C210   H212    1.115   .     S
C210   H211    1.111   .     S
C210   H213    1.107   .     S
O214   C215    1.417   .     S
C215   H216    1.111   .     S
C215   H217    1.115   .     S
C215   H218    1.107   .     S
O225   C226    1.413   .     S
C226   H227    1.110   .     S
C226   H229    1.115   .     S
C226   H228    1.110   .     S
O230   C231    1.413   .     S
C231   H232    1.109   .     S
C231   H233    1.115   .     S
C231   H234    1.110   .     S
C235   C246    1.449   .     S
C235   O279    1.305   .     A
C235   O437    1.304   1_455 S
C236   O280    1.305   .     A
C236   C245    1.449   .     S
C236   O360    1.304   .     S
C237   F299    1.357   .     S
C237   C239    1.393   .     A
C237   C266    1.414   .     A
C238   C240    1.392   .     A
C238   F300    1.357   .     S
C238   C265    1.414   .     A
C239   O287    1.379   .     S
C239   C965    1.397   1_554 S
C240   O292    1.378   .     S
C240   C966    1.397   .     S
C241   H273    1.084   .     S
C241   C324    1.401   .     S
C242   H274    1.084   .     S
C242   C478    1.384   .     S
C242   C401    1.401   1_455 S
C243   C245    1.400   .     A
C243   H275    1.083   .     S
C243   C475    1.384   .     S
C244   H276    1.082   .     S
C244   C246    1.400   .     A
C245   C320    1.401   .     S
C246   C397    1.401   1_455 S
C247   C249    1.440   .     A
C247   F301    1.355   .     S
C247   N278    1.369   .     A
C248   C250    1.440   .     A
C248   F302    1.355   .     S
C248   N277    1.370   .     A
C249   O303    1.384   .     S
C249   N277    1.376   .     A
C250   O308    1.384   .     S
C250   N278    1.376   .     A
C251   O285    1.302   .     A
C251   C253    1.450   .     S
C251   O361    1.307   .     S
C252   O286    1.302   .     A
C252   C254    1.449   .     S
C252   O440    1.307   1_455 S
C253   C257    1.392   .     A
C253   C259    1.398   .     A
C254   C258    1.391   .     A
C254   C260    1.398   .     A
C255   C263    1.402   .     A
C255   C257    1.385   .     A
C255   F297    1.345   .     S
C256   C264    1.401   .     A
C256   C258    1.385   .     A
C256   F298    1.345   .     S
C257   H350    1.083   .     S
C258   H427    1.084   1_455 S
C259   C261    1.404   .     A
C259   H270    1.080   .     S
C260   C262    1.404   .     A
C260   H269    1.080   .     S
C261   C263    1.403   .     A
C261   C265    1.413   .     A
C262   C266    1.414   .     A
C262   C264    1.403   .     A
C263   C941    1.397   .     S
C264   C942    1.397   1_554 S
C265   C968    1.430   .     S
C266   C967    1.430   1_554 S
Cu267  O279    1.961   .     S
Cu267  O286    1.981   .     S
Cu267  O283    1.975   .     S
Cu267  N277    2.046   .     S
Cu267  O282    1.959   .     S
Cu267  Cu424   2.723   1_455 S
Cu268  O285    1.981   .     S
Cu268  O280    1.961   .     S
Cu268  O284    1.975   .     S
Cu268  N278    2.046   .     S
Cu268  O281    1.959   .     S
Cu268  Cu345   2.723   .     S
H271   C336    1.084   .     S
H272   C413    1.083   1_455 S
O281   C313    1.304   .     S
O282   C392    1.304   1_455 S
O283   C407    1.307   1_455 S
O284   C330    1.307   .     S
O287   C288    1.417   .     S
C288   H290    1.115   .     S
C288   H289    1.111   .     S
C288   H291    1.107   .     S
O292   C293    1.417   .     S
C293   H294    1.111   .     S
C293   H295    1.115   .     S
C293   H296    1.107   .     S
O303   C304    1.413   .     S
C304   H305    1.110   .     S
C304   H307    1.115   .     S
C304   H306    1.110   .     S
O308   C309    1.413   .     S
C309   H310    1.109   .     S
C309   H311    1.115   .     S
C309   H312    1.110   .     S
C313   C324    1.449   .     S
C313   O357    1.305   .     A
C314   O358    1.305   .     A
C314   C323    1.449   .     S
C314   O438    1.304   .     S
C315   F377    1.357   .     S
C315   C317    1.393   .     A
C315   C344    1.414   .     A
C316   C318    1.392   .     A
C316   F378    1.357   .     S
C316   C343    1.414   .     A
C317   O365    1.379   .     S
C317   C1043   1.397   1_554 S
C318   O370    1.378   .     S
C318   C1044   1.397   .     S
C319   H351    1.084   .     S
C319   C402    1.401   .     S
C320   H352    1.084   .     S
C320   C556    1.384   .     S
C321   C323    1.400   .     A
C321   H353    1.083   .     S
C321   C553    1.384   .     S
C322   H354    1.082   .     S
C322   C324    1.400   .     A
C323   C398    1.401   .     S
C325   C327    1.440   .     A
C325   F379    1.355   .     S
C325   N356    1.369   .     A
C326   C328    1.440   .     A
C326   F380    1.355   .     S
C326   N355    1.370   .     A
C327   O381    1.384   .     S
C327   N355    1.376   .     A
C328   O386    1.384   .     S
C328   N356    1.376   .     A
C329   O363    1.302   .     A
C329   C331    1.450   .     S
C329   O439    1.307   .     S
C330   O364    1.302   .     A
C330   C332    1.449   .     S
C331   C335    1.392   .     A
C331   C337    1.398   .     A
C332   C336    1.391   .     A
C332   C338    1.398   .     A
C333   C341    1.402   .     A
C333   C335    1.385   .     A
C333   F375    1.345   .     S
C334   C342    1.401   .     A
C334   C336    1.385   .     A
C334   F376    1.345   .     S
C335   H428    1.083   .     S
C337   C339    1.404   .     A
C337   H348    1.080   .     S
C338   C340    1.404   .     A
C338   H347    1.080   .     S
C339   C341    1.403   .     A
C339   C343    1.413   .     A
C340   C344    1.414   .     A
C340   C342    1.403   .     A
C341   C1019   1.397   .     S
C342   C1020   1.397   1_554 S
C343   C1046   1.430   .     S
C344   C1045   1.430   1_554 S
Cu345  O357    1.961   .     S
Cu345  O364    1.981   .     S
Cu345  O361    1.975   .     S
Cu345  N355    2.046   .     S
Cu345  O360    1.959   .     S
Cu346  O363    1.981   .     S
Cu346  O358    1.961   .     S
Cu346  O362    1.975   .     S
Cu346  N356    2.046   .     S
Cu346  O359    1.959   .     S
Cu346  Cu423   2.723   .     S
H349   C414    1.084   .     S
O359   C391    1.304   .     S
O362   C408    1.307   .     S
O365   C366    1.417   .     S
C366   H368    1.115   .     S
C366   H367    1.111   .     S
C366   H369    1.107   .     S
O370   C371    1.417   .     S
C371   H372    1.111   .     S
C371   H373    1.115   .     S
C371   H374    1.107   .     S
O381   C382    1.413   .     S
C382   H383    1.110   .     S
C382   H385    1.115   .     S
C382   H384    1.110   .     S
O386   C387    1.413   .     S
C387   H388    1.109   .     S
C387   H389    1.115   .     S
C387   H390    1.110   .     S
C391   C402    1.449   .     S
C391   O435    1.305   .     A
C392   O436    1.305   .     A
C392   C401    1.449   .     S
C392   O282    1.304   1_655 S
C393   F455    1.357   .     S
C393   C395    1.393   .     A
C393   C422    1.414   .     A
C394   C396    1.392   .     A
C394   F456    1.357   .     S
C394   C421    1.414   .     A
C395   O443    1.379   .     S
C395   C1121   1.397   1_554 S
C396   O448    1.378   .     S
C396   C1122   1.397   .     S
C397   H429    1.084   .     S
C397   C246    1.401   1_655 S
C398   H430    1.084   .     S
C398   C634    1.384   .     S
C399   C401    1.400   .     A
C399   H431    1.083   .     S
C399   C631    1.384   .     S
C400   H432    1.082   .     S
C400   C402    1.400   .     A
C401   C242    1.401   1_655 S
C403   C405    1.440   .     A
C403   F457    1.355   .     S
C403   N434    1.369   .     A
C404   C406    1.440   .     A
C404   F458    1.355   .     S
C404   N433    1.370   .     A
C405   O459    1.384   .     S
C405   N433    1.376   .     A
C406   O464    1.384   .     S
C406   N434    1.376   .     A
C407   O441    1.302   .     A
C407   C409    1.450   .     S
C407   O283    1.307   1_655 S
C408   O442    1.302   .     A
C408   C410    1.449   .     S
C409   C413    1.392   .     A
C409   C415    1.398   .     A
C410   C414    1.391   .     A
C410   C416    1.398   .     A
C411   C419    1.402   .     A
C411   C413    1.385   .     A
C411   F453    1.345   .     S
C412   C420    1.401   .     A
C412   C414    1.385   .     A
C412   F454    1.345   .     S
C413   H272    1.083   1_655 S
C415   C417    1.404   .     A
C415   H426    1.080   .     S
C416   C418    1.404   .     A
C416   H425    1.080   .     S
C417   C419    1.403   .     A
C417   C421    1.413   .     A
C418   C422    1.414   .     A
C418   C420    1.403   .     A
C419   C1097   1.397   .     S
C420   C1098   1.397   1_554 S
C421   C1124   1.430   .     S
C422   C1123   1.430   1_554 S
Cu423  O435    1.961   .     S
Cu423  O442    1.981   .     S
Cu423  O439    1.975   .     S
Cu423  N433    2.046   .     S
Cu423  O438    1.959   .     S
Cu424  O441    1.981   .     S
Cu424  O436    1.961   .     S
Cu424  O440    1.975   .     S
Cu424  N434    2.046   .     S
Cu424  O437    1.959   .     S
Cu424  Cu267   2.723   1_655 S
H427   C258    1.084   1_655 S
O437   C235    1.304   1_655 S
O440   C252    1.307   1_655 S
O443   C444    1.417   .     S
C444   H446    1.115   .     S
C444   H445    1.111   .     S
C444   H447    1.107   .     S
O448   C449    1.417   .     S
C449   H450    1.111   .     S
C449   H451    1.115   .     S
C449   H452    1.107   .     S
O459   C460    1.413   .     S
C460   H461    1.110   .     S
C460   H463    1.115   .     S
C460   H462    1.110   .     S
O464   C465    1.413   .     S
C465   H466    1.109   .     S
C465   H467    1.115   .     S
C465   H468    1.110   .     S
C469   C480    1.449   .     S
C469   O513    1.305   .     A
C469   O671    1.304   1_455 S
C470   O514    1.305   .     A
C470   C479    1.449   .     S
C470   O594    1.304   .     S
C471   F533    1.357   .     S
C471   C473    1.393   .     A
C471   C500    1.414   .     A
C472   C474    1.392   .     A
C472   F534    1.357   .     S
C472   C499    1.414   .     A
C473   O521    1.379   .     S
C473   C1199   1.397   1_554 S
C474   O526    1.378   .     S
C474   C1200   1.397   .     S
C475   H507    1.084   .     S
C475   C558    1.401   .     S
C476   H508    1.084   .     S
C476   C10     1.384   1_565 S
C476   C635    1.401   1_455 S
C477   C479    1.400   .     A
C477   H509    1.083   .     S
C477   C7      1.384   1_565 S
C478   H510    1.082   .     S
C478   C480    1.400   .     A
C479   C554    1.401   .     S
C480   C631    1.401   1_455 S
C481   C483    1.440   .     A
C481   F535    1.355   .     S
C481   N512    1.369   .     A
C482   C484    1.440   .     A
C482   F536    1.355   .     S
C482   N511    1.370   .     A
C483   O537    1.384   .     S
C483   N511    1.376   .     A
C484   O542    1.384   .     S
C484   N512    1.376   .     A
C485   O519    1.302   .     A
C485   C487    1.450   .     S
C485   O595    1.307   .     S
C486   O520    1.302   .     A
C486   C488    1.449   .     S
C486   O674    1.307   1_455 S
C487   C491    1.392   .     A
C487   C493    1.398   .     A
C488   C492    1.391   .     A
C488   C494    1.398   .     A
C489   C497    1.402   .     A
C489   C491    1.385   .     A
C489   F531    1.345   .     S
C490   C498    1.401   .     A
C490   C492    1.385   .     A
C490   F532    1.345   .     S
C491   H584    1.083   .     S
C492   H661    1.084   1_455 S
C493   C495    1.404   .     A
C493   H504    1.080   .     S
C494   C496    1.404   .     A
C494   H503    1.080   .     S
C495   C497    1.403   .     A
C495   C499    1.413   .     A
C496   C500    1.414   .     A
C496   C498    1.403   .     A
C497   C1175   1.397   .     S
C498   C1176   1.397   1_554 S
C499   C1202   1.430   .     S
C500   C1201   1.430   1_554 S
Cu501  O513    1.961   .     S
Cu501  O520    1.981   .     S
Cu501  O517    1.975   .     S
Cu501  N511    2.046   .     S
Cu501  O516    1.959   .     S
Cu501  Cu658   2.723   1_455 S
Cu502  O519    1.981   .     S
Cu502  O514    1.961   .     S
Cu502  O518    1.975   .     S
Cu502  N512    2.046   .     S
Cu502  O515    1.959   .     S
Cu502  Cu579   2.723   .     S
H505   C570    1.084   .     S
H506   C647    1.083   1_455 S
O515   C547    1.304   .     S
O516   C626    1.304   1_455 S
O517   C641    1.307   1_455 S
O518   C564    1.307   .     S
O521   C522    1.417   .     S
C522   H524    1.115   .     S
C522   H523    1.111   .     S
C522   H525    1.107   .     S
O526   C527    1.417   .     S
C527   H528    1.111   .     S
C527   H529    1.115   .     S
C527   H530    1.107   .     S
O537   C538    1.413   .     S
C538   H539    1.110   .     S
C538   H541    1.115   .     S
C538   H540    1.110   .     S
O542   C543    1.413   .     S
C543   H544    1.109   .     S
C543   H545    1.115   .     S
C543   H546    1.110   .     S
C547   C558    1.449   .     S
C547   O591    1.305   .     A
C548   O592    1.305   .     A
C548   C557    1.449   .     S
C548   O672    1.304   .     S
C549   F611    1.357   .     S
C549   C551    1.393   .     A
C549   C578    1.414   .     A
C550   C552    1.392   .     A
C550   F612    1.357   .     S
C550   C577    1.414   .     A
C551   O599    1.379   .     S
C551   C1277   1.397   1_554 S
C552   O604    1.378   .     S
C552   C1278   1.397   .     S
C553   H585    1.084   .     S
C553   C636    1.401   .     S
C554   H586    1.084   .     S
C554   C88     1.384   1_565 S
C555   C557    1.400   .     A
C555   H587    1.083   .     S
C555   C85     1.384   1_565 S
C556   H588    1.082   .     S
C556   C558    1.400   .     A
C557   C632    1.401   .     S
C559   C561    1.440   .     A
C559   F613    1.355   .     S
C559   N590    1.369   .     A
C560   C562    1.440   .     A
C560   F614    1.355   .     S
C560   N589    1.370   .     A
C561   O615    1.384   .     S
C561   N589    1.376   .     A
C562   O620    1.384   .     S
C562   N590    1.376   .     A
C563   O597    1.302   .     A
C563   C565    1.450   .     S
C563   O673    1.307   .     S
C564   O598    1.302   .     A
C564   C566    1.449   .     S
C565   C569    1.392   .     A
C565   C571    1.398   .     A
C566   C570    1.391   .     A
C566   C572    1.398   .     A
C567   C575    1.402   .     A
C567   C569    1.385   .     A
C567   F609    1.345   .     S
C568   C576    1.401   .     A
C568   C570    1.385   .     A
C568   F610    1.345   .     S
C569   H662    1.083   .     S
C571   C573    1.404   .     A
C571   H582    1.080   .     S
C572   C574    1.404   .     A
C572   H581    1.080   .     S
C573   C575    1.403   .     A
C573   C577    1.413   .     A
C574   C578    1.414   .     A
C574   C576    1.403   .     A
C575   C1253   1.397   .     S
C576   C1254   1.397   1_554 S
C577   C1280   1.430   .     S
C578   C1279   1.430   1_554 S
Cu579  O591    1.961   .     S
Cu579  O598    1.981   .     S
Cu579  O595    1.975   .     S
Cu579  N589    2.046   .     S
Cu579  O594    1.959   .     S
Cu580  O597    1.981   .     S
Cu580  O592    1.961   .     S
Cu580  O596    1.975   .     S
Cu580  N590    2.046   .     S
Cu580  O593    1.959   .     S
Cu580  Cu657   2.723   .     S
H583   C648    1.084   .     S
O593   C625    1.304   .     S
O596   C642    1.307   .     S
O599   C600    1.417   .     S
C600   H602    1.115   .     S
C600   H601    1.111   .     S
C600   H603    1.107   .     S
O604   C605    1.417   .     S
C605   H606    1.111   .     S
C605   H607    1.115   .     S
C605   H608    1.107   .     S
O615   C616    1.413   .     S
C616   H617    1.110   .     S
C616   H619    1.115   .     S
C616   H618    1.110   .     S
O620   C621    1.413   .     S
C621   H622    1.109   .     S
C621   H623    1.115   .     S
C621   H624    1.110   .     S
C625   C636    1.449   .     S
C625   O669    1.305   .     A
C626   O670    1.305   .     A
C626   C635    1.449   .     S
C626   O516    1.304   1_655 S
C627   F689    1.357   .     S
C627   C629    1.393   .     A
C627   C656    1.414   .     A
C628   C630    1.392   .     A
C628   F690    1.357   .     S
C628   C655    1.414   .     A
C629   O677    1.379   .     S
C629   C1355   1.397   1_554 S
C630   O682    1.378   .     S
C630   C1356   1.397   .     S
C631   H663    1.084   .     S
C631   C480    1.401   1_655 S
C632   H664    1.084   .     S
C632   C166    1.384   1_565 S
C633   C635    1.400   .     A
C633   H665    1.083   .     S
C633   C163    1.384   1_565 S
C634   H666    1.082   .     S
C634   C636    1.400   .     A
C635   C476    1.401   1_655 S
C637   C639    1.440   .     A
C637   F691    1.355   .     S
C637   N668    1.369   .     A
C638   C640    1.440   .     A
C638   F692    1.355   .     S
C638   N667    1.370   .     A
C639   O693    1.384   .     S
C639   N667    1.376   .     A
C640   O698    1.384   .     S
C640   N668    1.376   .     A
C641   O675    1.302   .     A
C641   C643    1.450   .     S
C641   O517    1.307   1_655 S
C642   O676    1.302   .     A
C642   C644    1.449   .     S
C643   C647    1.392   .     A
C643   C649    1.398   .     A
C644   C648    1.391   .     A
C644   C650    1.398   .     A
C645   C653    1.402   .     A
C645   C647    1.385   .     A
C645   F687    1.345   .     S
C646   C654    1.401   .     A
C646   C648    1.385   .     A
C646   F688    1.345   .     S
C647   H506    1.083   1_655 S
C649   C651    1.404   .     A
C649   H660    1.080   .     S
C650   C652    1.404   .     A
C650   H659    1.080   .     S
C651   C653    1.403   .     A
C651   C655    1.413   .     A
C652   C656    1.414   .     A
C652   C654    1.403   .     A
C653   C1331   1.397   .     S
C654   C1332   1.397   1_554 S
C655   C1358   1.430   .     S
C656   C1357   1.430   1_554 S
Cu657  O669    1.961   .     S
Cu657  O676    1.981   .     S
Cu657  O673    1.975   .     S
Cu657  N667    2.046   .     S
Cu657  O672    1.959   .     S
Cu658  O675    1.981   .     S
Cu658  O670    1.961   .     S
Cu658  O674    1.975   .     S
Cu658  N668    2.046   .     S
Cu658  O671    1.959   .     S
Cu658  Cu501   2.723   1_655 S
H661   C492    1.084   1_655 S
O671   C469    1.304   1_655 S
O674   C486    1.307   1_655 S
O677   C678    1.417   .     S
C678   H680    1.115   .     S
C678   H679    1.111   .     S
C678   H681    1.107   .     S
O682   C683    1.417   .     S
C683   H684    1.111   .     S
C683   H685    1.115   .     S
C683   H686    1.107   .     S
O693   C694    1.413   .     S
C694   H695    1.110   .     S
C694   H697    1.115   .     S
C694   H696    1.110   .     S
O698   C699    1.413   .     S
C699   H700    1.109   .     S
C699   H701    1.115   .     S
C699   H702    1.110   .     S
C703   C714    1.449   .     S
C703   O747    1.305   .     A
C703   O905    1.304   1_455 S
C704   O748    1.305   .     A
C704   C713    1.449   .     S
C704   O828    1.304   .     S
C705   F767    1.357   .     S
C705   C707    1.393   .     A
C705   C734    1.414   .     A
C706   C708    1.392   .     A
C706   F768    1.357   .     S
C706   C733    1.414   .     A
C707   O755    1.379   .     S
C708   O760    1.378   .     S
C708   C30     1.397   1_556 S
C709   H741    1.084   .     S
C709   C1179   1.384   1_545 S
C709   C792    1.401   .     S
C710   H742    1.084   .     S
C710   C946    1.384   .     S
C710   C869    1.401   1_455 S
C711   C713    1.400   .     A
C711   H743    1.083   .     S
C711   C943    1.384   .     S
C712   H744    1.082   .     S
C712   C714    1.400   .     A
C712   C1178   1.384   1_545 S
C713   C788    1.401   .     S
C714   C865    1.401   1_455 S
C715   C717    1.440   .     A
C715   F769    1.355   .     S
C715   N746    1.369   .     A
C716   C718    1.440   .     A
C716   F770    1.355   .     S
C716   N745    1.370   .     A
C717   O771    1.384   .     S
C717   N745    1.376   .     A
C718   O776    1.384   .     S
C718   N746    1.376   .     A
C719   O753    1.302   .     A
C719   C721    1.450   .     S
C719   O829    1.307   .     S
C720   O754    1.302   .     A
C720   C722    1.449   .     S
C720   O908    1.307   1_455 S
C721   C725    1.392   .     A
C721   C727    1.398   .     A
C722   C726    1.391   .     A
C722   C728    1.398   .     A
C723   C731    1.402   .     A
C723   C725    1.385   .     A
C723   F765    1.345   .     S
C724   C732    1.401   .     A
C724   C726    1.385   .     A
C724   F766    1.345   .     S
C725   H818    1.083   .     S
C726   H895    1.084   1_455 S
C727   C729    1.404   .     A
C727   H738    1.080   .     S
C728   C730    1.404   .     A
C728   H737    1.080   .     S
C729   C731    1.403   .     A
C729   C733    1.413   .     A
C730   C734    1.414   .     A
C730   C732    1.403   .     A
C731   C5      1.397   1_556 S
C733   C32     1.430   1_556 S
Cu735  O747    1.961   .     S
Cu735  O754    1.981   .     S
Cu735  O751    1.975   .     S
Cu735  N745    2.046   .     S
Cu735  O750    1.959   .     S
Cu735  Cu892   2.723   1_455 S
Cu736  O753    1.981   .     S
Cu736  O748    1.961   .     S
Cu736  O752    1.975   .     S
Cu736  N746    2.046   .     S
Cu736  O749    1.959   .     S
Cu736  Cu813   2.723   .     S
H739   C804    1.084   .     S
H740   C881    1.083   1_455 S
O749   C781    1.304   .     S
O750   C860    1.304   1_455 S
O751   C875    1.307   1_455 S
O752   C798    1.307   .     S
O755   C756    1.417   .     S
C756   H758    1.115   .     S
C756   H757    1.111   .     S
C756   H759    1.107   .     S
O760   C761    1.417   .     S
C761   H762    1.111   .     S
C761   H763    1.115   .     S
C761   H764    1.107   .     S
O771   C772    1.413   .     S
C772   H773    1.110   .     S
C772   H775    1.115   .     S
C772   H774    1.110   .     S
O776   C777    1.413   .     S
C777   H778    1.109   .     S
C777   H779    1.115   .     S
C777   H780    1.110   .     S
C781   C792    1.449   .     S
C781   O825    1.305   .     A
C782   O826    1.305   .     A
C782   C791    1.449   .     S
C782   O906    1.304   .     S
C783   F845    1.357   .     S
C783   C785    1.393   .     A
C783   C812    1.414   .     A
C784   C786    1.392   .     A
C784   F846    1.357   .     S
C784   C811    1.414   .     A
C785   O833    1.379   .     S
C786   O838    1.378   .     S
C786   C108    1.397   1_556 S
C787   H819    1.084   .     S
C787   C1257   1.384   1_545 S
C787   C870    1.401   .     S
C788   H820    1.084   .     S
C788   C1024   1.384   .     S
C789   C791    1.400   .     A
C789   H821    1.083   .     S
C789   C1021   1.384   .     S
C790   H822    1.082   .     S
C790   C792    1.400   .     A
C790   C1256   1.384   1_545 S
C791   C866    1.401   .     S
C793   C795    1.440   .     A
C793   F847    1.355   .     S
C793   N824    1.369   .     A
C794   C796    1.440   .     A
C794   F848    1.355   .     S
C794   N823    1.370   .     A
C795   O849    1.384   .     S
C795   N823    1.376   .     A
C796   O854    1.384   .     S
C796   N824    1.376   .     A
C797   O831    1.302   .     A
C797   C799    1.450   .     S
C797   O907    1.307   .     S
C798   O832    1.302   .     A
C798   C800    1.449   .     S
C799   C803    1.392   .     A
C799   C805    1.398   .     A
C800   C804    1.391   .     A
C800   C806    1.398   .     A
C801   C809    1.402   .     A
C801   C803    1.385   .     A
C801   F843    1.345   .     S
C802   C810    1.401   .     A
C802   C804    1.385   .     A
C802   F844    1.345   .     S
C803   H896    1.083   .     S
C805   C807    1.404   .     A
C805   H816    1.080   .     S
C806   C808    1.404   .     A
C806   H815    1.080   .     S
C807   C809    1.403   .     A
C807   C811    1.413   .     A
C808   C812    1.414   .     A
C808   C810    1.403   .     A
C809   C83     1.397   1_556 S
C811   C110    1.430   1_556 S
Cu813  O825    1.961   .     S
Cu813  O832    1.981   .     S
Cu813  O829    1.975   .     S
Cu813  N823    2.046   .     S
Cu813  O828    1.959   .     S
Cu814  O831    1.981   .     S
Cu814  O826    1.961   .     S
Cu814  O830    1.975   .     S
Cu814  N824    2.046   .     S
Cu814  O827    1.959   .     S
Cu814  Cu891   2.723   .     S
H817   C882    1.084   .     S
O827   C859    1.304   .     S
O830   C876    1.307   .     S
O833   C834    1.417   .     S
C834   H836    1.115   .     S
C834   H835    1.111   .     S
C834   H837    1.107   .     S
O838   C839    1.417   .     S
C839   H840    1.111   .     S
C839   H841    1.115   .     S
C839   H842    1.107   .     S
O849   C850    1.413   .     S
C850   H851    1.110   .     S
C850   H853    1.115   .     S
C850   H852    1.110   .     S
O854   C855    1.413   .     S
C855   H856    1.109   .     S
C855   H857    1.115   .     S
C855   H858    1.110   .     S
C859   C870    1.449   .     S
C859   O903    1.305   .     A
C860   O904    1.305   .     A
C860   C869    1.449   .     S
C860   O750    1.304   1_655 S
C861   F923    1.357   .     S
C861   C863    1.393   .     A
C861   C890    1.414   .     A
C862   C864    1.392   .     A
C862   F924    1.357   .     S
C862   C889    1.414   .     A
C863   O911    1.379   .     S
C864   O916    1.378   .     S
C864   C186    1.397   1_556 S
C865   H897    1.084   .     S
C865   C1335   1.384   1_545 S
C865   C714    1.401   1_655 S
C866   H898    1.084   .     S
C866   C1102   1.384   .     S
C867   C869    1.400   .     A
C867   H899    1.083   .     S
C867   C1099   1.384   .     S
C868   H900    1.082   .     S
C868   C870    1.400   .     A
C868   C1334   1.384   1_545 S
C869   C710    1.401   1_655 S
C871   C873    1.440   .     A
C871   F925    1.355   .     S
C871   N902    1.369   .     A
C872   C874    1.440   .     A
C872   F926    1.355   .     S
C872   N901    1.370   .     A
C873   O927    1.384   .     S
C873   N901    1.376   .     A
C874   O932    1.384   .     S
C874   N902    1.376   .     A
C875   O909    1.302   .     A
C875   C877    1.450   .     S
C875   O751    1.307   1_655 S
C876   O910    1.302   .     A
C876   C878    1.449   .     S
C877   C881    1.392   .     A
C877   C883    1.398   .     A
C878   C882    1.391   .     A
C878   C884    1.398   .     A
C879   C887    1.402   .     A
C879   C881    1.385   .     A
C879   F921    1.345   .     S
C880   C888    1.401   .     A
C880   C882    1.385   .     A
C880   F922    1.345   .     S
C881   H740    1.083   1_655 S
C883   C885    1.404   .     A
C883   H894    1.080   .     S
C884   C886    1.404   .     A
C884   H893    1.080   .     S
C885   C887    1.403   .     A
C885   C889    1.413   .     A
C886   C890    1.414   .     A
C886   C888    1.403   .     A
C887   C161    1.397   1_556 S
C889   C188    1.430   1_556 S
Cu891  O903    1.961   .     S
Cu891  O910    1.981   .     S
Cu891  O907    1.975   .     S
Cu891  N901    2.046   .     S
Cu891  O906    1.959   .     S
Cu892  O909    1.981   .     S
Cu892  O904    1.961   .     S
Cu892  O908    1.975   .     S
Cu892  N902    2.046   .     S
Cu892  O905    1.959   .     S
Cu892  Cu735   2.723   1_655 S
H895   C726    1.084   1_655 S
O905   C703    1.304   1_655 S
O908   C720    1.307   1_655 S
O911   C912    1.417   .     S
C912   H914    1.115   .     S
C912   H913    1.111   .     S
C912   H915    1.107   .     S
O916   C917    1.417   .     S
C917   H918    1.111   .     S
C917   H919    1.115   .     S
C917   H920    1.107   .     S
O927   C928    1.413   .     S
C928   H929    1.110   .     S
C928   H931    1.115   .     S
C928   H930    1.110   .     S
O932   C933    1.413   .     S
C933   H934    1.109   .     S
C933   H935    1.115   .     S
C933   H936    1.110   .     S
C937   C948    1.449   .     S
C937   O981    1.305   .     A
C937   O1139   1.304   1_455 S
C938   O982    1.305   .     A
C938   C947    1.449   .     S
C938   O1062   1.304   .     S
C939   F1001   1.357   .     S
C939   C941    1.393   .     A
C939   C968    1.414   .     A
C940   C942    1.392   .     A
C940   F1002   1.357   .     S
C940   C967    1.414   .     A
C941   O989    1.379   .     S
C942   O994    1.378   .     S
C942   C264    1.397   1_556 S
C943   H975    1.084   .     S
C943   C1026   1.401   .     S
C944   H976    1.084   .     S
C944   C1180   1.384   .     S
C944   C1103   1.401   1_455 S
C945   C947    1.400   .     A
C945   H977    1.083   .     S
C945   C1177   1.384   .     S
C946   H978    1.082   .     S
C946   C948    1.400   .     A
C947   C1022   1.401   .     S
C948   C1099   1.401   1_455 S
C949   C951    1.440   .     A
C949   F1003   1.355   .     S
C949   N980    1.369   .     A
C950   C952    1.440   .     A
C950   F1004   1.355   .     S
C950   N979    1.370   .     A
C951   O1005   1.384   .     S
C951   N979    1.376   .     A
C952   O1010   1.384   .     S
C952   N980    1.376   .     A
C953   O987    1.302   .     A
C953   C955    1.450   .     S
C953   O1063   1.307   .     S
C954   O988    1.302   .     A
C954   C956    1.449   .     S
C954   O1142   1.307   1_455 S
C955   C959    1.392   .     A
C955   C961    1.398   .     A
C956   C960    1.391   .     A
C956   C962    1.398   .     A
C957   C965    1.402   .     A
C957   C959    1.385   .     A
C957   F999    1.345   .     S
C958   C966    1.401   .     A
C958   C960    1.385   .     A
C958   F1000   1.345   .     S
C959   H1052   1.083   .     S
C960   H1129   1.084   1_455 S
C961   C963    1.404   .     A
C961   H972    1.080   .     S
C962   C964    1.404   .     A
C962   H971    1.080   .     S
C963   C965    1.403   .     A
C963   C967    1.413   .     A
C964   C968    1.414   .     A
C964   C966    1.403   .     A
C965   C239    1.397   1_556 S
C967   C266    1.430   1_556 S
Cu969  O981    1.961   .     S
Cu969  O988    1.981   .     S
Cu969  O985    1.975   .     S
Cu969  N979    2.046   .     S
Cu969  O984    1.959   .     S
Cu969  Cu1126  2.723   1_455 S
Cu970  O987    1.981   .     S
Cu970  O982    1.961   .     S
Cu970  O986    1.975   .     S
Cu970  N980    2.046   .     S
Cu970  O983    1.959   .     S
Cu970  Cu1047  2.723   .     S
H973   C1038   1.084   .     S
H974   C1115   1.083   1_455 S
O983   C1015   1.304   .     S
O984   C1094   1.304   1_455 S
O985   C1109   1.307   1_455 S
O986   C1032   1.307   .     S
O989   C990    1.417   .     S
C990   H992    1.115   .     S
C990   H991    1.111   .     S
C990   H993    1.107   .     S
O994   C995    1.417   .     S
C995   H996    1.111   .     S
C995   H997    1.115   .     S
C995   H998    1.107   .     S
O1005  C1006   1.413   .     S
C1006  H1007   1.110   .     S
C1006  H1009   1.115   .     S
C1006  H1008   1.110   .     S
O1010  C1011   1.413   .     S
C1011  H1012   1.109   .     S
C1011  H1013   1.115   .     S
C1011  H1014   1.110   .     S
C1015  C1026   1.449   .     S
C1015  O1059   1.305   .     A
C1016  O1060   1.305   .     A
C1016  C1025   1.449   .     S
C1016  O1140   1.304   .     S
C1017  F1079   1.357   .     S
C1017  C1019   1.393   .     A
C1017  C1046   1.414   .     A
C1018  C1020   1.392   .     A
C1018  F1080   1.357   .     S
C1018  C1045   1.414   .     A
C1019  O1067   1.379   .     S
C1020  O1072   1.378   .     S
C1020  C342    1.397   1_556 S
C1021  H1053   1.084   .     S
C1021  C1104   1.401   .     S
C1022  H1054   1.084   .     S
C1022  C1258   1.384   .     S
C1023  C1025   1.400   .     A
C1023  H1055   1.083   .     S
C1023  C1255   1.384   .     S
C1024  H1056   1.082   .     S
C1024  C1026   1.400   .     A
C1025  C1100   1.401   .     S
C1027  C1029   1.440   .     A
C1027  F1081   1.355   .     S
C1027  N1058   1.369   .     A
C1028  C1030   1.440   .     A
C1028  F1082   1.355   .     S
C1028  N1057   1.370   .     A
C1029  O1083   1.384   .     S
C1029  N1057   1.376   .     A
C1030  O1088   1.384   .     S
C1030  N1058   1.376   .     A
C1031  O1065   1.302   .     A
C1031  C1033   1.450   .     S
C1031  O1141   1.307   .     S
C1032  O1066   1.302   .     A
C1032  C1034   1.449   .     S
C1033  C1037   1.392   .     A
C1033  C1039   1.398   .     A
C1034  C1038   1.391   .     A
C1034  C1040   1.398   .     A
C1035  C1043   1.402   .     A
C1035  C1037   1.385   .     A
C1035  F1077   1.345   .     S
C1036  C1044   1.401   .     A
C1036  C1038   1.385   .     A
C1036  F1078   1.345   .     S
C1037  H1130   1.083   .     S
C1039  C1041   1.404   .     A
C1039  H1050   1.080   .     S
C1040  C1042   1.404   .     A
C1040  H1049   1.080   .     S
C1041  C1043   1.403   .     A
C1041  C1045   1.413   .     A
C1042  C1046   1.414   .     A
C1042  C1044   1.403   .     A
C1043  C317    1.397   1_556 S
C1045  C344    1.430   1_556 S
Cu1047 O1059   1.961   .     S
Cu1047 O1066   1.981   .     S
Cu1047 O1063   1.975   .     S
Cu1047 N1057   2.046   .     S
Cu1047 O1062   1.959   .     S
Cu1048 O1065   1.981   .     S
Cu1048 O1060   1.961   .     S
Cu1048 O1064   1.975   .     S
Cu1048 N1058   2.046   .     S
Cu1048 O1061   1.959   .     S
Cu1048 Cu1125  2.723   .     S
H1051  C1116   1.084   .     S
O1061  C1093   1.304   .     S
O1064  C1110   1.307   .     S
O1067  C1068   1.417   .     S
C1068  H1070   1.115   .     S
C1068  H1069   1.111   .     S
C1068  H1071   1.107   .     S
O1072  C1073   1.417   .     S
C1073  H1074   1.111   .     S
C1073  H1075   1.115   .     S
C1073  H1076   1.107   .     S
O1083  C1084   1.413   .     S
C1084  H1085   1.110   .     S
C1084  H1087   1.115   .     S
C1084  H1086   1.110   .     S
O1088  C1089   1.413   .     S
C1089  H1090   1.109   .     S
C1089  H1091   1.115   .     S
C1089  H1092   1.110   .     S
C1093  C1104   1.449   .     S
C1093  O1137   1.305   .     A
C1094  O1138   1.305   .     A
C1094  C1103   1.449   .     S
C1094  O984    1.304   1_655 S
C1095  F1157   1.357   .     S
C1095  C1097   1.393   .     A
C1095  C1124   1.414   .     A
C1096  C1098   1.392   .     A
C1096  F1158   1.357   .     S
C1096  C1123   1.414   .     A
C1097  O1145   1.379   .     S
C1098  O1150   1.378   .     S
C1098  C420    1.397   1_556 S
C1099  H1131   1.084   .     S
C1099  C948    1.401   1_655 S
C1100  H1132   1.084   .     S
C1100  C1336   1.384   .     S
C1101  C1103   1.400   .     A
C1101  H1133   1.083   .     S
C1101  C1333   1.384   .     S
C1102  H1134   1.082   .     S
C1102  C1104   1.400   .     A
C1103  C944    1.401   1_655 S
C1105  C1107   1.440   .     A
C1105  F1159   1.355   .     S
C1105  N1136   1.369   .     A
C1106  C1108   1.440   .     A
C1106  F1160   1.355   .     S
C1106  N1135   1.370   .     A
C1107  O1161   1.384   .     S
C1107  N1135   1.376   .     A
C1108  O1166   1.384   .     S
C1108  N1136   1.376   .     A
C1109  O1143   1.302   .     A
C1109  C1111   1.450   .     S
C1109  O985    1.307   1_655 S
C1110  O1144   1.302   .     A
C1110  C1112   1.449   .     S
C1111  C1115   1.392   .     A
C1111  C1117   1.398   .     A
C1112  C1116   1.391   .     A
C1112  C1118   1.398   .     A
C1113  C1121   1.402   .     A
C1113  C1115   1.385   .     A
C1113  F1155   1.345   .     S
C1114  C1122   1.401   .     A
C1114  C1116   1.385   .     A
C1114  F1156   1.345   .     S
C1115  H974    1.083   1_655 S
C1117  C1119   1.404   .     A
C1117  H1128   1.080   .     S
C1118  C1120   1.404   .     A
C1118  H1127   1.080   .     S
C1119  C1121   1.403   .     A
C1119  C1123   1.413   .     A
C1120  C1124   1.414   .     A
C1120  C1122   1.403   .     A
C1121  C395    1.397   1_556 S
C1123  C422    1.430   1_556 S
Cu1125 O1137   1.961   .     S
Cu1125 O1144   1.981   .     S
Cu1125 O1141   1.975   .     S
Cu1125 N1135   2.046   .     S
Cu1125 O1140   1.959   .     S
Cu1126 O1143   1.981   .     S
Cu1126 O1138   1.961   .     S
Cu1126 O1142   1.975   .     S
Cu1126 N1136   2.046   .     S
Cu1126 O1139   1.959   .     S
Cu1126 Cu969   2.723   1_655 S
H1129  C960    1.084   1_655 S
O1139  C937    1.304   1_655 S
O1142  C954    1.307   1_655 S
O1145  C1146   1.417   .     S
C1146  H1148   1.115   .     S
C1146  H1147   1.111   .     S
C1146  H1149   1.107   .     S
O1150  C1151   1.417   .     S
C1151  H1152   1.111   .     S
C1151  H1153   1.115   .     S
C1151  H1154   1.107   .     S
O1161  C1162   1.413   .     S
C1162  H1163   1.110   .     S
C1162  H1165   1.115   .     S
C1162  H1164   1.110   .     S
O1166  C1167   1.413   .     S
C1167  H1168   1.109   .     S
C1167  H1169   1.115   .     S
C1167  H1170   1.110   .     S
C1171  C1182   1.449   .     S
C1171  O1215   1.305   .     A
C1171  O1373   1.304   1_455 S
C1172  O1216   1.305   .     A
C1172  C1181   1.449   .     S
C1172  O1296   1.304   .     S
C1173  F1235   1.357   .     S
C1173  C1175   1.393   .     A
C1173  C1202   1.414   .     A
C1174  C1176   1.392   .     A
C1174  F1236   1.357   .     S
C1174  C1201   1.414   .     A
C1175  O1223   1.379   .     S
C1176  O1228   1.378   .     S
C1176  C498    1.397   1_556 S
C1177  H1209   1.084   .     S
C1177  C1260   1.401   .     S
C1178  H1210   1.084   .     S
C1178  C712    1.384   1_565 S
C1178  C1337   1.401   1_455 S
C1179  C1181   1.400   .     A
C1179  H1211   1.083   .     S
C1179  C709    1.384   1_565 S
C1180  H1212   1.082   .     S
C1180  C1182   1.400   .     A
C1181  C1256   1.401   .     S
C1182  C1333   1.401   1_455 S
C1183  C1185   1.440   .     A
C1183  F1237   1.355   .     S
C1183  N1214   1.369   .     A
C1184  C1186   1.440   .     A
C1184  F1238   1.355   .     S
C1184  N1213   1.370   .     A
C1185  O1239   1.384   .     S
C1185  N1213   1.376   .     A
C1186  O1244   1.384   .     S
C1186  N1214   1.376   .     A
C1187  O1221   1.302   .     A
C1187  C1189   1.450   .     S
C1187  O1297   1.307   .     S
C1188  O1222   1.302   .     A
C1188  C1190   1.449   .     S
C1188  O1376   1.307   1_455 S
C1189  C1193   1.392   .     A
C1189  C1195   1.398   .     A
C1190  C1194   1.391   .     A
C1190  C1196   1.398   .     A
C1191  C1199   1.402   .     A
C1191  C1193   1.385   .     A
C1191  F1233   1.345   .     S
C1192  C1200   1.401   .     A
C1192  C1194   1.385   .     A
C1192  F1234   1.345   .     S
C1193  H1286   1.083   .     S
C1194  H1363   1.084   1_455 S
C1195  C1197   1.404   .     A
C1195  H1206   1.080   .     S
C1196  C1198   1.404   .     A
C1196  H1205   1.080   .     S
C1197  C1199   1.403   .     A
C1197  C1201   1.413   .     A
C1198  C1202   1.414   .     A
C1198  C1200   1.403   .     A
C1199  C473    1.397   1_556 S
C1201  C500    1.430   1_556 S
Cu1203 O1215   1.961   .     S
Cu1203 O1222   1.981   .     S
Cu1203 O1219   1.975   .     S
Cu1203 N1213   2.046   .     S
Cu1203 O1218   1.959   .     S
Cu1203 Cu1360  2.723   1_455 S
Cu1204 O1221   1.981   .     S
Cu1204 O1216   1.961   .     S
Cu1204 O1220   1.975   .     S
Cu1204 N1214   2.046   .     S
Cu1204 O1217   1.959   .     S
Cu1204 Cu1281  2.723   .     S
H1207  C1272   1.084   .     S
H1208  C1349   1.083   1_455 S
O1217  C1249   1.304   .     S
O1218  C1328   1.304   1_455 S
O1219  C1343   1.307   1_455 S
O1220  C1266   1.307   .     S
O1223  C1224   1.417   .     S
C1224  H1226   1.115   .     S
C1224  H1225   1.111   .     S
C1224  H1227   1.107   .     S
O1228  C1229   1.417   .     S
C1229  H1230   1.111   .     S
C1229  H1231   1.115   .     S
C1229  H1232   1.107   .     S
O1239  C1240   1.413   .     S
C1240  H1241   1.110   .     S
C1240  H1243   1.115   .     S
C1240  H1242   1.110   .     S
O1244  C1245   1.413   .     S
C1245  H1246   1.109   .     S
C1245  H1247   1.115   .     S
C1245  H1248   1.110   .     S
C1249  C1260   1.449   .     S
C1249  O1293   1.305   .     A
C1250  O1294   1.305   .     A
C1250  C1259   1.449   .     S
C1250  O1374   1.304   .     S
C1251  F1313   1.357   .     S
C1251  C1253   1.393   .     A
C1251  C1280   1.414   .     A
C1252  C1254   1.392   .     A
C1252  F1314   1.357   .     S
C1252  C1279   1.414   .     A
C1253  O1301   1.379   .     S
C1254  O1306   1.378   .     S
C1254  C576    1.397   1_556 S
C1255  H1287   1.084   .     S
C1255  C1338   1.401   .     S
C1256  H1288   1.084   .     S
C1256  C790    1.384   1_565 S
C1257  C1259   1.400   .     A
C1257  H1289   1.083   .     S
C1257  C787    1.384   1_565 S
C1258  H1290   1.082   .     S
C1258  C1260   1.400   .     A
C1259  C1334   1.401   .     S
C1261  C1263   1.440   .     A
C1261  F1315   1.355   .     S
C1261  N1292   1.369   .     A
C1262  C1264   1.440   .     A
C1262  F1316   1.355   .     S
C1262  N1291   1.370   .     A
C1263  O1317   1.384   .     S
C1263  N1291   1.376   .     A
C1264  O1322   1.384   .     S
C1264  N1292   1.376   .     A
C1265  O1299   1.302   .     A
C1265  C1267   1.450   .     S
C1265  O1375   1.307   .     S
C1266  O1300   1.302   .     A
C1266  C1268   1.449   .     S
C1267  C1271   1.392   .     A
C1267  C1273   1.398   .     A
C1268  C1272   1.391   .     A
C1268  C1274   1.398   .     A
C1269  C1277   1.402   .     A
C1269  C1271   1.385   .     A
C1269  F1311   1.345   .     S
C1270  C1278   1.401   .     A
C1270  C1272   1.385   .     A
C1270  F1312   1.345   .     S
C1271  H1364   1.083   .     S
C1273  C1275   1.404   .     A
C1273  H1284   1.080   .     S
C1274  C1276   1.404   .     A
C1274  H1283   1.080   .     S
C1275  C1277   1.403   .     A
C1275  C1279   1.413   .     A
C1276  C1280   1.414   .     A
C1276  C1278   1.403   .     A
C1277  C551    1.397   1_556 S
C1279  C578    1.430   1_556 S
Cu1281 O1293   1.961   .     S
Cu1281 O1300   1.981   .     S
Cu1281 O1297   1.975   .     S
Cu1281 N1291   2.046   .     S
Cu1281 O1296   1.959   .     S
Cu1282 O1299   1.981   .     S
Cu1282 O1294   1.961   .     S
Cu1282 O1298   1.975   .     S
Cu1282 N1292   2.046   .     S
Cu1282 O1295   1.959   .     S
Cu1282 Cu1359  2.723   .     S
H1285  C1350   1.084   .     S
O1295  C1327   1.304   .     S
O1298  C1344   1.307   .     S
O1301  C1302   1.417   .     S
C1302  H1304   1.115   .     S
C1302  H1303   1.111   .     S
C1302  H1305   1.107   .     S
O1306  C1307   1.417   .     S
C1307  H1308   1.111   .     S
C1307  H1309   1.115   .     S
C1307  H1310   1.107   .     S
O1317  C1318   1.413   .     S
C1318  H1319   1.110   .     S
C1318  H1321   1.115   .     S
C1318  H1320   1.110   .     S
O1322  C1323   1.413   .     S
C1323  H1324   1.109   .     S
C1323  H1325   1.115   .     S
C1323  H1326   1.110   .     S
C1327  C1338   1.449   .     S
C1327  O1371   1.305   .     A
C1328  O1372   1.305   .     A
C1328  C1337   1.449   .     S
C1328  O1218   1.304   1_655 S
C1329  F1391   1.357   .     S
C1329  C1331   1.393   .     A
C1329  C1358   1.414   .     A
C1330  C1332   1.392   .     A
C1330  F1392   1.357   .     S
C1330  C1357   1.414   .     A
C1331  O1379   1.379   .     S
C1332  O1384   1.378   .     S
C1332  C654    1.397   1_556 S
C1333  H1365   1.084   .     S
C1333  C1182   1.401   1_655 S
C1334  H1366   1.084   .     S
C1334  C868    1.384   1_565 S
C1335  C1337   1.400   .     A
C1335  H1367   1.083   .     S
C1335  C865    1.384   1_565 S
C1336  H1368   1.082   .     S
C1336  C1338   1.400   .     A
C1337  C1178   1.401   1_655 S
C1339  C1341   1.440   .     A
C1339  F1393   1.355   .     S
C1339  N1370   1.369   .     A
C1340  C1342   1.440   .     A
C1340  F1394   1.355   .     S
C1340  N1369   1.370   .     A
C1341  O1395   1.384   .     S
C1341  N1369   1.376   .     A
C1342  O1400   1.384   .     S
C1342  N1370   1.376   .     A
C1343  O1377   1.302   .     A
C1343  C1345   1.450   .     S
C1343  O1219   1.307   1_655 S
C1344  O1378   1.302   .     A
C1344  C1346   1.449   .     S
C1345  C1349   1.392   .     A
C1345  C1351   1.398   .     A
C1346  C1350   1.391   .     A
C1346  C1352   1.398   .     A
C1347  C1355   1.402   .     A
C1347  C1349   1.385   .     A
C1347  F1389   1.345   .     S
C1348  C1356   1.401   .     A
C1348  C1350   1.385   .     A
C1348  F1390   1.345   .     S
C1349  H1208   1.083   1_655 S
C1351  C1353   1.404   .     A
C1351  H1362   1.080   .     S
C1352  C1354   1.404   .     A
C1352  H1361   1.080   .     S
C1353  C1355   1.403   .     A
C1353  C1357   1.413   .     A
C1354  C1358   1.414   .     A
C1354  C1356   1.403   .     A
C1355  C629    1.397   1_556 S
C1357  C656    1.430   1_556 S
Cu1359 O1371   1.961   .     S
Cu1359 O1378   1.981   .     S
Cu1359 O1375   1.975   .     S
Cu1359 N1369   2.046   .     S
Cu1359 O1374   1.959   .     S
Cu1360 O1377   1.981   .     S
Cu1360 O1372   1.961   .     S
Cu1360 O1376   1.975   .     S
Cu1360 N1370   2.046   .     S
Cu1360 O1373   1.959   .     S
Cu1360 Cu1203  2.723   1_655 S
H1363  C1194   1.084   1_655 S
O1373  C1171   1.304   1_655 S
O1376  C1188   1.307   1_655 S
O1379  C1380   1.417   .     S
C1380  H1382   1.115   .     S
C1380  H1381   1.111   .     S
C1380  H1383   1.107   .     S
O1384  C1385   1.417   .     S
C1385  H1386   1.111   .     S
C1385  H1387   1.115   .     S
C1385  H1388   1.107   .     S
O1395  C1396   1.413   .     S
C1396  H1397   1.110   .     S
C1396  H1399   1.115   .     S
C1396  H1398   1.110   .     S
O1400  C1401   1.413   .     S
C1401  H1402   1.109   .     S
C1401  H1403   1.115   .     S
C1401  H1404   1.110   .     S
