data_str_m2_o1_o18_pcu_sym.131
_audit_creation_date              2020-01-03
_audit_creation_method            'Materials Studio'
_symmetry_space_group_name_H-M    'P1'
_symmetry_Int_Tables_number       1
_symmetry_cell_setting            triclinic
loop_
_symmetry_equiv_pos_as_xyz
  x,y,z
_cell_length_a                    28.7713
_cell_length_b                    32.4569
_cell_length_c                    31.0872
_cell_angle_alpha                 88.6296
_cell_angle_beta                  73.5743
_cell_angle_gamma                 90.7133
loop_
_atom_site_label
_atom_site_type_symbol
_atom_site_fract_x
_atom_site_fract_y
_atom_site_fract_z
_atom_site_U_iso_or_equiv
_atom_site_adp_type
_atom_site_occupancy
C1     C     0.33314   0.08743   0.25005   0.00000  Uiso   1.00
C2     C     0.00019   0.24590   0.24994   0.00000  Uiso   1.00
C3     C     0.19576   0.15502   0.04561   0.00000  Uiso   1.00
C4     C     0.13538   0.16427   0.45302   0.00000  Uiso   1.00
C5     C     0.24158   0.17192   0.02418   0.00000  Uiso   1.00
C6     C     0.08868   0.14993   0.47634   0.00000  Uiso   1.00
C7     C     0.29406   0.02100   0.24241   0.00000  Uiso   1.00
C8     C     0.03930   0.31234   0.25755   0.00000  Uiso   1.00
C9     C     0.29428   0.31171   0.24235   0.00000  Uiso   1.00
C10    C     0.03907   0.02162   0.25762   0.00000  Uiso   1.00
C11    C     0.00026   0.29056   0.24988   0.00000  Uiso   1.00
C12    C     0.33309   0.04278   0.25009   0.00000  Uiso   1.00
C13    C     0.18209   0.13889   0.27631   0.00000  Uiso   1.00
C14    C     0.15107   0.19480   0.22410   0.00000  Uiso   1.00
C15    C     0.13298   0.13917   0.27609   0.00000  Uiso   1.00
C16    C     0.20023   0.19445   0.22423   0.00000  Uiso   1.00
C17    C     0.30585   0.16737   0.33595   0.00000  Uiso   1.00
C18    C     0.02748   0.16490   0.16407   0.00000  Uiso   1.00
C19    C     0.29011   0.17067   0.38486   0.00000  Uiso   1.00
C20    C     0.04289   0.15835   0.11547   0.00000  Uiso   1.00
C21    C     0.30431   0.18837   0.45527   0.00000  Uiso   1.00
C22    C     0.02585   0.13956   0.04644   0.00000  Uiso   1.00
C23    C     0.32106   0.18579   0.40868   0.00000  Uiso   1.00
C24    C     0.00996   0.14542   0.09259   0.00000  Uiso   1.00
C25    C     0.24213   0.16041   0.40772   0.00000  Uiso   1.00
C26    C     0.09204   0.16251   0.09217   0.00000  Uiso   1.00
C27    C     0.22291   0.16826   0.45316   0.00000  Uiso   1.00
C28    C     0.10907   0.15395   0.04650   0.00000  Uiso   1.00
C29    C     0.25586   0.17795   0.47779   0.00000  Uiso   1.00
C30    C     0.07478   0.14625   0.02294   0.00000  Uiso   1.00
C31    C     0.17269   0.16302   0.47552   0.00000  Uiso   1.00
C32    C     0.15899   0.15703   0.02308   0.00000  Uiso   1.00
Cu33   Cu    0.04689   0.16667   0.25000   0.00000  Uiso   1.00
Cu34   Cu    0.28645   0.16666   0.25000   0.00000  Uiso   1.00
H35    H     0.26828   0.17437   0.04251   0.00000  Uiso   1.00
H36    H     0.06120   0.14708   0.45881   0.00000  Uiso   1.00
H37    H     0.11672   0.17463   0.10924   0.00000  Uiso   1.00
H38    H     0.22098   0.14354   0.39050   0.00000  Uiso   1.00
H39    H     0.30534   0.14058   0.11013   0.00000  Uiso   1.00
H40    H     0.02487   0.19450   0.39150   0.00000  Uiso   1.00
H41    H     0.32934   0.19750   0.47375   0.00000  Uiso   1.00
H42    H     0.33315   0.13111   0.02880   0.00000  Uiso   1.00
H43    H     0.26358   0.03680   0.23613   0.00000  Uiso   1.00
H44    H     0.06978   0.29653   0.26380   0.00000  Uiso   1.00
H45    H     0.26382   0.29542   0.23614   0.00000  Uiso   1.00
H46    H     0.06953   0.03791   0.26383   0.00000  Uiso   1.00
H47    H     0.10726   0.11719   0.29696   0.00000  Uiso   1.00
H48    H     0.22594   0.21640   0.20332   0.00000  Uiso   1.00
N49    N     0.11736   0.16668   0.24999   0.00000  Uiso   1.00
N50    N     0.21597   0.16666   0.25001   0.00000  Uiso   1.00
O51    O     0.03958   0.10655   0.25000   0.00000  Uiso   1.00
O52    O     0.29375   0.22678   0.25000   0.00000  Uiso   1.00
O53    O     0.29372   0.10654   0.25000   0.00000  Uiso   1.00
O54    O     0.03961   0.22679   0.24999   0.00000  Uiso   1.00
O55    O     0.01852   0.16668   0.31491   0.00000  Uiso   1.00
O56    O     0.31481   0.16666   0.18508   0.00000  Uiso   1.00
O57    O     0.27267   0.16667   0.31492   0.00000  Uiso   1.00
O58    O     0.06067   0.16667   0.18508   0.00000  Uiso   1.00
C59    C     0.19247   0.12457   0.08441   0.00000  Uiso   1.00
C60    C     0.19871   0.14417   0.12671   0.00000  Uiso   1.00
H61    H     0.22058   0.17323   0.11914   0.00000  Uiso   1.00
H62    H     0.16280   0.15023   0.15005   0.00000  Uiso   1.00
H63    H     0.21686   0.12231   0.14445   0.00000  Uiso   1.00
H64    H     0.15825   0.10599   0.09297   0.00000  Uiso   1.00
H65    H     0.22181   0.10193   0.07289   0.00000  Uiso   1.00
C66    C     0.13973   0.18759   0.40864   0.00000  Uiso   1.00
C67    C     0.15595   0.23248   0.40975   0.00000  Uiso   1.00
H68    H     0.13157   0.24785   0.43893   0.00000  Uiso   1.00
H69    H     0.19371   0.23472   0.41185   0.00000  Uiso   1.00
H70    H     0.15436   0.24908   0.37855   0.00000  Uiso   1.00
H71    H     0.16259   0.17254   0.37891   0.00000  Uiso   1.00
H72    H     0.10387   0.18856   0.40186   0.00000  Uiso   1.00
I73    I     0.19741   0.09297   0.31972   0.00000  Uiso   1.00
I74    I     0.13566   0.24003   0.17981   0.00000  Uiso   1.00
C75    C     0.66647   0.08743   0.25005   0.00000  Uiso   1.00
C76    C     0.33353   0.24590   0.24994   0.00000  Uiso   1.00
C77    C     0.52909   0.15502   0.04561   0.00000  Uiso   1.00
C78    C     0.46871   0.16427   0.45302   0.00000  Uiso   1.00
C79    C     0.57492   0.17192   0.02418   0.00000  Uiso   1.00
C80    C     0.42201   0.14993   0.47634   0.00000  Uiso   1.00
C81    C     0.62739   0.02100   0.24241   0.00000  Uiso   1.00
C82    C     0.37263   0.31234   0.25755   0.00000  Uiso   1.00
C83    C     0.62761   0.31171   0.24235   0.00000  Uiso   1.00
C84    C     0.37240   0.02162   0.25762   0.00000  Uiso   1.00
C85    C     0.33359   0.29056   0.24988   0.00000  Uiso   1.00
C86    C     0.66642   0.04278   0.25009   0.00000  Uiso   1.00
C87    C     0.51543   0.13889   0.27631   0.00000  Uiso   1.00
C88    C     0.48440   0.19480   0.22410   0.00000  Uiso   1.00
C89    C     0.46632   0.13917   0.27609   0.00000  Uiso   1.00
C90    C     0.53357   0.19445   0.22423   0.00000  Uiso   1.00
C91    C     0.63919   0.16737   0.33595   0.00000  Uiso   1.00
C92    C     0.36081   0.16490   0.16407   0.00000  Uiso   1.00
C93    C     0.62345   0.17067   0.38486   0.00000  Uiso   1.00
C94    C     0.37622   0.15835   0.11547   0.00000  Uiso   1.00
C95    C     0.63765   0.18837   0.45527   0.00000  Uiso   1.00
C96    C     0.35918   0.13956   0.04644   0.00000  Uiso   1.00
C97    C     0.65439   0.18579   0.40868   0.00000  Uiso   1.00
C98    C     0.34329   0.14542   0.09259   0.00000  Uiso   1.00
C99    C     0.57546   0.16041   0.40772   0.00000  Uiso   1.00
C100   C     0.42537   0.16251   0.09217   0.00000  Uiso   1.00
C101   C     0.55624   0.16826   0.45316   0.00000  Uiso   1.00
C102   C     0.44240   0.15395   0.04650   0.00000  Uiso   1.00
C103   C     0.58920   0.17795   0.47779   0.00000  Uiso   1.00
C104   C     0.40811   0.14625   0.02294   0.00000  Uiso   1.00
C105   C     0.50602   0.16302   0.47552   0.00000  Uiso   1.00
C106   C     0.49232   0.15703   0.02308   0.00000  Uiso   1.00
Cu107  Cu    0.38022   0.16667   0.25000   0.00000  Uiso   1.00
Cu108  Cu    0.61978   0.16666   0.25000   0.00000  Uiso   1.00
H109   H     0.60162   0.17437   0.04251   0.00000  Uiso   1.00
H110   H     0.39454   0.14708   0.45881   0.00000  Uiso   1.00
H111   H     0.45005   0.17463   0.10924   0.00000  Uiso   1.00
H112   H     0.55431   0.14354   0.39050   0.00000  Uiso   1.00
H113   H     0.63867   0.14058   0.11013   0.00000  Uiso   1.00
H114   H     0.35821   0.19450   0.39150   0.00000  Uiso   1.00
H115   H     0.66267   0.19750   0.47375   0.00000  Uiso   1.00
H116   H     0.66649   0.13111   0.02880   0.00000  Uiso   1.00
H117   H     0.59692   0.03680   0.23613   0.00000  Uiso   1.00
H118   H     0.40311   0.29653   0.26380   0.00000  Uiso   1.00
H119   H     0.59715   0.29542   0.23614   0.00000  Uiso   1.00
H120   H     0.40286   0.03791   0.26383   0.00000  Uiso   1.00
H121   H     0.44060   0.11719   0.29696   0.00000  Uiso   1.00
H122   H     0.55928   0.21640   0.20332   0.00000  Uiso   1.00
N123   N     0.45069   0.16668   0.24999   0.00000  Uiso   1.00
N124   N     0.54931   0.16666   0.25001   0.00000  Uiso   1.00
O125   O     0.37291   0.10655   0.25000   0.00000  Uiso   1.00
O126   O     0.62709   0.22678   0.25000   0.00000  Uiso   1.00
O127   O     0.62706   0.10654   0.25000   0.00000  Uiso   1.00
O128   O     0.37294   0.22679   0.24999   0.00000  Uiso   1.00
O129   O     0.35186   0.16668   0.31491   0.00000  Uiso   1.00
O130   O     0.64814   0.16666   0.18508   0.00000  Uiso   1.00
O131   O     0.60600   0.16667   0.31492   0.00000  Uiso   1.00
O132   O     0.39400   0.16667   0.18508   0.00000  Uiso   1.00
C133   C     0.52581   0.12457   0.08441   0.00000  Uiso   1.00
C134   C     0.53205   0.14417   0.12671   0.00000  Uiso   1.00
H135   H     0.55391   0.17323   0.11914   0.00000  Uiso   1.00
H136   H     0.49614   0.15023   0.15005   0.00000  Uiso   1.00
H137   H     0.55019   0.12231   0.14445   0.00000  Uiso   1.00
H138   H     0.49159   0.10599   0.09297   0.00000  Uiso   1.00
H139   H     0.55514   0.10193   0.07289   0.00000  Uiso   1.00
C140   C     0.47306   0.18759   0.40864   0.00000  Uiso   1.00
C141   C     0.48928   0.23248   0.40975   0.00000  Uiso   1.00
H142   H     0.46491   0.24785   0.43893   0.00000  Uiso   1.00
H143   H     0.52704   0.23472   0.41185   0.00000  Uiso   1.00
H144   H     0.48769   0.24908   0.37855   0.00000  Uiso   1.00
H145   H     0.49592   0.17254   0.37891   0.00000  Uiso   1.00
H146   H     0.43720   0.18856   0.40186   0.00000  Uiso   1.00
I147   I     0.53075   0.09297   0.31972   0.00000  Uiso   1.00
I148   I     0.46899   0.24003   0.17981   0.00000  Uiso   1.00
C149   C     0.99981   0.08743   0.25005   0.00000  Uiso   1.00
C150   C     0.66686   0.24590   0.24994   0.00000  Uiso   1.00
C151   C     0.86242   0.15502   0.04561   0.00000  Uiso   1.00
C152   C     0.80205   0.16427   0.45302   0.00000  Uiso   1.00
C153   C     0.90825   0.17192   0.02418   0.00000  Uiso   1.00
C154   C     0.75534   0.14993   0.47634   0.00000  Uiso   1.00
C155   C     0.96072   0.02100   0.24241   0.00000  Uiso   1.00
C156   C     0.70596   0.31234   0.25755   0.00000  Uiso   1.00
C157   C     0.96094   0.31171   0.24235   0.00000  Uiso   1.00
C158   C     0.70574   0.02162   0.25762   0.00000  Uiso   1.00
C159   C     0.66692   0.29056   0.24988   0.00000  Uiso   1.00
C160   C     0.99975   0.04278   0.25009   0.00000  Uiso   1.00
C161   C     0.84876   0.13889   0.27631   0.00000  Uiso   1.00
C162   C     0.81774   0.19480   0.22410   0.00000  Uiso   1.00
C163   C     0.79965   0.13917   0.27609   0.00000  Uiso   1.00
C164   C     0.86690   0.19445   0.22423   0.00000  Uiso   1.00
C165   C     0.97252   0.16737   0.33595   0.00000  Uiso   1.00
C166   C     0.69415   0.16490   0.16407   0.00000  Uiso   1.00
C167   C     0.95678   0.17067   0.38486   0.00000  Uiso   1.00
C168   C     0.70956   0.15835   0.11547   0.00000  Uiso   1.00
C169   C     0.97098   0.18837   0.45527   0.00000  Uiso   1.00
C170   C     0.69251   0.13956   0.04644   0.00000  Uiso   1.00
C171   C     0.98772   0.18579   0.40868   0.00000  Uiso   1.00
C172   C     0.67663   0.14542   0.09259   0.00000  Uiso   1.00
C173   C     0.90879   0.16041   0.40772   0.00000  Uiso   1.00
C174   C     0.75870   0.16251   0.09217   0.00000  Uiso   1.00
C175   C     0.88957   0.16826   0.45316   0.00000  Uiso   1.00
C176   C     0.77574   0.15395   0.04650   0.00000  Uiso   1.00
C177   C     0.92253   0.17795   0.47779   0.00000  Uiso   1.00
C178   C     0.74145   0.14625   0.02294   0.00000  Uiso   1.00
C179   C     0.83936   0.16302   0.47552   0.00000  Uiso   1.00
C180   C     0.82565   0.15703   0.02308   0.00000  Uiso   1.00
Cu181  Cu    0.71355   0.16667   0.25000   0.00000  Uiso   1.00
Cu182  Cu    0.95311   0.16666   0.25000   0.00000  Uiso   1.00
H183   H     0.93495   0.17437   0.04251   0.00000  Uiso   1.00
H184   H     0.72787   0.14708   0.45881   0.00000  Uiso   1.00
H185   H     0.78339   0.17463   0.10924   0.00000  Uiso   1.00
H186   H     0.88764   0.14354   0.39050   0.00000  Uiso   1.00
H187   H     0.97201   0.14058   0.11013   0.00000  Uiso   1.00
H188   H     0.69154   0.19450   0.39150   0.00000  Uiso   1.00
H189   H     0.99601   0.19750   0.47375   0.00000  Uiso   1.00
H190   H     0.99982   0.13111   0.02880   0.00000  Uiso   1.00
H191   H     0.93025   0.03680   0.23613   0.00000  Uiso   1.00
H192   H     0.73645   0.29653   0.26380   0.00000  Uiso   1.00
H193   H     0.93049   0.29542   0.23614   0.00000  Uiso   1.00
H194   H     0.73619   0.03791   0.26383   0.00000  Uiso   1.00
H195   H     0.77393   0.11719   0.29696   0.00000  Uiso   1.00
H196   H     0.89261   0.21640   0.20332   0.00000  Uiso   1.00
N197   N     0.78403   0.16668   0.24999   0.00000  Uiso   1.00
N198   N     0.88264   0.16666   0.25001   0.00000  Uiso   1.00
O199   O     0.70625   0.10655   0.25000   0.00000  Uiso   1.00
O200   O     0.96042   0.22678   0.25000   0.00000  Uiso   1.00
O201   O     0.96039   0.10654   0.25000   0.00000  Uiso   1.00
O202   O     0.70628   0.22679   0.24999   0.00000  Uiso   1.00
O203   O     0.68519   0.16668   0.31491   0.00000  Uiso   1.00
O204   O     0.98148   0.16666   0.18508   0.00000  Uiso   1.00
O205   O     0.93933   0.16667   0.31492   0.00000  Uiso   1.00
O206   O     0.72733   0.16667   0.18508   0.00000  Uiso   1.00
C207   C     0.85914   0.12457   0.08441   0.00000  Uiso   1.00
C208   C     0.86538   0.14417   0.12671   0.00000  Uiso   1.00
H209   H     0.88724   0.17323   0.11914   0.00000  Uiso   1.00
H210   H     0.82947   0.15023   0.15005   0.00000  Uiso   1.00
H211   H     0.88353   0.12231   0.14445   0.00000  Uiso   1.00
H212   H     0.82492   0.10599   0.09297   0.00000  Uiso   1.00
H213   H     0.88848   0.10193   0.07289   0.00000  Uiso   1.00
C214   C     0.80639   0.18759   0.40864   0.00000  Uiso   1.00
C215   C     0.82262   0.23248   0.40975   0.00000  Uiso   1.00
H216   H     0.79824   0.24785   0.43893   0.00000  Uiso   1.00
H217   H     0.86038   0.23472   0.41185   0.00000  Uiso   1.00
H218   H     0.82103   0.24908   0.37855   0.00000  Uiso   1.00
H219   H     0.82925   0.17254   0.37891   0.00000  Uiso   1.00
H220   H     0.77054   0.18856   0.40186   0.00000  Uiso   1.00
I221   I     0.86408   0.09297   0.31972   0.00000  Uiso   1.00
I222   I     0.80233   0.24003   0.17981   0.00000  Uiso   1.00
C223   C     0.33314   0.42076   0.25005   0.00000  Uiso   1.00
C224   C     0.00019   0.57923   0.24994   0.00000  Uiso   1.00
C225   C     0.19576   0.48835   0.04561   0.00000  Uiso   1.00
C226   C     0.13538   0.49760   0.45302   0.00000  Uiso   1.00
C227   C     0.24158   0.50526   0.02418   0.00000  Uiso   1.00
C228   C     0.08868   0.48326   0.47634   0.00000  Uiso   1.00
C229   C     0.29406   0.35433   0.24241   0.00000  Uiso   1.00
C230   C     0.03930   0.64567   0.25755   0.00000  Uiso   1.00
C231   C     0.29428   0.64505   0.24235   0.00000  Uiso   1.00
C232   C     0.03907   0.35496   0.25762   0.00000  Uiso   1.00
C233   C     0.00026   0.62389   0.24988   0.00000  Uiso   1.00
C234   C     0.33309   0.37611   0.25009   0.00000  Uiso   1.00
C235   C     0.18209   0.47222   0.27631   0.00000  Uiso   1.00
C236   C     0.15107   0.52813   0.22410   0.00000  Uiso   1.00
C237   C     0.13298   0.47250   0.27609   0.00000  Uiso   1.00
C238   C     0.20023   0.52778   0.22423   0.00000  Uiso   1.00
C239   C     0.30585   0.50071   0.33595   0.00000  Uiso   1.00
C240   C     0.02748   0.49823   0.16407   0.00000  Uiso   1.00
C241   C     0.29011   0.50401   0.38486   0.00000  Uiso   1.00
C242   C     0.04289   0.49168   0.11547   0.00000  Uiso   1.00
C243   C     0.30431   0.52170   0.45527   0.00000  Uiso   1.00
C244   C     0.02585   0.47289   0.04644   0.00000  Uiso   1.00
C245   C     0.32106   0.51913   0.40868   0.00000  Uiso   1.00
C246   C     0.00996   0.47875   0.09259   0.00000  Uiso   1.00
C247   C     0.24213   0.49374   0.40772   0.00000  Uiso   1.00
C248   C     0.09204   0.49585   0.09217   0.00000  Uiso   1.00
C249   C     0.22291   0.50160   0.45316   0.00000  Uiso   1.00
C250   C     0.10907   0.48728   0.04650   0.00000  Uiso   1.00
C251   C     0.25586   0.51128   0.47779   0.00000  Uiso   1.00
C252   C     0.07478   0.47958   0.02294   0.00000  Uiso   1.00
C253   C     0.17269   0.49635   0.47552   0.00000  Uiso   1.00
C254   C     0.15899   0.49036   0.02308   0.00000  Uiso   1.00
Cu255  Cu    0.04689   0.50001   0.25000   0.00000  Uiso   1.00
Cu256  Cu    0.28645   0.49999   0.25000   0.00000  Uiso   1.00
H257   H     0.26828   0.50770   0.04251   0.00000  Uiso   1.00
H258   H     0.06120   0.48041   0.45881   0.00000  Uiso   1.00
H259   H     0.11672   0.50797   0.10924   0.00000  Uiso   1.00
H260   H     0.22098   0.47688   0.39050   0.00000  Uiso   1.00
H261   H     0.30534   0.47391   0.11013   0.00000  Uiso   1.00
H262   H     0.02487   0.52783   0.39150   0.00000  Uiso   1.00
H263   H     0.32934   0.53083   0.47375   0.00000  Uiso   1.00
H264   H     0.33315   0.46445   0.02880   0.00000  Uiso   1.00
H265   H     0.26358   0.37014   0.23613   0.00000  Uiso   1.00
H266   H     0.06978   0.62987   0.26380   0.00000  Uiso   1.00
H267   H     0.26382   0.62876   0.23614   0.00000  Uiso   1.00
H268   H     0.06953   0.37125   0.26383   0.00000  Uiso   1.00
H269   H     0.10726   0.45052   0.29696   0.00000  Uiso   1.00
H270   H     0.22594   0.54973   0.20332   0.00000  Uiso   1.00
N271   N     0.11736   0.50001   0.24999   0.00000  Uiso   1.00
N272   N     0.21597   0.49999   0.25001   0.00000  Uiso   1.00
O273   O     0.03958   0.43989   0.25000   0.00000  Uiso   1.00
O274   O     0.29375   0.56011   0.25000   0.00000  Uiso   1.00
O275   O     0.29372   0.43988   0.25000   0.00000  Uiso   1.00
O276   O     0.03961   0.56012   0.24999   0.00000  Uiso   1.00
O277   O     0.01852   0.50001   0.31491   0.00000  Uiso   1.00
O278   O     0.31481   0.49999   0.18508   0.00000  Uiso   1.00
O279   O     0.27267   0.50000   0.31492   0.00000  Uiso   1.00
O280   O     0.06067   0.50000   0.18508   0.00000  Uiso   1.00
C281   C     0.19247   0.45791   0.08441   0.00000  Uiso   1.00
C282   C     0.19871   0.47750   0.12671   0.00000  Uiso   1.00
H283   H     0.22058   0.50657   0.11914   0.00000  Uiso   1.00
H284   H     0.16280   0.48356   0.15005   0.00000  Uiso   1.00
H285   H     0.21686   0.45564   0.14445   0.00000  Uiso   1.00
H286   H     0.15825   0.43932   0.09297   0.00000  Uiso   1.00
H287   H     0.22181   0.43526   0.07289   0.00000  Uiso   1.00
C288   C     0.13973   0.52093   0.40864   0.00000  Uiso   1.00
C289   C     0.15595   0.56581   0.40975   0.00000  Uiso   1.00
H290   H     0.13157   0.58118   0.43893   0.00000  Uiso   1.00
H291   H     0.19371   0.56805   0.41185   0.00000  Uiso   1.00
H292   H     0.15436   0.58241   0.37855   0.00000  Uiso   1.00
H293   H     0.16259   0.50587   0.37891   0.00000  Uiso   1.00
H294   H     0.10387   0.52190   0.40186   0.00000  Uiso   1.00
I295   I     0.19741   0.42630   0.31972   0.00000  Uiso   1.00
I296   I     0.13566   0.57336   0.17981   0.00000  Uiso   1.00
C297   C     0.66647   0.42076   0.25005   0.00000  Uiso   1.00
C298   C     0.33353   0.57923   0.24994   0.00000  Uiso   1.00
C299   C     0.52909   0.48835   0.04561   0.00000  Uiso   1.00
C300   C     0.46871   0.49760   0.45302   0.00000  Uiso   1.00
C301   C     0.57492   0.50526   0.02418   0.00000  Uiso   1.00
C302   C     0.42201   0.48326   0.47634   0.00000  Uiso   1.00
C303   C     0.62739   0.35433   0.24241   0.00000  Uiso   1.00
C304   C     0.37263   0.64567   0.25755   0.00000  Uiso   1.00
C305   C     0.62761   0.64505   0.24235   0.00000  Uiso   1.00
C306   C     0.37240   0.35496   0.25762   0.00000  Uiso   1.00
C307   C     0.33359   0.62389   0.24988   0.00000  Uiso   1.00
C308   C     0.66642   0.37611   0.25009   0.00000  Uiso   1.00
C309   C     0.51543   0.47222   0.27631   0.00000  Uiso   1.00
C310   C     0.48440   0.52813   0.22410   0.00000  Uiso   1.00
C311   C     0.46632   0.47250   0.27609   0.00000  Uiso   1.00
C312   C     0.53357   0.52778   0.22423   0.00000  Uiso   1.00
C313   C     0.63919   0.50071   0.33595   0.00000  Uiso   1.00
C314   C     0.36081   0.49823   0.16407   0.00000  Uiso   1.00
C315   C     0.62345   0.50401   0.38486   0.00000  Uiso   1.00
C316   C     0.37622   0.49168   0.11547   0.00000  Uiso   1.00
C317   C     0.63765   0.52170   0.45527   0.00000  Uiso   1.00
C318   C     0.35918   0.47289   0.04644   0.00000  Uiso   1.00
C319   C     0.65439   0.51913   0.40868   0.00000  Uiso   1.00
C320   C     0.34329   0.47875   0.09259   0.00000  Uiso   1.00
C321   C     0.57546   0.49374   0.40772   0.00000  Uiso   1.00
C322   C     0.42537   0.49585   0.09217   0.00000  Uiso   1.00
C323   C     0.55624   0.50160   0.45316   0.00000  Uiso   1.00
C324   C     0.44240   0.48728   0.04650   0.00000  Uiso   1.00
C325   C     0.58920   0.51128   0.47779   0.00000  Uiso   1.00
C326   C     0.40811   0.47958   0.02294   0.00000  Uiso   1.00
C327   C     0.50602   0.49635   0.47552   0.00000  Uiso   1.00
C328   C     0.49232   0.49036   0.02308   0.00000  Uiso   1.00
Cu329  Cu    0.38022   0.50001   0.25000   0.00000  Uiso   1.00
Cu330  Cu    0.61978   0.49999   0.25000   0.00000  Uiso   1.00
H331   H     0.60162   0.50770   0.04251   0.00000  Uiso   1.00
H332   H     0.39454   0.48041   0.45881   0.00000  Uiso   1.00
H333   H     0.45005   0.50797   0.10924   0.00000  Uiso   1.00
H334   H     0.55431   0.47688   0.39050   0.00000  Uiso   1.00
H335   H     0.63867   0.47391   0.11013   0.00000  Uiso   1.00
H336   H     0.35821   0.52783   0.39150   0.00000  Uiso   1.00
H337   H     0.66267   0.53083   0.47375   0.00000  Uiso   1.00
H338   H     0.66649   0.46445   0.02880   0.00000  Uiso   1.00
H339   H     0.59692   0.37014   0.23613   0.00000  Uiso   1.00
H340   H     0.40311   0.62987   0.26380   0.00000  Uiso   1.00
H341   H     0.59715   0.62876   0.23614   0.00000  Uiso   1.00
H342   H     0.40286   0.37125   0.26383   0.00000  Uiso   1.00
H343   H     0.44060   0.45052   0.29696   0.00000  Uiso   1.00
H344   H     0.55928   0.54973   0.20332   0.00000  Uiso   1.00
N345   N     0.45069   0.50001   0.24999   0.00000  Uiso   1.00
N346   N     0.54931   0.49999   0.25001   0.00000  Uiso   1.00
O347   O     0.37291   0.43989   0.25000   0.00000  Uiso   1.00
O348   O     0.62709   0.56011   0.25000   0.00000  Uiso   1.00
O349   O     0.62706   0.43988   0.25000   0.00000  Uiso   1.00
O350   O     0.37294   0.56012   0.24999   0.00000  Uiso   1.00
O351   O     0.35186   0.50001   0.31491   0.00000  Uiso   1.00
O352   O     0.64814   0.49999   0.18508   0.00000  Uiso   1.00
O353   O     0.60600   0.50000   0.31492   0.00000  Uiso   1.00
O354   O     0.39400   0.50000   0.18508   0.00000  Uiso   1.00
C355   C     0.52581   0.45791   0.08441   0.00000  Uiso   1.00
C356   C     0.53205   0.47750   0.12671   0.00000  Uiso   1.00
H357   H     0.55391   0.50657   0.11914   0.00000  Uiso   1.00
H358   H     0.49614   0.48356   0.15005   0.00000  Uiso   1.00
H359   H     0.55019   0.45564   0.14445   0.00000  Uiso   1.00
H360   H     0.49159   0.43932   0.09297   0.00000  Uiso   1.00
H361   H     0.55514   0.43526   0.07289   0.00000  Uiso   1.00
C362   C     0.47306   0.52093   0.40864   0.00000  Uiso   1.00
C363   C     0.48928   0.56581   0.40975   0.00000  Uiso   1.00
H364   H     0.46491   0.58118   0.43893   0.00000  Uiso   1.00
H365   H     0.52704   0.56805   0.41185   0.00000  Uiso   1.00
H366   H     0.48769   0.58241   0.37855   0.00000  Uiso   1.00
H367   H     0.49592   0.50587   0.37891   0.00000  Uiso   1.00
H368   H     0.43720   0.52190   0.40186   0.00000  Uiso   1.00
I369   I     0.53075   0.42630   0.31972   0.00000  Uiso   1.00
I370   I     0.46899   0.57336   0.17981   0.00000  Uiso   1.00
C371   C     0.99981   0.42076   0.25005   0.00000  Uiso   1.00
C372   C     0.66686   0.57923   0.24994   0.00000  Uiso   1.00
C373   C     0.86242   0.48835   0.04561   0.00000  Uiso   1.00
C374   C     0.80205   0.49760   0.45302   0.00000  Uiso   1.00
C375   C     0.90825   0.50526   0.02418   0.00000  Uiso   1.00
C376   C     0.75534   0.48326   0.47634   0.00000  Uiso   1.00
C377   C     0.96072   0.35433   0.24241   0.00000  Uiso   1.00
C378   C     0.70596   0.64567   0.25755   0.00000  Uiso   1.00
C379   C     0.96094   0.64505   0.24235   0.00000  Uiso   1.00
C380   C     0.70574   0.35496   0.25762   0.00000  Uiso   1.00
C381   C     0.66692   0.62389   0.24988   0.00000  Uiso   1.00
C382   C     0.99975   0.37611   0.25009   0.00000  Uiso   1.00
C383   C     0.84876   0.47222   0.27631   0.00000  Uiso   1.00
C384   C     0.81774   0.52813   0.22410   0.00000  Uiso   1.00
C385   C     0.79965   0.47250   0.27609   0.00000  Uiso   1.00
C386   C     0.86690   0.52778   0.22423   0.00000  Uiso   1.00
C387   C     0.97252   0.50071   0.33595   0.00000  Uiso   1.00
C388   C     0.69415   0.49823   0.16407   0.00000  Uiso   1.00
C389   C     0.95678   0.50401   0.38486   0.00000  Uiso   1.00
C390   C     0.70956   0.49168   0.11547   0.00000  Uiso   1.00
C391   C     0.97098   0.52170   0.45527   0.00000  Uiso   1.00
C392   C     0.69251   0.47289   0.04644   0.00000  Uiso   1.00
C393   C     0.98772   0.51913   0.40868   0.00000  Uiso   1.00
C394   C     0.67663   0.47875   0.09259   0.00000  Uiso   1.00
C395   C     0.90879   0.49374   0.40772   0.00000  Uiso   1.00
C396   C     0.75870   0.49585   0.09217   0.00000  Uiso   1.00
C397   C     0.88957   0.50160   0.45316   0.00000  Uiso   1.00
C398   C     0.77574   0.48728   0.04650   0.00000  Uiso   1.00
C399   C     0.92253   0.51128   0.47779   0.00000  Uiso   1.00
C400   C     0.74145   0.47958   0.02294   0.00000  Uiso   1.00
C401   C     0.83936   0.49635   0.47552   0.00000  Uiso   1.00
C402   C     0.82565   0.49036   0.02308   0.00000  Uiso   1.00
Cu403  Cu    0.71355   0.50001   0.25000   0.00000  Uiso   1.00
Cu404  Cu    0.95311   0.49999   0.25000   0.00000  Uiso   1.00
H405   H     0.93495   0.50770   0.04251   0.00000  Uiso   1.00
H406   H     0.72787   0.48041   0.45881   0.00000  Uiso   1.00
H407   H     0.78339   0.50797   0.10924   0.00000  Uiso   1.00
H408   H     0.88764   0.47688   0.39050   0.00000  Uiso   1.00
H409   H     0.97201   0.47391   0.11013   0.00000  Uiso   1.00
H410   H     0.69154   0.52783   0.39150   0.00000  Uiso   1.00
H411   H     0.99601   0.53083   0.47375   0.00000  Uiso   1.00
H412   H     0.99982   0.46445   0.02880   0.00000  Uiso   1.00
H413   H     0.93025   0.37014   0.23613   0.00000  Uiso   1.00
H414   H     0.73645   0.62987   0.26380   0.00000  Uiso   1.00
H415   H     0.93049   0.62876   0.23614   0.00000  Uiso   1.00
H416   H     0.73619   0.37125   0.26383   0.00000  Uiso   1.00
H417   H     0.77393   0.45052   0.29696   0.00000  Uiso   1.00
H418   H     0.89261   0.54973   0.20332   0.00000  Uiso   1.00
N419   N     0.78403   0.50001   0.24999   0.00000  Uiso   1.00
N420   N     0.88264   0.49999   0.25001   0.00000  Uiso   1.00
O421   O     0.70625   0.43989   0.25000   0.00000  Uiso   1.00
O422   O     0.96042   0.56011   0.25000   0.00000  Uiso   1.00
O423   O     0.96039   0.43988   0.25000   0.00000  Uiso   1.00
O424   O     0.70628   0.56012   0.24999   0.00000  Uiso   1.00
O425   O     0.68519   0.50001   0.31491   0.00000  Uiso   1.00
O426   O     0.98148   0.49999   0.18508   0.00000  Uiso   1.00
O427   O     0.93933   0.50000   0.31492   0.00000  Uiso   1.00
O428   O     0.72733   0.50000   0.18508   0.00000  Uiso   1.00
C429   C     0.85914   0.45791   0.08441   0.00000  Uiso   1.00
C430   C     0.86538   0.47750   0.12671   0.00000  Uiso   1.00
H431   H     0.88724   0.50657   0.11914   0.00000  Uiso   1.00
H432   H     0.82947   0.48356   0.15005   0.00000  Uiso   1.00
H433   H     0.88353   0.45564   0.14445   0.00000  Uiso   1.00
H434   H     0.82492   0.43932   0.09297   0.00000  Uiso   1.00
H435   H     0.88848   0.43526   0.07289   0.00000  Uiso   1.00
C436   C     0.80639   0.52093   0.40864   0.00000  Uiso   1.00
C437   C     0.82262   0.56581   0.40975   0.00000  Uiso   1.00
H438   H     0.79824   0.58118   0.43893   0.00000  Uiso   1.00
H439   H     0.86038   0.56805   0.41185   0.00000  Uiso   1.00
H440   H     0.82103   0.58241   0.37855   0.00000  Uiso   1.00
H441   H     0.82925   0.50587   0.37891   0.00000  Uiso   1.00
H442   H     0.77054   0.52190   0.40186   0.00000  Uiso   1.00
I443   I     0.86408   0.42630   0.31972   0.00000  Uiso   1.00
I444   I     0.80233   0.57336   0.17981   0.00000  Uiso   1.00
C445   C     0.33314   0.75410   0.25005   0.00000  Uiso   1.00
C446   C     0.00019   0.91257   0.24994   0.00000  Uiso   1.00
C447   C     0.19576   0.82168   0.04561   0.00000  Uiso   1.00
C448   C     0.13538   0.83094   0.45302   0.00000  Uiso   1.00
C449   C     0.24158   0.83859   0.02418   0.00000  Uiso   1.00
C450   C     0.08868   0.81660   0.47634   0.00000  Uiso   1.00
C451   C     0.29406   0.68766   0.24241   0.00000  Uiso   1.00
C452   C     0.03930   0.97900   0.25755   0.00000  Uiso   1.00
C453   C     0.29428   0.97838   0.24235   0.00000  Uiso   1.00
C454   C     0.03907   0.68829   0.25762   0.00000  Uiso   1.00
C455   C     0.00026   0.95722   0.24988   0.00000  Uiso   1.00
C456   C     0.33309   0.70944   0.25009   0.00000  Uiso   1.00
C457   C     0.18209   0.80555   0.27631   0.00000  Uiso   1.00
C458   C     0.15107   0.86147   0.22410   0.00000  Uiso   1.00
C459   C     0.13298   0.80583   0.27609   0.00000  Uiso   1.00
C460   C     0.20023   0.86111   0.22423   0.00000  Uiso   1.00
C461   C     0.30585   0.83404   0.33595   0.00000  Uiso   1.00
C462   C     0.02748   0.83156   0.16407   0.00000  Uiso   1.00
C463   C     0.29011   0.83734   0.38486   0.00000  Uiso   1.00
C464   C     0.04289   0.82502   0.11547   0.00000  Uiso   1.00
C465   C     0.30431   0.85503   0.45527   0.00000  Uiso   1.00
C466   C     0.02585   0.80622   0.04644   0.00000  Uiso   1.00
C467   C     0.32106   0.85246   0.40868   0.00000  Uiso   1.00
C468   C     0.00996   0.81208   0.09259   0.00000  Uiso   1.00
C469   C     0.24213   0.82708   0.40772   0.00000  Uiso   1.00
C470   C     0.09204   0.82918   0.09217   0.00000  Uiso   1.00
C471   C     0.22291   0.83493   0.45316   0.00000  Uiso   1.00
C472   C     0.10907   0.82061   0.04650   0.00000  Uiso   1.00
C473   C     0.25586   0.84462   0.47779   0.00000  Uiso   1.00
C474   C     0.07478   0.81291   0.02294   0.00000  Uiso   1.00
C475   C     0.17269   0.82968   0.47552   0.00000  Uiso   1.00
C476   C     0.15899   0.82370   0.02308   0.00000  Uiso   1.00
Cu477  Cu    0.04689   0.83334   0.25000   0.00000  Uiso   1.00
Cu478  Cu    0.28645   0.83333   0.25000   0.00000  Uiso   1.00
H479   H     0.26828   0.84104   0.04251   0.00000  Uiso   1.00
H480   H     0.06120   0.81375   0.45881   0.00000  Uiso   1.00
H481   H     0.11672   0.84130   0.10924   0.00000  Uiso   1.00
H482   H     0.22098   0.81021   0.39050   0.00000  Uiso   1.00
H483   H     0.30534   0.80724   0.11013   0.00000  Uiso   1.00
H484   H     0.02487   0.86117   0.39150   0.00000  Uiso   1.00
H485   H     0.32934   0.86416   0.47375   0.00000  Uiso   1.00
H486   H     0.33315   0.79778   0.02880   0.00000  Uiso   1.00
H487   H     0.26358   0.70347   0.23613   0.00000  Uiso   1.00
H488   H     0.06978   0.96320   0.26380   0.00000  Uiso   1.00
H489   H     0.26382   0.96209   0.23614   0.00000  Uiso   1.00
H490   H     0.06953   0.70458   0.26383   0.00000  Uiso   1.00
H491   H     0.10726   0.78385   0.29696   0.00000  Uiso   1.00
H492   H     0.22594   0.88307   0.20332   0.00000  Uiso   1.00
N493   N     0.11736   0.83334   0.24999   0.00000  Uiso   1.00
N494   N     0.21597   0.83332   0.25001   0.00000  Uiso   1.00
O495   O     0.03958   0.77322   0.25000   0.00000  Uiso   1.00
O496   O     0.29375   0.89345   0.25000   0.00000  Uiso   1.00
O497   O     0.29372   0.77321   0.25000   0.00000  Uiso   1.00
O498   O     0.03961   0.89346   0.24999   0.00000  Uiso   1.00
O499   O     0.01852   0.83334   0.31491   0.00000  Uiso   1.00
O500   O     0.31481   0.83332   0.18508   0.00000  Uiso   1.00
O501   O     0.27267   0.83333   0.31492   0.00000  Uiso   1.00
O502   O     0.06067   0.83333   0.18508   0.00000  Uiso   1.00
C503   C     0.19247   0.79124   0.08441   0.00000  Uiso   1.00
C504   C     0.19871   0.81084   0.12671   0.00000  Uiso   1.00
H505   H     0.22058   0.83990   0.11914   0.00000  Uiso   1.00
H506   H     0.16280   0.81690   0.15005   0.00000  Uiso   1.00
H507   H     0.21686   0.78897   0.14445   0.00000  Uiso   1.00
H508   H     0.15825   0.77265   0.09297   0.00000  Uiso   1.00
H509   H     0.22181   0.76860   0.07289   0.00000  Uiso   1.00
C510   C     0.13973   0.85426   0.40864   0.00000  Uiso   1.00
C511   C     0.15595   0.89915   0.40975   0.00000  Uiso   1.00
H512   H     0.13157   0.91452   0.43893   0.00000  Uiso   1.00
H513   H     0.19371   0.90139   0.41185   0.00000  Uiso   1.00
H514   H     0.15436   0.91575   0.37855   0.00000  Uiso   1.00
H515   H     0.16259   0.83920   0.37891   0.00000  Uiso   1.00
H516   H     0.10387   0.85523   0.40186   0.00000  Uiso   1.00
I517   I     0.19741   0.75963   0.31972   0.00000  Uiso   1.00
I518   I     0.13566   0.90670   0.17981   0.00000  Uiso   1.00
C519   C     0.66647   0.75410   0.25005   0.00000  Uiso   1.00
C520   C     0.33353   0.91257   0.24994   0.00000  Uiso   1.00
C521   C     0.52909   0.82168   0.04561   0.00000  Uiso   1.00
C522   C     0.46871   0.83094   0.45302   0.00000  Uiso   1.00
C523   C     0.57492   0.83859   0.02418   0.00000  Uiso   1.00
C524   C     0.42201   0.81660   0.47634   0.00000  Uiso   1.00
C525   C     0.62739   0.68766   0.24241   0.00000  Uiso   1.00
C526   C     0.37263   0.97900   0.25755   0.00000  Uiso   1.00
C527   C     0.62761   0.97838   0.24235   0.00000  Uiso   1.00
C528   C     0.37240   0.68829   0.25762   0.00000  Uiso   1.00
C529   C     0.33359   0.95722   0.24988   0.00000  Uiso   1.00
C530   C     0.66642   0.70944   0.25009   0.00000  Uiso   1.00
C531   C     0.51543   0.80555   0.27631   0.00000  Uiso   1.00
C532   C     0.48440   0.86147   0.22410   0.00000  Uiso   1.00
C533   C     0.46632   0.80583   0.27609   0.00000  Uiso   1.00
C534   C     0.53357   0.86111   0.22423   0.00000  Uiso   1.00
C535   C     0.63919   0.83404   0.33595   0.00000  Uiso   1.00
C536   C     0.36081   0.83156   0.16407   0.00000  Uiso   1.00
C537   C     0.62345   0.83734   0.38486   0.00000  Uiso   1.00
C538   C     0.37622   0.82502   0.11547   0.00000  Uiso   1.00
C539   C     0.63765   0.85503   0.45527   0.00000  Uiso   1.00
C540   C     0.35918   0.80622   0.04644   0.00000  Uiso   1.00
C541   C     0.65439   0.85246   0.40868   0.00000  Uiso   1.00
C542   C     0.34329   0.81208   0.09259   0.00000  Uiso   1.00
C543   C     0.57546   0.82708   0.40772   0.00000  Uiso   1.00
C544   C     0.42537   0.82918   0.09217   0.00000  Uiso   1.00
C545   C     0.55624   0.83493   0.45316   0.00000  Uiso   1.00
C546   C     0.44240   0.82061   0.04650   0.00000  Uiso   1.00
C547   C     0.58920   0.84462   0.47779   0.00000  Uiso   1.00
C548   C     0.40811   0.81291   0.02294   0.00000  Uiso   1.00
C549   C     0.50602   0.82968   0.47552   0.00000  Uiso   1.00
C550   C     0.49232   0.82370   0.02308   0.00000  Uiso   1.00
Cu551  Cu    0.38022   0.83334   0.25000   0.00000  Uiso   1.00
Cu552  Cu    0.61978   0.83333   0.25000   0.00000  Uiso   1.00
H553   H     0.60162   0.84104   0.04251   0.00000  Uiso   1.00
H554   H     0.39454   0.81375   0.45881   0.00000  Uiso   1.00
H555   H     0.45005   0.84130   0.10924   0.00000  Uiso   1.00
H556   H     0.55431   0.81021   0.39050   0.00000  Uiso   1.00
H557   H     0.63867   0.80724   0.11013   0.00000  Uiso   1.00
H558   H     0.35821   0.86117   0.39150   0.00000  Uiso   1.00
H559   H     0.66267   0.86416   0.47375   0.00000  Uiso   1.00
H560   H     0.66649   0.79778   0.02880   0.00000  Uiso   1.00
H561   H     0.59692   0.70347   0.23613   0.00000  Uiso   1.00
H562   H     0.40311   0.96320   0.26380   0.00000  Uiso   1.00
H563   H     0.59715   0.96209   0.23614   0.00000  Uiso   1.00
H564   H     0.40286   0.70458   0.26383   0.00000  Uiso   1.00
H565   H     0.44060   0.78385   0.29696   0.00000  Uiso   1.00
H566   H     0.55928   0.88307   0.20332   0.00000  Uiso   1.00
N567   N     0.45069   0.83334   0.24999   0.00000  Uiso   1.00
N568   N     0.54931   0.83332   0.25001   0.00000  Uiso   1.00
O569   O     0.37291   0.77322   0.25000   0.00000  Uiso   1.00
O570   O     0.62709   0.89345   0.25000   0.00000  Uiso   1.00
O571   O     0.62706   0.77321   0.25000   0.00000  Uiso   1.00
O572   O     0.37294   0.89346   0.24999   0.00000  Uiso   1.00
O573   O     0.35186   0.83334   0.31491   0.00000  Uiso   1.00
O574   O     0.64814   0.83332   0.18508   0.00000  Uiso   1.00
O575   O     0.60600   0.83333   0.31492   0.00000  Uiso   1.00
O576   O     0.39400   0.83333   0.18508   0.00000  Uiso   1.00
C577   C     0.52581   0.79124   0.08441   0.00000  Uiso   1.00
C578   C     0.53205   0.81084   0.12671   0.00000  Uiso   1.00
H579   H     0.55391   0.83990   0.11914   0.00000  Uiso   1.00
H580   H     0.49614   0.81690   0.15005   0.00000  Uiso   1.00
H581   H     0.55019   0.78897   0.14445   0.00000  Uiso   1.00
H582   H     0.49159   0.77265   0.09297   0.00000  Uiso   1.00
H583   H     0.55514   0.76860   0.07289   0.00000  Uiso   1.00
C584   C     0.47306   0.85426   0.40864   0.00000  Uiso   1.00
C585   C     0.48928   0.89915   0.40975   0.00000  Uiso   1.00
H586   H     0.46491   0.91452   0.43893   0.00000  Uiso   1.00
H587   H     0.52704   0.90139   0.41185   0.00000  Uiso   1.00
H588   H     0.48769   0.91575   0.37855   0.00000  Uiso   1.00
H589   H     0.49592   0.83920   0.37891   0.00000  Uiso   1.00
H590   H     0.43720   0.85523   0.40186   0.00000  Uiso   1.00
I591   I     0.53075   0.75963   0.31972   0.00000  Uiso   1.00
I592   I     0.46899   0.90670   0.17981   0.00000  Uiso   1.00
C593   C     0.99981   0.75410   0.25005   0.00000  Uiso   1.00
C594   C     0.66686   0.91257   0.24994   0.00000  Uiso   1.00
C595   C     0.86242   0.82168   0.04561   0.00000  Uiso   1.00
C596   C     0.80205   0.83094   0.45302   0.00000  Uiso   1.00
C597   C     0.90825   0.83859   0.02418   0.00000  Uiso   1.00
C598   C     0.75534   0.81660   0.47634   0.00000  Uiso   1.00
C599   C     0.96072   0.68766   0.24241   0.00000  Uiso   1.00
C600   C     0.70596   0.97900   0.25755   0.00000  Uiso   1.00
C601   C     0.96094   0.97838   0.24235   0.00000  Uiso   1.00
C602   C     0.70574   0.68829   0.25762   0.00000  Uiso   1.00
C603   C     0.66692   0.95722   0.24988   0.00000  Uiso   1.00
C604   C     0.99975   0.70944   0.25009   0.00000  Uiso   1.00
C605   C     0.84876   0.80555   0.27631   0.00000  Uiso   1.00
C606   C     0.81774   0.86147   0.22410   0.00000  Uiso   1.00
C607   C     0.79965   0.80583   0.27609   0.00000  Uiso   1.00
C608   C     0.86690   0.86111   0.22423   0.00000  Uiso   1.00
C609   C     0.97252   0.83404   0.33595   0.00000  Uiso   1.00
C610   C     0.69415   0.83156   0.16407   0.00000  Uiso   1.00
C611   C     0.95678   0.83734   0.38486   0.00000  Uiso   1.00
C612   C     0.70956   0.82502   0.11547   0.00000  Uiso   1.00
C613   C     0.97098   0.85503   0.45527   0.00000  Uiso   1.00
C614   C     0.69251   0.80622   0.04644   0.00000  Uiso   1.00
C615   C     0.98772   0.85246   0.40868   0.00000  Uiso   1.00
C616   C     0.67663   0.81208   0.09259   0.00000  Uiso   1.00
C617   C     0.90879   0.82708   0.40772   0.00000  Uiso   1.00
C618   C     0.75870   0.82918   0.09217   0.00000  Uiso   1.00
C619   C     0.88957   0.83493   0.45316   0.00000  Uiso   1.00
C620   C     0.77574   0.82061   0.04650   0.00000  Uiso   1.00
C621   C     0.92253   0.84462   0.47779   0.00000  Uiso   1.00
C622   C     0.74145   0.81291   0.02294   0.00000  Uiso   1.00
C623   C     0.83936   0.82968   0.47552   0.00000  Uiso   1.00
C624   C     0.82565   0.82370   0.02308   0.00000  Uiso   1.00
Cu625  Cu    0.71355   0.83334   0.25000   0.00000  Uiso   1.00
Cu626  Cu    0.95311   0.83333   0.25000   0.00000  Uiso   1.00
H627   H     0.93495   0.84104   0.04251   0.00000  Uiso   1.00
H628   H     0.72787   0.81375   0.45881   0.00000  Uiso   1.00
H629   H     0.78339   0.84130   0.10924   0.00000  Uiso   1.00
H630   H     0.88764   0.81021   0.39050   0.00000  Uiso   1.00
H631   H     0.97201   0.80724   0.11013   0.00000  Uiso   1.00
H632   H     0.69154   0.86117   0.39150   0.00000  Uiso   1.00
H633   H     0.99601   0.86416   0.47375   0.00000  Uiso   1.00
H634   H     0.99982   0.79778   0.02880   0.00000  Uiso   1.00
H635   H     0.93025   0.70347   0.23613   0.00000  Uiso   1.00
H636   H     0.73645   0.96320   0.26380   0.00000  Uiso   1.00
H637   H     0.93049   0.96209   0.23614   0.00000  Uiso   1.00
H638   H     0.73619   0.70458   0.26383   0.00000  Uiso   1.00
H639   H     0.77393   0.78385   0.29696   0.00000  Uiso   1.00
H640   H     0.89261   0.88307   0.20332   0.00000  Uiso   1.00
N641   N     0.78403   0.83334   0.24999   0.00000  Uiso   1.00
N642   N     0.88264   0.83332   0.25001   0.00000  Uiso   1.00
O643   O     0.70625   0.77322   0.25000   0.00000  Uiso   1.00
O644   O     0.96042   0.89345   0.25000   0.00000  Uiso   1.00
O645   O     0.96039   0.77321   0.25000   0.00000  Uiso   1.00
O646   O     0.70628   0.89346   0.24999   0.00000  Uiso   1.00
O647   O     0.68519   0.83334   0.31491   0.00000  Uiso   1.00
O648   O     0.98148   0.83332   0.18508   0.00000  Uiso   1.00
O649   O     0.93933   0.83333   0.31492   0.00000  Uiso   1.00
O650   O     0.72733   0.83333   0.18508   0.00000  Uiso   1.00
C651   C     0.85914   0.79124   0.08441   0.00000  Uiso   1.00
C652   C     0.86538   0.81084   0.12671   0.00000  Uiso   1.00
H653   H     0.88724   0.83990   0.11914   0.00000  Uiso   1.00
H654   H     0.82947   0.81690   0.15005   0.00000  Uiso   1.00
H655   H     0.88353   0.78897   0.14445   0.00000  Uiso   1.00
H656   H     0.82492   0.77265   0.09297   0.00000  Uiso   1.00
H657   H     0.88848   0.76860   0.07289   0.00000  Uiso   1.00
C658   C     0.80639   0.85426   0.40864   0.00000  Uiso   1.00
C659   C     0.82262   0.89915   0.40975   0.00000  Uiso   1.00
H660   H     0.79824   0.91452   0.43893   0.00000  Uiso   1.00
H661   H     0.86038   0.90139   0.41185   0.00000  Uiso   1.00
H662   H     0.82103   0.91575   0.37855   0.00000  Uiso   1.00
H663   H     0.82925   0.83920   0.37891   0.00000  Uiso   1.00
H664   H     0.77054   0.85523   0.40186   0.00000  Uiso   1.00
I665   I     0.86408   0.75963   0.31972   0.00000  Uiso   1.00
I666   I     0.80233   0.90670   0.17981   0.00000  Uiso   1.00
C667   C     0.33314   0.08743   0.75005   0.00000  Uiso   1.00
C668   C     0.00019   0.24590   0.74994   0.00000  Uiso   1.00
C669   C     0.19576   0.15502   0.54561   0.00000  Uiso   1.00
C670   C     0.13538   0.16427   0.95302   0.00000  Uiso   1.00
C671   C     0.24158   0.17192   0.52418   0.00000  Uiso   1.00
C672   C     0.08868   0.14993   0.97634   0.00000  Uiso   1.00
C673   C     0.29406   0.02100   0.74241   0.00000  Uiso   1.00
C674   C     0.03930   0.31234   0.75755   0.00000  Uiso   1.00
C675   C     0.29428   0.31171   0.74235   0.00000  Uiso   1.00
C676   C     0.03907   0.02162   0.75762   0.00000  Uiso   1.00
C677   C     0.00026   0.29056   0.74988   0.00000  Uiso   1.00
C678   C     0.33309   0.04278   0.75009   0.00000  Uiso   1.00
C679   C     0.18209   0.13889   0.77631   0.00000  Uiso   1.00
C680   C     0.15107   0.19480   0.72410   0.00000  Uiso   1.00
C681   C     0.13298   0.13917   0.77609   0.00000  Uiso   1.00
C682   C     0.20023   0.19445   0.72423   0.00000  Uiso   1.00
C683   C     0.30585   0.16737   0.83595   0.00000  Uiso   1.00
C684   C     0.02748   0.16490   0.66407   0.00000  Uiso   1.00
C685   C     0.29011   0.17067   0.88486   0.00000  Uiso   1.00
C686   C     0.04289   0.15835   0.61547   0.00000  Uiso   1.00
C687   C     0.30431   0.18837   0.95527   0.00000  Uiso   1.00
C688   C     0.02585   0.13956   0.54644   0.00000  Uiso   1.00
C689   C     0.32106   0.18579   0.90868   0.00000  Uiso   1.00
C690   C     0.00996   0.14542   0.59259   0.00000  Uiso   1.00
C691   C     0.24213   0.16041   0.90772   0.00000  Uiso   1.00
C692   C     0.09204   0.16251   0.59217   0.00000  Uiso   1.00
C693   C     0.22291   0.16826   0.95316   0.00000  Uiso   1.00
C694   C     0.10907   0.15395   0.54650   0.00000  Uiso   1.00
C695   C     0.25586   0.17795   0.97779   0.00000  Uiso   1.00
C696   C     0.07478   0.14625   0.52294   0.00000  Uiso   1.00
C697   C     0.17269   0.16302   0.97552   0.00000  Uiso   1.00
C698   C     0.15899   0.15703   0.52308   0.00000  Uiso   1.00
Cu699  Cu    0.04689   0.16667   0.75000   0.00000  Uiso   1.00
Cu700  Cu    0.28645   0.16666   0.75000   0.00000  Uiso   1.00
H701   H     0.26828   0.17437   0.54251   0.00000  Uiso   1.00
H702   H     0.06120   0.14708   0.95881   0.00000  Uiso   1.00
H703   H     0.11672   0.17463   0.60924   0.00000  Uiso   1.00
H704   H     0.22098   0.14354   0.89050   0.00000  Uiso   1.00
H705   H     0.30534   0.14058   0.61013   0.00000  Uiso   1.00
H706   H     0.02487   0.19450   0.89150   0.00000  Uiso   1.00
H707   H     0.32934   0.19750   0.97375   0.00000  Uiso   1.00
H708   H     0.33315   0.13111   0.52880   0.00000  Uiso   1.00
H709   H     0.26358   0.03680   0.73613   0.00000  Uiso   1.00
H710   H     0.06978   0.29653   0.76380   0.00000  Uiso   1.00
H711   H     0.26382   0.29542   0.73614   0.00000  Uiso   1.00
H712   H     0.06953   0.03791   0.76383   0.00000  Uiso   1.00
H713   H     0.10726   0.11719   0.79696   0.00000  Uiso   1.00
H714   H     0.22594   0.21640   0.70332   0.00000  Uiso   1.00
N715   N     0.11736   0.16668   0.74999   0.00000  Uiso   1.00
N716   N     0.21597   0.16666   0.75001   0.00000  Uiso   1.00
O717   O     0.03958   0.10655   0.75000   0.00000  Uiso   1.00
O718   O     0.29375   0.22678   0.75000   0.00000  Uiso   1.00
O719   O     0.29372   0.10654   0.75000   0.00000  Uiso   1.00
O720   O     0.03961   0.22679   0.74999   0.00000  Uiso   1.00
O721   O     0.01852   0.16668   0.81491   0.00000  Uiso   1.00
O722   O     0.31481   0.16666   0.68508   0.00000  Uiso   1.00
O723   O     0.27267   0.16667   0.81492   0.00000  Uiso   1.00
O724   O     0.06067   0.16667   0.68508   0.00000  Uiso   1.00
C725   C     0.19247   0.12457   0.58441   0.00000  Uiso   1.00
C726   C     0.19871   0.14417   0.62671   0.00000  Uiso   1.00
H727   H     0.22058   0.17323   0.61914   0.00000  Uiso   1.00
H728   H     0.16280   0.15023   0.65005   0.00000  Uiso   1.00
H729   H     0.21686   0.12231   0.64445   0.00000  Uiso   1.00
H730   H     0.15825   0.10599   0.59297   0.00000  Uiso   1.00
H731   H     0.22181   0.10193   0.57289   0.00000  Uiso   1.00
C732   C     0.13973   0.18759   0.90864   0.00000  Uiso   1.00
C733   C     0.15595   0.23248   0.90975   0.00000  Uiso   1.00
H734   H     0.13157   0.24785   0.93893   0.00000  Uiso   1.00
H735   H     0.19371   0.23472   0.91185   0.00000  Uiso   1.00
H736   H     0.15436   0.24908   0.87855   0.00000  Uiso   1.00
H737   H     0.16259   0.17254   0.87891   0.00000  Uiso   1.00
H738   H     0.10387   0.18856   0.90186   0.00000  Uiso   1.00
I739   I     0.19741   0.09297   0.81972   0.00000  Uiso   1.00
I740   I     0.13566   0.24003   0.67981   0.00000  Uiso   1.00
C741   C     0.66647   0.08743   0.75005   0.00000  Uiso   1.00
C742   C     0.33353   0.24590   0.74994   0.00000  Uiso   1.00
C743   C     0.52909   0.15502   0.54561   0.00000  Uiso   1.00
C744   C     0.46871   0.16427   0.95302   0.00000  Uiso   1.00
C745   C     0.57492   0.17192   0.52418   0.00000  Uiso   1.00
C746   C     0.42201   0.14993   0.97634   0.00000  Uiso   1.00
C747   C     0.62739   0.02100   0.74241   0.00000  Uiso   1.00
C748   C     0.37263   0.31234   0.75755   0.00000  Uiso   1.00
C749   C     0.62761   0.31171   0.74235   0.00000  Uiso   1.00
C750   C     0.37240   0.02162   0.75762   0.00000  Uiso   1.00
C751   C     0.33359   0.29056   0.74988   0.00000  Uiso   1.00
C752   C     0.66642   0.04278   0.75009   0.00000  Uiso   1.00
C753   C     0.51543   0.13889   0.77631   0.00000  Uiso   1.00
C754   C     0.48440   0.19480   0.72410   0.00000  Uiso   1.00
C755   C     0.46632   0.13917   0.77609   0.00000  Uiso   1.00
C756   C     0.53357   0.19445   0.72423   0.00000  Uiso   1.00
C757   C     0.63919   0.16737   0.83595   0.00000  Uiso   1.00
C758   C     0.36081   0.16490   0.66407   0.00000  Uiso   1.00
C759   C     0.62345   0.17067   0.88486   0.00000  Uiso   1.00
C760   C     0.37622   0.15835   0.61547   0.00000  Uiso   1.00
C761   C     0.63765   0.18837   0.95527   0.00000  Uiso   1.00
C762   C     0.35918   0.13956   0.54644   0.00000  Uiso   1.00
C763   C     0.65439   0.18579   0.90868   0.00000  Uiso   1.00
C764   C     0.34329   0.14542   0.59259   0.00000  Uiso   1.00
C765   C     0.57546   0.16041   0.90772   0.00000  Uiso   1.00
C766   C     0.42537   0.16251   0.59217   0.00000  Uiso   1.00
C767   C     0.55624   0.16826   0.95316   0.00000  Uiso   1.00
C768   C     0.44240   0.15395   0.54650   0.00000  Uiso   1.00
C769   C     0.58920   0.17795   0.97779   0.00000  Uiso   1.00
C770   C     0.40811   0.14625   0.52294   0.00000  Uiso   1.00
C771   C     0.50602   0.16302   0.97552   0.00000  Uiso   1.00
C772   C     0.49232   0.15703   0.52308   0.00000  Uiso   1.00
Cu773  Cu    0.38022   0.16667   0.75000   0.00000  Uiso   1.00
Cu774  Cu    0.61978   0.16666   0.75000   0.00000  Uiso   1.00
H775   H     0.60162   0.17437   0.54251   0.00000  Uiso   1.00
H776   H     0.39454   0.14708   0.95881   0.00000  Uiso   1.00
H777   H     0.45005   0.17463   0.60924   0.00000  Uiso   1.00
H778   H     0.55431   0.14354   0.89050   0.00000  Uiso   1.00
H779   H     0.63867   0.14058   0.61013   0.00000  Uiso   1.00
H780   H     0.35821   0.19450   0.89150   0.00000  Uiso   1.00
H781   H     0.66267   0.19750   0.97375   0.00000  Uiso   1.00
H782   H     0.66649   0.13111   0.52880   0.00000  Uiso   1.00
H783   H     0.59692   0.03680   0.73613   0.00000  Uiso   1.00
H784   H     0.40311   0.29653   0.76380   0.00000  Uiso   1.00
H785   H     0.59715   0.29542   0.73614   0.00000  Uiso   1.00
H786   H     0.40286   0.03791   0.76383   0.00000  Uiso   1.00
H787   H     0.44060   0.11719   0.79696   0.00000  Uiso   1.00
H788   H     0.55928   0.21640   0.70332   0.00000  Uiso   1.00
N789   N     0.45069   0.16668   0.74999   0.00000  Uiso   1.00
N790   N     0.54931   0.16666   0.75001   0.00000  Uiso   1.00
O791   O     0.37291   0.10655   0.75000   0.00000  Uiso   1.00
O792   O     0.62709   0.22678   0.75000   0.00000  Uiso   1.00
O793   O     0.62706   0.10654   0.75000   0.00000  Uiso   1.00
O794   O     0.37294   0.22679   0.74999   0.00000  Uiso   1.00
O795   O     0.35186   0.16668   0.81491   0.00000  Uiso   1.00
O796   O     0.64814   0.16666   0.68508   0.00000  Uiso   1.00
O797   O     0.60600   0.16667   0.81492   0.00000  Uiso   1.00
O798   O     0.39400   0.16667   0.68508   0.00000  Uiso   1.00
C799   C     0.52581   0.12457   0.58441   0.00000  Uiso   1.00
C800   C     0.53205   0.14417   0.62671   0.00000  Uiso   1.00
H801   H     0.55391   0.17323   0.61914   0.00000  Uiso   1.00
H802   H     0.49614   0.15023   0.65005   0.00000  Uiso   1.00
H803   H     0.55019   0.12231   0.64445   0.00000  Uiso   1.00
H804   H     0.49159   0.10599   0.59297   0.00000  Uiso   1.00
H805   H     0.55514   0.10193   0.57289   0.00000  Uiso   1.00
C806   C     0.47306   0.18759   0.90864   0.00000  Uiso   1.00
C807   C     0.48928   0.23248   0.90975   0.00000  Uiso   1.00
H808   H     0.46491   0.24785   0.93893   0.00000  Uiso   1.00
H809   H     0.52704   0.23472   0.91185   0.00000  Uiso   1.00
H810   H     0.48769   0.24908   0.87855   0.00000  Uiso   1.00
H811   H     0.49592   0.17254   0.87891   0.00000  Uiso   1.00
H812   H     0.43720   0.18856   0.90186   0.00000  Uiso   1.00
I813   I     0.53075   0.09297   0.81972   0.00000  Uiso   1.00
I814   I     0.46899   0.24003   0.67981   0.00000  Uiso   1.00
C815   C     0.99981   0.08743   0.75005   0.00000  Uiso   1.00
C816   C     0.66686   0.24590   0.74994   0.00000  Uiso   1.00
C817   C     0.86242   0.15502   0.54561   0.00000  Uiso   1.00
C818   C     0.80205   0.16427   0.95302   0.00000  Uiso   1.00
C819   C     0.90825   0.17192   0.52418   0.00000  Uiso   1.00
C820   C     0.75534   0.14993   0.97634   0.00000  Uiso   1.00
C821   C     0.96072   0.02100   0.74241   0.00000  Uiso   1.00
C822   C     0.70596   0.31234   0.75755   0.00000  Uiso   1.00
C823   C     0.96094   0.31171   0.74235   0.00000  Uiso   1.00
C824   C     0.70574   0.02162   0.75762   0.00000  Uiso   1.00
C825   C     0.66692   0.29056   0.74988   0.00000  Uiso   1.00
C826   C     0.99975   0.04278   0.75009   0.00000  Uiso   1.00
C827   C     0.84876   0.13889   0.77631   0.00000  Uiso   1.00
C828   C     0.81774   0.19480   0.72410   0.00000  Uiso   1.00
C829   C     0.79965   0.13917   0.77609   0.00000  Uiso   1.00
C830   C     0.86690   0.19445   0.72423   0.00000  Uiso   1.00
C831   C     0.97252   0.16737   0.83595   0.00000  Uiso   1.00
C832   C     0.69415   0.16490   0.66407   0.00000  Uiso   1.00
C833   C     0.95678   0.17067   0.88486   0.00000  Uiso   1.00
C834   C     0.70956   0.15835   0.61547   0.00000  Uiso   1.00
C835   C     0.97098   0.18837   0.95527   0.00000  Uiso   1.00
C836   C     0.69251   0.13956   0.54644   0.00000  Uiso   1.00
C837   C     0.98772   0.18579   0.90868   0.00000  Uiso   1.00
C838   C     0.67663   0.14542   0.59259   0.00000  Uiso   1.00
C839   C     0.90879   0.16041   0.90772   0.00000  Uiso   1.00
C840   C     0.75870   0.16251   0.59217   0.00000  Uiso   1.00
C841   C     0.88957   0.16826   0.95316   0.00000  Uiso   1.00
C842   C     0.77574   0.15395   0.54650   0.00000  Uiso   1.00
C843   C     0.92253   0.17795   0.97779   0.00000  Uiso   1.00
C844   C     0.74145   0.14625   0.52294   0.00000  Uiso   1.00
C845   C     0.83936   0.16302   0.97552   0.00000  Uiso   1.00
C846   C     0.82565   0.15703   0.52308   0.00000  Uiso   1.00
Cu847  Cu    0.71355   0.16667   0.75000   0.00000  Uiso   1.00
Cu848  Cu    0.95311   0.16666   0.75000   0.00000  Uiso   1.00
H849   H     0.93495   0.17437   0.54251   0.00000  Uiso   1.00
H850   H     0.72787   0.14708   0.95881   0.00000  Uiso   1.00
H851   H     0.78339   0.17463   0.60924   0.00000  Uiso   1.00
H852   H     0.88764   0.14354   0.89050   0.00000  Uiso   1.00
H853   H     0.97201   0.14058   0.61013   0.00000  Uiso   1.00
H854   H     0.69154   0.19450   0.89150   0.00000  Uiso   1.00
H855   H     0.99601   0.19750   0.97375   0.00000  Uiso   1.00
H856   H     0.99982   0.13111   0.52880   0.00000  Uiso   1.00
H857   H     0.93025   0.03680   0.73613   0.00000  Uiso   1.00
H858   H     0.73645   0.29653   0.76380   0.00000  Uiso   1.00
H859   H     0.93049   0.29542   0.73614   0.00000  Uiso   1.00
H860   H     0.73619   0.03791   0.76383   0.00000  Uiso   1.00
H861   H     0.77393   0.11719   0.79696   0.00000  Uiso   1.00
H862   H     0.89261   0.21640   0.70332   0.00000  Uiso   1.00
N863   N     0.78403   0.16668   0.74999   0.00000  Uiso   1.00
N864   N     0.88264   0.16666   0.75001   0.00000  Uiso   1.00
O865   O     0.70625   0.10655   0.75000   0.00000  Uiso   1.00
O866   O     0.96042   0.22678   0.75000   0.00000  Uiso   1.00
O867   O     0.96039   0.10654   0.75000   0.00000  Uiso   1.00
O868   O     0.70628   0.22679   0.74999   0.00000  Uiso   1.00
O869   O     0.68519   0.16668   0.81491   0.00000  Uiso   1.00
O870   O     0.98148   0.16666   0.68508   0.00000  Uiso   1.00
O871   O     0.93933   0.16667   0.81492   0.00000  Uiso   1.00
O872   O     0.72733   0.16667   0.68508   0.00000  Uiso   1.00
C873   C     0.85914   0.12457   0.58441   0.00000  Uiso   1.00
C874   C     0.86538   0.14417   0.62671   0.00000  Uiso   1.00
H875   H     0.88724   0.17323   0.61914   0.00000  Uiso   1.00
H876   H     0.82947   0.15023   0.65005   0.00000  Uiso   1.00
H877   H     0.88353   0.12231   0.64445   0.00000  Uiso   1.00
H878   H     0.82492   0.10599   0.59297   0.00000  Uiso   1.00
H879   H     0.88848   0.10193   0.57289   0.00000  Uiso   1.00
C880   C     0.80639   0.18759   0.90864   0.00000  Uiso   1.00
C881   C     0.82262   0.23248   0.90975   0.00000  Uiso   1.00
H882   H     0.79824   0.24785   0.93893   0.00000  Uiso   1.00
H883   H     0.86038   0.23472   0.91185   0.00000  Uiso   1.00
H884   H     0.82103   0.24908   0.87855   0.00000  Uiso   1.00
H885   H     0.82925   0.17254   0.87891   0.00000  Uiso   1.00
H886   H     0.77054   0.18856   0.90186   0.00000  Uiso   1.00
I887   I     0.86408   0.09297   0.81972   0.00000  Uiso   1.00
I888   I     0.80233   0.24003   0.67981   0.00000  Uiso   1.00
C889   C     0.33314   0.42076   0.75005   0.00000  Uiso   1.00
C890   C     0.00019   0.57923   0.74994   0.00000  Uiso   1.00
C891   C     0.19576   0.48835   0.54561   0.00000  Uiso   1.00
C892   C     0.13538   0.49760   0.95302   0.00000  Uiso   1.00
C893   C     0.24158   0.50526   0.52418   0.00000  Uiso   1.00
C894   C     0.08868   0.48326   0.97634   0.00000  Uiso   1.00
C895   C     0.29406   0.35433   0.74241   0.00000  Uiso   1.00
C896   C     0.03930   0.64567   0.75755   0.00000  Uiso   1.00
C897   C     0.29428   0.64505   0.74235   0.00000  Uiso   1.00
C898   C     0.03907   0.35496   0.75762   0.00000  Uiso   1.00
C899   C     0.00026   0.62389   0.74988   0.00000  Uiso   1.00
C900   C     0.33309   0.37611   0.75009   0.00000  Uiso   1.00
C901   C     0.18209   0.47222   0.77631   0.00000  Uiso   1.00
C902   C     0.15107   0.52813   0.72410   0.00000  Uiso   1.00
C903   C     0.13298   0.47250   0.77609   0.00000  Uiso   1.00
C904   C     0.20023   0.52778   0.72423   0.00000  Uiso   1.00
C905   C     0.30585   0.50071   0.83595   0.00000  Uiso   1.00
C906   C     0.02748   0.49823   0.66407   0.00000  Uiso   1.00
C907   C     0.29011   0.50401   0.88486   0.00000  Uiso   1.00
C908   C     0.04289   0.49168   0.61547   0.00000  Uiso   1.00
C909   C     0.30431   0.52170   0.95527   0.00000  Uiso   1.00
C910   C     0.02585   0.47289   0.54644   0.00000  Uiso   1.00
C911   C     0.32106   0.51913   0.90868   0.00000  Uiso   1.00
C912   C     0.00996   0.47875   0.59259   0.00000  Uiso   1.00
C913   C     0.24213   0.49374   0.90772   0.00000  Uiso   1.00
C914   C     0.09204   0.49585   0.59217   0.00000  Uiso   1.00
C915   C     0.22291   0.50160   0.95316   0.00000  Uiso   1.00
C916   C     0.10907   0.48728   0.54650   0.00000  Uiso   1.00
C917   C     0.25586   0.51128   0.97779   0.00000  Uiso   1.00
C918   C     0.07478   0.47958   0.52294   0.00000  Uiso   1.00
C919   C     0.17269   0.49635   0.97552   0.00000  Uiso   1.00
C920   C     0.15899   0.49036   0.52308   0.00000  Uiso   1.00
Cu921  Cu    0.04689   0.50001   0.75000   0.00000  Uiso   1.00
Cu922  Cu    0.28645   0.49999   0.75000   0.00000  Uiso   1.00
H923   H     0.26828   0.50770   0.54251   0.00000  Uiso   1.00
H924   H     0.06120   0.48041   0.95881   0.00000  Uiso   1.00
H925   H     0.11672   0.50797   0.60924   0.00000  Uiso   1.00
H926   H     0.22098   0.47688   0.89050   0.00000  Uiso   1.00
H927   H     0.30534   0.47391   0.61013   0.00000  Uiso   1.00
H928   H     0.02487   0.52783   0.89150   0.00000  Uiso   1.00
H929   H     0.32934   0.53083   0.97375   0.00000  Uiso   1.00
H930   H     0.33315   0.46445   0.52880   0.00000  Uiso   1.00
H931   H     0.26358   0.37014   0.73613   0.00000  Uiso   1.00
H932   H     0.06978   0.62987   0.76380   0.00000  Uiso   1.00
H933   H     0.26382   0.62876   0.73614   0.00000  Uiso   1.00
H934   H     0.06953   0.37125   0.76383   0.00000  Uiso   1.00
H935   H     0.10726   0.45052   0.79696   0.00000  Uiso   1.00
H936   H     0.22594   0.54973   0.70332   0.00000  Uiso   1.00
N937   N     0.11736   0.50001   0.74999   0.00000  Uiso   1.00
N938   N     0.21597   0.49999   0.75001   0.00000  Uiso   1.00
O939   O     0.03958   0.43989   0.75000   0.00000  Uiso   1.00
O940   O     0.29375   0.56011   0.75000   0.00000  Uiso   1.00
O941   O     0.29372   0.43988   0.75000   0.00000  Uiso   1.00
O942   O     0.03961   0.56012   0.74999   0.00000  Uiso   1.00
O943   O     0.01852   0.50001   0.81491   0.00000  Uiso   1.00
O944   O     0.31481   0.49999   0.68508   0.00000  Uiso   1.00
O945   O     0.27267   0.50000   0.81492   0.00000  Uiso   1.00
O946   O     0.06067   0.50000   0.68508   0.00000  Uiso   1.00
C947   C     0.19247   0.45791   0.58441   0.00000  Uiso   1.00
C948   C     0.19871   0.47750   0.62671   0.00000  Uiso   1.00
H949   H     0.22058   0.50657   0.61914   0.00000  Uiso   1.00
H950   H     0.16280   0.48356   0.65005   0.00000  Uiso   1.00
H951   H     0.21686   0.45564   0.64445   0.00000  Uiso   1.00
H952   H     0.15825   0.43932   0.59297   0.00000  Uiso   1.00
H953   H     0.22181   0.43526   0.57289   0.00000  Uiso   1.00
C954   C     0.13973   0.52093   0.90864   0.00000  Uiso   1.00
C955   C     0.15595   0.56581   0.90975   0.00000  Uiso   1.00
H956   H     0.13157   0.58118   0.93893   0.00000  Uiso   1.00
H957   H     0.19371   0.56805   0.91185   0.00000  Uiso   1.00
H958   H     0.15436   0.58241   0.87855   0.00000  Uiso   1.00
H959   H     0.16259   0.50587   0.87891   0.00000  Uiso   1.00
H960   H     0.10387   0.52190   0.90186   0.00000  Uiso   1.00
I961   I     0.19741   0.42630   0.81972   0.00000  Uiso   1.00
I962   I     0.13566   0.57336   0.67981   0.00000  Uiso   1.00
C963   C     0.66647   0.42076   0.75005   0.00000  Uiso   1.00
C964   C     0.33353   0.57923   0.74994   0.00000  Uiso   1.00
C965   C     0.52909   0.48835   0.54561   0.00000  Uiso   1.00
C966   C     0.46871   0.49760   0.95302   0.00000  Uiso   1.00
C967   C     0.57492   0.50526   0.52418   0.00000  Uiso   1.00
C968   C     0.42201   0.48326   0.97634   0.00000  Uiso   1.00
C969   C     0.62739   0.35433   0.74241   0.00000  Uiso   1.00
C970   C     0.37263   0.64567   0.75755   0.00000  Uiso   1.00
C971   C     0.62761   0.64505   0.74235   0.00000  Uiso   1.00
C972   C     0.37240   0.35496   0.75762   0.00000  Uiso   1.00
C973   C     0.33359   0.62389   0.74988   0.00000  Uiso   1.00
C974   C     0.66642   0.37611   0.75009   0.00000  Uiso   1.00
C975   C     0.51543   0.47222   0.77631   0.00000  Uiso   1.00
C976   C     0.48440   0.52813   0.72410   0.00000  Uiso   1.00
C977   C     0.46632   0.47250   0.77609   0.00000  Uiso   1.00
C978   C     0.53357   0.52778   0.72423   0.00000  Uiso   1.00
C979   C     0.63919   0.50071   0.83595   0.00000  Uiso   1.00
C980   C     0.36081   0.49823   0.66407   0.00000  Uiso   1.00
C981   C     0.62345   0.50401   0.88486   0.00000  Uiso   1.00
C982   C     0.37622   0.49168   0.61547   0.00000  Uiso   1.00
C983   C     0.63765   0.52170   0.95527   0.00000  Uiso   1.00
C984   C     0.35918   0.47289   0.54644   0.00000  Uiso   1.00
C985   C     0.65439   0.51913   0.90868   0.00000  Uiso   1.00
C986   C     0.34329   0.47875   0.59259   0.00000  Uiso   1.00
C987   C     0.57546   0.49374   0.90772   0.00000  Uiso   1.00
C988   C     0.42537   0.49585   0.59217   0.00000  Uiso   1.00
C989   C     0.55624   0.50160   0.95316   0.00000  Uiso   1.00
C990   C     0.44240   0.48728   0.54650   0.00000  Uiso   1.00
C991   C     0.58920   0.51128   0.97779   0.00000  Uiso   1.00
C992   C     0.40811   0.47958   0.52294   0.00000  Uiso   1.00
C993   C     0.50602   0.49635   0.97552   0.00000  Uiso   1.00
C994   C     0.49232   0.49036   0.52308   0.00000  Uiso   1.00
Cu995  Cu    0.38022   0.50001   0.75000   0.00000  Uiso   1.00
Cu996  Cu    0.61978   0.49999   0.75000   0.00000  Uiso   1.00
H997   H     0.60162   0.50770   0.54251   0.00000  Uiso   1.00
H998   H     0.39454   0.48041   0.95881   0.00000  Uiso   1.00
H999   H     0.45005   0.50797   0.60924   0.00000  Uiso   1.00
H1000  H     0.55431   0.47688   0.89050   0.00000  Uiso   1.00
H1001  H     0.63867   0.47391   0.61013   0.00000  Uiso   1.00
H1002  H     0.35821   0.52783   0.89150   0.00000  Uiso   1.00
H1003  H     0.66267   0.53083   0.97375   0.00000  Uiso   1.00
H1004  H     0.66649   0.46445   0.52880   0.00000  Uiso   1.00
H1005  H     0.59692   0.37014   0.73613   0.00000  Uiso   1.00
H1006  H     0.40311   0.62987   0.76380   0.00000  Uiso   1.00
H1007  H     0.59715   0.62876   0.73614   0.00000  Uiso   1.00
H1008  H     0.40286   0.37125   0.76383   0.00000  Uiso   1.00
H1009  H     0.44060   0.45052   0.79696   0.00000  Uiso   1.00
H1010  H     0.55928   0.54973   0.70332   0.00000  Uiso   1.00
N1011  N     0.45069   0.50001   0.74999   0.00000  Uiso   1.00
N1012  N     0.54931   0.49999   0.75001   0.00000  Uiso   1.00
O1013  O     0.37291   0.43989   0.75000   0.00000  Uiso   1.00
O1014  O     0.62709   0.56011   0.75000   0.00000  Uiso   1.00
O1015  O     0.62706   0.43988   0.75000   0.00000  Uiso   1.00
O1016  O     0.37294   0.56012   0.74999   0.00000  Uiso   1.00
O1017  O     0.35186   0.50001   0.81491   0.00000  Uiso   1.00
O1018  O     0.64814   0.49999   0.68508   0.00000  Uiso   1.00
O1019  O     0.60600   0.50000   0.81492   0.00000  Uiso   1.00
O1020  O     0.39400   0.50000   0.68508   0.00000  Uiso   1.00
C1021  C     0.52581   0.45791   0.58441   0.00000  Uiso   1.00
C1022  C     0.53205   0.47750   0.62671   0.00000  Uiso   1.00
H1023  H     0.55391   0.50657   0.61914   0.00000  Uiso   1.00
H1024  H     0.49614   0.48356   0.65005   0.00000  Uiso   1.00
H1025  H     0.55019   0.45564   0.64445   0.00000  Uiso   1.00
H1026  H     0.49159   0.43932   0.59297   0.00000  Uiso   1.00
H1027  H     0.55514   0.43526   0.57289   0.00000  Uiso   1.00
C1028  C     0.47306   0.52093   0.90864   0.00000  Uiso   1.00
C1029  C     0.48928   0.56581   0.90975   0.00000  Uiso   1.00
H1030  H     0.46491   0.58118   0.93893   0.00000  Uiso   1.00
H1031  H     0.52704   0.56805   0.91185   0.00000  Uiso   1.00
H1032  H     0.48769   0.58241   0.87855   0.00000  Uiso   1.00
H1033  H     0.49592   0.50587   0.87891   0.00000  Uiso   1.00
H1034  H     0.43720   0.52190   0.90186   0.00000  Uiso   1.00
I1035  I     0.53075   0.42630   0.81972   0.00000  Uiso   1.00
I1036  I     0.46899   0.57336   0.67981   0.00000  Uiso   1.00
C1037  C     0.99981   0.42076   0.75005   0.00000  Uiso   1.00
C1038  C     0.66686   0.57923   0.74994   0.00000  Uiso   1.00
C1039  C     0.86242   0.48835   0.54561   0.00000  Uiso   1.00
C1040  C     0.80205   0.49760   0.95302   0.00000  Uiso   1.00
C1041  C     0.90825   0.50526   0.52418   0.00000  Uiso   1.00
C1042  C     0.75534   0.48326   0.97634   0.00000  Uiso   1.00
C1043  C     0.96072   0.35433   0.74241   0.00000  Uiso   1.00
C1044  C     0.70596   0.64567   0.75755   0.00000  Uiso   1.00
C1045  C     0.96094   0.64505   0.74235   0.00000  Uiso   1.00
C1046  C     0.70574   0.35496   0.75762   0.00000  Uiso   1.00
C1047  C     0.66692   0.62389   0.74988   0.00000  Uiso   1.00
C1048  C     0.99975   0.37611   0.75009   0.00000  Uiso   1.00
C1049  C     0.84876   0.47222   0.77631   0.00000  Uiso   1.00
C1050  C     0.81774   0.52813   0.72410   0.00000  Uiso   1.00
C1051  C     0.79965   0.47250   0.77609   0.00000  Uiso   1.00
C1052  C     0.86690   0.52778   0.72423   0.00000  Uiso   1.00
C1053  C     0.97252   0.50071   0.83595   0.00000  Uiso   1.00
C1054  C     0.69415   0.49823   0.66407   0.00000  Uiso   1.00
C1055  C     0.95678   0.50401   0.88486   0.00000  Uiso   1.00
C1056  C     0.70956   0.49168   0.61547   0.00000  Uiso   1.00
C1057  C     0.97098   0.52170   0.95527   0.00000  Uiso   1.00
C1058  C     0.69251   0.47289   0.54644   0.00000  Uiso   1.00
C1059  C     0.98772   0.51913   0.90868   0.00000  Uiso   1.00
C1060  C     0.67663   0.47875   0.59259   0.00000  Uiso   1.00
C1061  C     0.90879   0.49374   0.90772   0.00000  Uiso   1.00
C1062  C     0.75870   0.49585   0.59217   0.00000  Uiso   1.00
C1063  C     0.88957   0.50160   0.95316   0.00000  Uiso   1.00
C1064  C     0.77574   0.48728   0.54650   0.00000  Uiso   1.00
C1065  C     0.92253   0.51128   0.97779   0.00000  Uiso   1.00
C1066  C     0.74145   0.47958   0.52294   0.00000  Uiso   1.00
C1067  C     0.83936   0.49635   0.97552   0.00000  Uiso   1.00
C1068  C     0.82565   0.49036   0.52308   0.00000  Uiso   1.00
Cu1069 Cu    0.71355   0.50001   0.75000   0.00000  Uiso   1.00
Cu1070 Cu    0.95311   0.49999   0.75000   0.00000  Uiso   1.00
H1071  H     0.93495   0.50770   0.54251   0.00000  Uiso   1.00
H1072  H     0.72787   0.48041   0.95881   0.00000  Uiso   1.00
H1073  H     0.78339   0.50797   0.60924   0.00000  Uiso   1.00
H1074  H     0.88764   0.47688   0.89050   0.00000  Uiso   1.00
H1075  H     0.97201   0.47391   0.61013   0.00000  Uiso   1.00
H1076  H     0.69154   0.52783   0.89150   0.00000  Uiso   1.00
H1077  H     0.99601   0.53083   0.97375   0.00000  Uiso   1.00
H1078  H     0.99982   0.46445   0.52880   0.00000  Uiso   1.00
H1079  H     0.93025   0.37014   0.73613   0.00000  Uiso   1.00
H1080  H     0.73645   0.62987   0.76380   0.00000  Uiso   1.00
H1081  H     0.93049   0.62876   0.73614   0.00000  Uiso   1.00
H1082  H     0.73619   0.37125   0.76383   0.00000  Uiso   1.00
H1083  H     0.77393   0.45052   0.79696   0.00000  Uiso   1.00
H1084  H     0.89261   0.54973   0.70332   0.00000  Uiso   1.00
N1085  N     0.78403   0.50001   0.74999   0.00000  Uiso   1.00
N1086  N     0.88264   0.49999   0.75001   0.00000  Uiso   1.00
O1087  O     0.70625   0.43989   0.75000   0.00000  Uiso   1.00
O1088  O     0.96042   0.56011   0.75000   0.00000  Uiso   1.00
O1089  O     0.96039   0.43988   0.75000   0.00000  Uiso   1.00
O1090  O     0.70628   0.56012   0.74999   0.00000  Uiso   1.00
O1091  O     0.68519   0.50001   0.81491   0.00000  Uiso   1.00
O1092  O     0.98148   0.49999   0.68508   0.00000  Uiso   1.00
O1093  O     0.93933   0.50000   0.81492   0.00000  Uiso   1.00
O1094  O     0.72733   0.50000   0.68508   0.00000  Uiso   1.00
C1095  C     0.85914   0.45791   0.58441   0.00000  Uiso   1.00
C1096  C     0.86538   0.47750   0.62671   0.00000  Uiso   1.00
H1097  H     0.88724   0.50657   0.61914   0.00000  Uiso   1.00
H1098  H     0.82947   0.48356   0.65005   0.00000  Uiso   1.00
H1099  H     0.88353   0.45564   0.64445   0.00000  Uiso   1.00
H1100  H     0.82492   0.43932   0.59297   0.00000  Uiso   1.00
H1101  H     0.88848   0.43526   0.57289   0.00000  Uiso   1.00
C1102  C     0.80639   0.52093   0.90864   0.00000  Uiso   1.00
C1103  C     0.82262   0.56581   0.90975   0.00000  Uiso   1.00
H1104  H     0.79824   0.58118   0.93893   0.00000  Uiso   1.00
H1105  H     0.86038   0.56805   0.91185   0.00000  Uiso   1.00
H1106  H     0.82103   0.58241   0.87855   0.00000  Uiso   1.00
H1107  H     0.82925   0.50587   0.87891   0.00000  Uiso   1.00
H1108  H     0.77054   0.52190   0.90186   0.00000  Uiso   1.00
I1109  I     0.86408   0.42630   0.81972   0.00000  Uiso   1.00
I1110  I     0.80233   0.57336   0.67981   0.00000  Uiso   1.00
C1111  C     0.33314   0.75410   0.75005   0.00000  Uiso   1.00
C1112  C     0.00019   0.91257   0.74994   0.00000  Uiso   1.00
C1113  C     0.19576   0.82168   0.54561   0.00000  Uiso   1.00
C1114  C     0.13538   0.83094   0.95302   0.00000  Uiso   1.00
C1115  C     0.24158   0.83859   0.52418   0.00000  Uiso   1.00
C1116  C     0.08868   0.81660   0.97634   0.00000  Uiso   1.00
C1117  C     0.29406   0.68766   0.74241   0.00000  Uiso   1.00
C1118  C     0.03930   0.97900   0.75755   0.00000  Uiso   1.00
C1119  C     0.29428   0.97838   0.74235   0.00000  Uiso   1.00
C1120  C     0.03907   0.68829   0.75762   0.00000  Uiso   1.00
C1121  C     0.00026   0.95722   0.74988   0.00000  Uiso   1.00
C1122  C     0.33309   0.70944   0.75009   0.00000  Uiso   1.00
C1123  C     0.18209   0.80555   0.77631   0.00000  Uiso   1.00
C1124  C     0.15107   0.86147   0.72410   0.00000  Uiso   1.00
C1125  C     0.13298   0.80583   0.77609   0.00000  Uiso   1.00
C1126  C     0.20023   0.86111   0.72423   0.00000  Uiso   1.00
C1127  C     0.30585   0.83404   0.83595   0.00000  Uiso   1.00
C1128  C     0.02748   0.83156   0.66407   0.00000  Uiso   1.00
C1129  C     0.29011   0.83734   0.88486   0.00000  Uiso   1.00
C1130  C     0.04289   0.82502   0.61547   0.00000  Uiso   1.00
C1131  C     0.30431   0.85503   0.95527   0.00000  Uiso   1.00
C1132  C     0.02585   0.80622   0.54644   0.00000  Uiso   1.00
C1133  C     0.32106   0.85246   0.90868   0.00000  Uiso   1.00
C1134  C     0.00996   0.81208   0.59259   0.00000  Uiso   1.00
C1135  C     0.24213   0.82708   0.90772   0.00000  Uiso   1.00
C1136  C     0.09204   0.82918   0.59217   0.00000  Uiso   1.00
C1137  C     0.22291   0.83493   0.95316   0.00000  Uiso   1.00
C1138  C     0.10907   0.82061   0.54650   0.00000  Uiso   1.00
C1139  C     0.25586   0.84462   0.97779   0.00000  Uiso   1.00
C1140  C     0.07478   0.81291   0.52294   0.00000  Uiso   1.00
C1141  C     0.17269   0.82968   0.97552   0.00000  Uiso   1.00
C1142  C     0.15899   0.82370   0.52308   0.00000  Uiso   1.00
Cu1143 Cu    0.04689   0.83334   0.75000   0.00000  Uiso   1.00
Cu1144 Cu    0.28645   0.83333   0.75000   0.00000  Uiso   1.00
H1145  H     0.26828   0.84104   0.54251   0.00000  Uiso   1.00
H1146  H     0.06120   0.81375   0.95881   0.00000  Uiso   1.00
H1147  H     0.11672   0.84130   0.60924   0.00000  Uiso   1.00
H1148  H     0.22098   0.81021   0.89050   0.00000  Uiso   1.00
H1149  H     0.30534   0.80724   0.61013   0.00000  Uiso   1.00
H1150  H     0.02487   0.86117   0.89150   0.00000  Uiso   1.00
H1151  H     0.32934   0.86416   0.97375   0.00000  Uiso   1.00
H1152  H     0.33315   0.79778   0.52880   0.00000  Uiso   1.00
H1153  H     0.26358   0.70347   0.73613   0.00000  Uiso   1.00
H1154  H     0.06978   0.96320   0.76380   0.00000  Uiso   1.00
H1155  H     0.26382   0.96209   0.73614   0.00000  Uiso   1.00
H1156  H     0.06953   0.70458   0.76383   0.00000  Uiso   1.00
H1157  H     0.10726   0.78385   0.79696   0.00000  Uiso   1.00
H1158  H     0.22594   0.88307   0.70332   0.00000  Uiso   1.00
N1159  N     0.11736   0.83334   0.74999   0.00000  Uiso   1.00
N1160  N     0.21597   0.83332   0.75001   0.00000  Uiso   1.00
O1161  O     0.03958   0.77322   0.75000   0.00000  Uiso   1.00
O1162  O     0.29375   0.89345   0.75000   0.00000  Uiso   1.00
O1163  O     0.29372   0.77321   0.75000   0.00000  Uiso   1.00
O1164  O     0.03961   0.89346   0.74999   0.00000  Uiso   1.00
O1165  O     0.01852   0.83334   0.81491   0.00000  Uiso   1.00
O1166  O     0.31481   0.83332   0.68508   0.00000  Uiso   1.00
O1167  O     0.27267   0.83333   0.81492   0.00000  Uiso   1.00
O1168  O     0.06067   0.83333   0.68508   0.00000  Uiso   1.00
C1169  C     0.19247   0.79124   0.58441   0.00000  Uiso   1.00
C1170  C     0.19871   0.81084   0.62671   0.00000  Uiso   1.00
H1171  H     0.22058   0.83990   0.61914   0.00000  Uiso   1.00
H1172  H     0.16280   0.81690   0.65005   0.00000  Uiso   1.00
H1173  H     0.21686   0.78897   0.64445   0.00000  Uiso   1.00
H1174  H     0.15825   0.77265   0.59297   0.00000  Uiso   1.00
H1175  H     0.22181   0.76860   0.57289   0.00000  Uiso   1.00
C1176  C     0.13973   0.85426   0.90864   0.00000  Uiso   1.00
C1177  C     0.15595   0.89915   0.90975   0.00000  Uiso   1.00
H1178  H     0.13157   0.91452   0.93893   0.00000  Uiso   1.00
H1179  H     0.19371   0.90139   0.91185   0.00000  Uiso   1.00
H1180  H     0.15436   0.91575   0.87855   0.00000  Uiso   1.00
H1181  H     0.16259   0.83920   0.87891   0.00000  Uiso   1.00
H1182  H     0.10387   0.85523   0.90186   0.00000  Uiso   1.00
I1183  I     0.19741   0.75963   0.81972   0.00000  Uiso   1.00
I1184  I     0.13566   0.90670   0.67981   0.00000  Uiso   1.00
C1185  C     0.66647   0.75410   0.75005   0.00000  Uiso   1.00
C1186  C     0.33353   0.91257   0.74994   0.00000  Uiso   1.00
C1187  C     0.52909   0.82168   0.54561   0.00000  Uiso   1.00
C1188  C     0.46871   0.83094   0.95302   0.00000  Uiso   1.00
C1189  C     0.57492   0.83859   0.52418   0.00000  Uiso   1.00
C1190  C     0.42201   0.81660   0.97634   0.00000  Uiso   1.00
C1191  C     0.62739   0.68766   0.74241   0.00000  Uiso   1.00
C1192  C     0.37263   0.97900   0.75755   0.00000  Uiso   1.00
C1193  C     0.62761   0.97838   0.74235   0.00000  Uiso   1.00
C1194  C     0.37240   0.68829   0.75762   0.00000  Uiso   1.00
C1195  C     0.33359   0.95722   0.74988   0.00000  Uiso   1.00
C1196  C     0.66642   0.70944   0.75009   0.00000  Uiso   1.00
C1197  C     0.51543   0.80555   0.77631   0.00000  Uiso   1.00
C1198  C     0.48440   0.86147   0.72410   0.00000  Uiso   1.00
C1199  C     0.46632   0.80583   0.77609   0.00000  Uiso   1.00
C1200  C     0.53357   0.86111   0.72423   0.00000  Uiso   1.00
C1201  C     0.63919   0.83404   0.83595   0.00000  Uiso   1.00
C1202  C     0.36081   0.83156   0.66407   0.00000  Uiso   1.00
C1203  C     0.62345   0.83734   0.88486   0.00000  Uiso   1.00
C1204  C     0.37622   0.82502   0.61547   0.00000  Uiso   1.00
C1205  C     0.63765   0.85503   0.95527   0.00000  Uiso   1.00
C1206  C     0.35918   0.80622   0.54644   0.00000  Uiso   1.00
C1207  C     0.65439   0.85246   0.90868   0.00000  Uiso   1.00
C1208  C     0.34329   0.81208   0.59259   0.00000  Uiso   1.00
C1209  C     0.57546   0.82708   0.90772   0.00000  Uiso   1.00
C1210  C     0.42537   0.82918   0.59217   0.00000  Uiso   1.00
C1211  C     0.55624   0.83493   0.95316   0.00000  Uiso   1.00
C1212  C     0.44240   0.82061   0.54650   0.00000  Uiso   1.00
C1213  C     0.58920   0.84462   0.97779   0.00000  Uiso   1.00
C1214  C     0.40811   0.81291   0.52294   0.00000  Uiso   1.00
C1215  C     0.50602   0.82968   0.97552   0.00000  Uiso   1.00
C1216  C     0.49232   0.82370   0.52308   0.00000  Uiso   1.00
Cu1217 Cu    0.38022   0.83334   0.75000   0.00000  Uiso   1.00
Cu1218 Cu    0.61978   0.83333   0.75000   0.00000  Uiso   1.00
H1219  H     0.60162   0.84104   0.54251   0.00000  Uiso   1.00
H1220  H     0.39454   0.81375   0.95881   0.00000  Uiso   1.00
H1221  H     0.45005   0.84130   0.60924   0.00000  Uiso   1.00
H1222  H     0.55431   0.81021   0.89050   0.00000  Uiso   1.00
H1223  H     0.63867   0.80724   0.61013   0.00000  Uiso   1.00
H1224  H     0.35821   0.86117   0.89150   0.00000  Uiso   1.00
H1225  H     0.66267   0.86416   0.97375   0.00000  Uiso   1.00
H1226  H     0.66649   0.79778   0.52880   0.00000  Uiso   1.00
H1227  H     0.59692   0.70347   0.73613   0.00000  Uiso   1.00
H1228  H     0.40311   0.96320   0.76380   0.00000  Uiso   1.00
H1229  H     0.59715   0.96209   0.73614   0.00000  Uiso   1.00
H1230  H     0.40286   0.70458   0.76383   0.00000  Uiso   1.00
H1231  H     0.44060   0.78385   0.79696   0.00000  Uiso   1.00
H1232  H     0.55928   0.88307   0.70332   0.00000  Uiso   1.00
N1233  N     0.45069   0.83334   0.74999   0.00000  Uiso   1.00
N1234  N     0.54931   0.83332   0.75001   0.00000  Uiso   1.00
O1235  O     0.37291   0.77322   0.75000   0.00000  Uiso   1.00
O1236  O     0.62709   0.89345   0.75000   0.00000  Uiso   1.00
O1237  O     0.62706   0.77321   0.75000   0.00000  Uiso   1.00
O1238  O     0.37294   0.89346   0.74999   0.00000  Uiso   1.00
O1239  O     0.35186   0.83334   0.81491   0.00000  Uiso   1.00
O1240  O     0.64814   0.83332   0.68508   0.00000  Uiso   1.00
O1241  O     0.60600   0.83333   0.81492   0.00000  Uiso   1.00
O1242  O     0.39400   0.83333   0.68508   0.00000  Uiso   1.00
C1243  C     0.52581   0.79124   0.58441   0.00000  Uiso   1.00
C1244  C     0.53205   0.81084   0.62671   0.00000  Uiso   1.00
H1245  H     0.55391   0.83990   0.61914   0.00000  Uiso   1.00
H1246  H     0.49614   0.81690   0.65005   0.00000  Uiso   1.00
H1247  H     0.55019   0.78897   0.64445   0.00000  Uiso   1.00
H1248  H     0.49159   0.77265   0.59297   0.00000  Uiso   1.00
H1249  H     0.55514   0.76860   0.57289   0.00000  Uiso   1.00
C1250  C     0.47306   0.85426   0.90864   0.00000  Uiso   1.00
C1251  C     0.48928   0.89915   0.90975   0.00000  Uiso   1.00
H1252  H     0.46491   0.91452   0.93893   0.00000  Uiso   1.00
H1253  H     0.52704   0.90139   0.91185   0.00000  Uiso   1.00
H1254  H     0.48769   0.91575   0.87855   0.00000  Uiso   1.00
H1255  H     0.49592   0.83920   0.87891   0.00000  Uiso   1.00
H1256  H     0.43720   0.85523   0.90186   0.00000  Uiso   1.00
I1257  I     0.53075   0.75963   0.81972   0.00000  Uiso   1.00
I1258  I     0.46899   0.90670   0.67981   0.00000  Uiso   1.00
C1259  C     0.99981   0.75410   0.75005   0.00000  Uiso   1.00
C1260  C     0.66686   0.91257   0.74994   0.00000  Uiso   1.00
C1261  C     0.86242   0.82168   0.54561   0.00000  Uiso   1.00
C1262  C     0.80205   0.83094   0.95302   0.00000  Uiso   1.00
C1263  C     0.90825   0.83859   0.52418   0.00000  Uiso   1.00
C1264  C     0.75534   0.81660   0.97634   0.00000  Uiso   1.00
C1265  C     0.96072   0.68766   0.74241   0.00000  Uiso   1.00
C1266  C     0.70596   0.97900   0.75755   0.00000  Uiso   1.00
C1267  C     0.96094   0.97838   0.74235   0.00000  Uiso   1.00
C1268  C     0.70574   0.68829   0.75762   0.00000  Uiso   1.00
C1269  C     0.66692   0.95722   0.74988   0.00000  Uiso   1.00
C1270  C     0.99975   0.70944   0.75009   0.00000  Uiso   1.00
C1271  C     0.84876   0.80555   0.77631   0.00000  Uiso   1.00
C1272  C     0.81774   0.86147   0.72410   0.00000  Uiso   1.00
C1273  C     0.79965   0.80583   0.77609   0.00000  Uiso   1.00
C1274  C     0.86690   0.86111   0.72423   0.00000  Uiso   1.00
C1275  C     0.97252   0.83404   0.83595   0.00000  Uiso   1.00
C1276  C     0.69415   0.83156   0.66407   0.00000  Uiso   1.00
C1277  C     0.95678   0.83734   0.88486   0.00000  Uiso   1.00
C1278  C     0.70956   0.82502   0.61547   0.00000  Uiso   1.00
C1279  C     0.97098   0.85503   0.95527   0.00000  Uiso   1.00
C1280  C     0.69251   0.80622   0.54644   0.00000  Uiso   1.00
C1281  C     0.98772   0.85246   0.90868   0.00000  Uiso   1.00
C1282  C     0.67663   0.81208   0.59259   0.00000  Uiso   1.00
C1283  C     0.90879   0.82708   0.90772   0.00000  Uiso   1.00
C1284  C     0.75870   0.82918   0.59217   0.00000  Uiso   1.00
C1285  C     0.88957   0.83493   0.95316   0.00000  Uiso   1.00
C1286  C     0.77574   0.82061   0.54650   0.00000  Uiso   1.00
C1287  C     0.92253   0.84462   0.97779   0.00000  Uiso   1.00
C1288  C     0.74145   0.81291   0.52294   0.00000  Uiso   1.00
C1289  C     0.83936   0.82968   0.97552   0.00000  Uiso   1.00
C1290  C     0.82565   0.82370   0.52308   0.00000  Uiso   1.00
Cu1291 Cu    0.71355   0.83334   0.75000   0.00000  Uiso   1.00
Cu1292 Cu    0.95311   0.83333   0.75000   0.00000  Uiso   1.00
H1293  H     0.93495   0.84104   0.54251   0.00000  Uiso   1.00
H1294  H     0.72787   0.81375   0.95881   0.00000  Uiso   1.00
H1295  H     0.78339   0.84130   0.60924   0.00000  Uiso   1.00
H1296  H     0.88764   0.81021   0.89050   0.00000  Uiso   1.00
H1297  H     0.97201   0.80724   0.61013   0.00000  Uiso   1.00
H1298  H     0.69154   0.86117   0.89150   0.00000  Uiso   1.00
H1299  H     0.99601   0.86416   0.97375   0.00000  Uiso   1.00
H1300  H     0.99982   0.79778   0.52880   0.00000  Uiso   1.00
H1301  H     0.93025   0.70347   0.73613   0.00000  Uiso   1.00
H1302  H     0.73645   0.96320   0.76380   0.00000  Uiso   1.00
H1303  H     0.93049   0.96209   0.73614   0.00000  Uiso   1.00
H1304  H     0.73619   0.70458   0.76383   0.00000  Uiso   1.00
H1305  H     0.77393   0.78385   0.79696   0.00000  Uiso   1.00
H1306  H     0.89261   0.88307   0.70332   0.00000  Uiso   1.00
N1307  N     0.78403   0.83334   0.74999   0.00000  Uiso   1.00
N1308  N     0.88264   0.83332   0.75001   0.00000  Uiso   1.00
O1309  O     0.70625   0.77322   0.75000   0.00000  Uiso   1.00
O1310  O     0.96042   0.89345   0.75000   0.00000  Uiso   1.00
O1311  O     0.96039   0.77321   0.75000   0.00000  Uiso   1.00
O1312  O     0.70628   0.89346   0.74999   0.00000  Uiso   1.00
O1313  O     0.68519   0.83334   0.81491   0.00000  Uiso   1.00
O1314  O     0.98148   0.83332   0.68508   0.00000  Uiso   1.00
O1315  O     0.93933   0.83333   0.81492   0.00000  Uiso   1.00
O1316  O     0.72733   0.83333   0.68508   0.00000  Uiso   1.00
C1317  C     0.85914   0.79124   0.58441   0.00000  Uiso   1.00
C1318  C     0.86538   0.81084   0.62671   0.00000  Uiso   1.00
H1319  H     0.88724   0.83990   0.61914   0.00000  Uiso   1.00
H1320  H     0.82947   0.81690   0.65005   0.00000  Uiso   1.00
H1321  H     0.88353   0.78897   0.64445   0.00000  Uiso   1.00
H1322  H     0.82492   0.77265   0.59297   0.00000  Uiso   1.00
H1323  H     0.88848   0.76860   0.57289   0.00000  Uiso   1.00
C1324  C     0.80639   0.85426   0.90864   0.00000  Uiso   1.00
C1325  C     0.82262   0.89915   0.90975   0.00000  Uiso   1.00
H1326  H     0.79824   0.91452   0.93893   0.00000  Uiso   1.00
H1327  H     0.86038   0.90139   0.91185   0.00000  Uiso   1.00
H1328  H     0.82103   0.91575   0.87855   0.00000  Uiso   1.00
H1329  H     0.82925   0.83920   0.87891   0.00000  Uiso   1.00
H1330  H     0.77054   0.85523   0.90186   0.00000  Uiso   1.00
I1331  I     0.86408   0.75963   0.81972   0.00000  Uiso   1.00
I1332  I     0.80233   0.90670   0.67981   0.00000  Uiso   1.00
loop_
_geom_bond_atom_site_label_1
_geom_bond_atom_site_label_2
_geom_bond_distance
_geom_bond_site_symmetry_2
_ccdc_geom_bond_type
C1     O53     1.300   .     A
C1     C12     1.449   .     S
C1     O125    1.295   .     S
C2     C11     1.449   .     S
C2     O54     1.300   .     A
C2     O200    1.295   1_455 S
C3     C5      1.397   .     A
C3     C32     1.426   .     A
C3     C59     1.522   .     S
C4     C6      1.402   .     A
C4     C66     1.530   .     S
C4     C31     1.438   .     A
C5     H35     1.081   .     S
C5     C695    1.391   1_554 S
C6     H36     1.084   .     S
C6     C696    1.391   .     S
C7     H43     1.083   .     S
C7     C12     1.399   .     A
C7     C453    1.383   1_545 S
C8     H44     1.083   .     S
C8     C11     1.399   .     A
C8     C232    1.383   .     S
C9     H45     1.083   .     S
C9     C229    1.383   .     S
C9     C85     1.403   .     S
C10    H46     1.083   .     S
C10    C452    1.383   1_545 S
C10    C160    1.403   1_455 S
C11    C157    1.403   1_455 S
C12    C84     1.403   .     S
C13    I73     2.120   .     S
C13    C15     1.415   .     A
C13    N50     1.387   .     A
C14    I74     2.124   .     S
C14    N49     1.387   .     A
C14    C16     1.416   .     A
C15    H47     1.082   .     S
C15    N49     1.356   .     A
C16    H48     1.082   .     S
C16    N50     1.357   .     A
C17    C19     1.466   .     S
C17    O57     1.301   .     A
C17    O129    1.301   .     S
C18    O58     1.302   .     A
C18    C20     1.471   .     S
C18    O204    1.302   1_455 S
C19    C23     1.400   .     A
C19    C25     1.394   .     A
C20    C24     1.402   .     A
C20    C26     1.398   .     A
C21    C29     1.405   .     A
C21    H41     1.083   .     S
C21    C23     1.396   .     A
C22    C24     1.396   .     A
C22    C30     1.402   .     A
C22    H190    1.082   1_455 S
C23    H114    1.082   .     S
C24    H187    1.081   1_455 S
C25    H38     1.071   .     S
C25    C27     1.395   .     A
C26    H37     1.076   .     S
C26    C28     1.401   .     A
C27    C29     1.414   .     A
C27    C31     1.421   .     A
C28    C32     1.416   .     A
C28    C30     1.409   .     A
C29    C671    1.391   .     S
C30    C672    1.391   1_554 S
C31    C698    1.426   .     S
C32    C697    1.426   1_554 S
Cu33   O55     1.951   .     S
Cu33   O58     1.944   .     S
Cu33   N49     2.028   .     S
Cu33   O51     1.960   .     S
Cu33   O54     1.965   .     S
Cu33   Cu182   2.698   1_455 S
Cu34   O56     1.951   .     S
Cu34   O57     1.944   .     S
Cu34   N50     2.028   .     S
Cu34   O52     1.960   .     S
Cu34   O53     1.965   .     S
Cu34   Cu107   2.698   .     S
H39    C98     1.081   .     S
H40    C171    1.082   1_455 S
H42    C96     1.082   .     S
O51    C149    1.295   1_455 S
O52    C76     1.295   .     S
O55    C165    1.301   1_455 S
O56    C92     1.302   .     S
C59    H64     1.111   .     S
C59    C60     1.529   .     S
C59    H65     1.113   .     S
C60    H63     1.111   .     S
C60    H62     1.105   .     S
C60    H61     1.110   .     S
C66    H72     1.110   .     S
C66    C67     1.529   .     S
C66    H71     1.101   .     S
C67    H68     1.111   .     S
C67    H69     1.108   .     S
C67    H70     1.111   .     S
C75    O127    1.300   .     A
C75    C86     1.449   .     S
C75    O199    1.295   .     S
C76    C85     1.449   .     S
C76    O128    1.300   .     A
C77    C79     1.397   .     A
C77    C106    1.426   .     A
C77    C133    1.522   .     S
C78    C80     1.402   .     A
C78    C140    1.530   .     S
C78    C105    1.438   .     A
C79    H109    1.081   .     S
C79    C769    1.391   1_554 S
C80    H110    1.084   .     S
C80    C770    1.391   .     S
C81    H117    1.083   .     S
C81    C86     1.399   .     A
C81    C527    1.383   1_545 S
C82    H118    1.083   .     S
C82    C85     1.399   .     A
C82    C306    1.383   .     S
C83    H119    1.083   .     S
C83    C303    1.383   .     S
C83    C159    1.403   .     S
C84    H120    1.083   .     S
C84    C526    1.383   1_545 S
C86    C158    1.403   .     S
C87    I147    2.120   .     S
C87    C89     1.415   .     A
C87    N124    1.387   .     A
C88    I148    2.124   .     S
C88    N123    1.387   .     A
C88    C90     1.416   .     A
C89    H121    1.082   .     S
C89    N123    1.356   .     A
C90    H122    1.082   .     S
C90    N124    1.357   .     A
C91    C93     1.466   .     S
C91    O131    1.301   .     A
C91    O203    1.301   .     S
C92    O132    1.302   .     A
C92    C94     1.471   .     S
C93    C97     1.400   .     A
C93    C99     1.394   .     A
C94    C98     1.402   .     A
C94    C100    1.398   .     A
C95    C103    1.405   .     A
C95    H115    1.083   .     S
C95    C97     1.396   .     A
C96    C98     1.396   .     A
C96    C104    1.402   .     A
C97    H188    1.082   .     S
C99    H112    1.071   .     S
C99    C101    1.395   .     A
C100   H111    1.076   .     S
C100   C102    1.401   .     A
C101   C103    1.414   .     A
C101   C105    1.421   .     A
C102   C106    1.416   .     A
C102   C104    1.409   .     A
C103   C745    1.391   .     S
C104   C746    1.391   1_554 S
C105   C772    1.426   .     S
C106   C771    1.426   1_554 S
Cu107  O129    1.951   .     S
Cu107  O132    1.944   .     S
Cu107  N123    2.028   .     S
Cu107  O125    1.960   .     S
Cu107  O128    1.965   .     S
Cu108  O130    1.951   .     S
Cu108  O131    1.944   .     S
Cu108  N124    2.028   .     S
Cu108  O126    1.960   .     S
Cu108  O127    1.965   .     S
Cu108  Cu181   2.698   .     S
H113   C172    1.081   .     S
H116   C170    1.082   .     S
O126   C150    1.295   .     S
O130   C166    1.302   .     S
C133   H138    1.111   .     S
C133   C134    1.529   .     S
C133   H139    1.113   .     S
C134   H137    1.111   .     S
C134   H136    1.105   .     S
C134   H135    1.110   .     S
C140   H146    1.110   .     S
C140   C141    1.529   .     S
C140   H145    1.101   .     S
C141   H142    1.111   .     S
C141   H143    1.108   .     S
C141   H144    1.111   .     S
C149   O201    1.300   .     A
C149   C160    1.449   .     S
C149   O51     1.295   1_655 S
C150   C159    1.449   .     S
C150   O202    1.300   .     A
C151   C153    1.397   .     A
C151   C180    1.426   .     A
C151   C207    1.522   .     S
C152   C154    1.402   .     A
C152   C214    1.530   .     S
C152   C179    1.438   .     A
C153   H183    1.081   .     S
C153   C843    1.391   1_554 S
C154   H184    1.084   .     S
C154   C844    1.391   .     S
C155   H191    1.083   .     S
C155   C160    1.399   .     A
C155   C601    1.383   1_545 S
C156   H192    1.083   .     S
C156   C159    1.399   .     A
C156   C380    1.383   .     S
C157   H193    1.083   .     S
C157   C377    1.383   .     S
C157   C11     1.403   1_655 S
C158   H194    1.083   .     S
C158   C600    1.383   1_545 S
C160   C10     1.403   1_655 S
C161   I221    2.120   .     S
C161   C163    1.415   .     A
C161   N198    1.387   .     A
C162   I222    2.124   .     S
C162   N197    1.387   .     A
C162   C164    1.416   .     A
C163   H195    1.082   .     S
C163   N197    1.356   .     A
C164   H196    1.082   .     S
C164   N198    1.357   .     A
C165   C167    1.466   .     S
C165   O205    1.301   .     A
C165   O55     1.301   1_655 S
C166   O206    1.302   .     A
C166   C168    1.471   .     S
C167   C171    1.400   .     A
C167   C173    1.394   .     A
C168   C172    1.402   .     A
C168   C174    1.398   .     A
C169   C177    1.405   .     A
C169   H189    1.083   .     S
C169   C171    1.396   .     A
C170   C172    1.396   .     A
C170   C178    1.402   .     A
C171   H40     1.082   1_655 S
C173   H186    1.071   .     S
C173   C175    1.395   .     A
C174   H185    1.076   .     S
C174   C176    1.401   .     A
C175   C177    1.414   .     A
C175   C179    1.421   .     A
C176   C180    1.416   .     A
C176   C178    1.409   .     A
C177   C819    1.391   .     S
C178   C820    1.391   1_554 S
C179   C846    1.426   .     S
C180   C845    1.426   1_554 S
Cu181  O203    1.951   .     S
Cu181  O206    1.944   .     S
Cu181  N197    2.028   .     S
Cu181  O199    1.960   .     S
Cu181  O202    1.965   .     S
Cu182  O204    1.951   .     S
Cu182  O205    1.944   .     S
Cu182  N198    2.028   .     S
Cu182  O200    1.960   .     S
Cu182  O201    1.965   .     S
Cu182  Cu33    2.698   1_655 S
H187   C24     1.081   1_655 S
H190   C22     1.082   1_655 S
O200   C2      1.295   1_655 S
O204   C18     1.302   1_655 S
C207   H212    1.111   .     S
C207   C208    1.529   .     S
C207   H213    1.113   .     S
C208   H211    1.111   .     S
C208   H210    1.105   .     S
C208   H209    1.110   .     S
C214   H220    1.110   .     S
C214   C215    1.529   .     S
C214   H219    1.101   .     S
C215   H216    1.111   .     S
C215   H217    1.108   .     S
C215   H218    1.111   .     S
C223   O275    1.300   .     A
C223   C234    1.449   .     S
C223   O347    1.295   .     S
C224   C233    1.449   .     S
C224   O276    1.300   .     A
C224   O422    1.295   1_455 S
C225   C227    1.397   .     A
C225   C254    1.426   .     A
C225   C281    1.522   .     S
C226   C228    1.402   .     A
C226   C288    1.530   .     S
C226   C253    1.438   .     A
C227   H257    1.081   .     S
C227   C917    1.391   1_554 S
C228   H258    1.084   .     S
C228   C918    1.391   .     S
C229   H265    1.083   .     S
C229   C234    1.399   .     A
C230   H266    1.083   .     S
C230   C233    1.399   .     A
C230   C454    1.383   .     S
C231   H267    1.083   .     S
C231   C451    1.383   .     S
C231   C307    1.403   .     S
C232   H268    1.083   .     S
C232   C382    1.403   1_455 S
C233   C379    1.403   1_455 S
C234   C306    1.403   .     S
C235   I295    2.120   .     S
C235   C237    1.415   .     A
C235   N272    1.387   .     A
C236   I296    2.124   .     S
C236   N271    1.387   .     A
C236   C238    1.416   .     A
C237   H269    1.082   .     S
C237   N271    1.356   .     A
C238   H270    1.082   .     S
C238   N272    1.357   .     A
C239   C241    1.466   .     S
C239   O279    1.301   .     A
C239   O351    1.301   .     S
C240   O280    1.302   .     A
C240   C242    1.471   .     S
C240   O426    1.302   1_455 S
C241   C245    1.400   .     A
C241   C247    1.394   .     A
C242   C246    1.402   .     A
C242   C248    1.398   .     A
C243   C251    1.405   .     A
C243   H263    1.083   .     S
C243   C245    1.396   .     A
C244   C246    1.396   .     A
C244   C252    1.402   .     A
C244   H412    1.082   1_455 S
C245   H336    1.082   .     S
C246   H409    1.081   1_455 S
C247   H260    1.071   .     S
C247   C249    1.395   .     A
C248   H259    1.076   .     S
C248   C250    1.401   .     A
C249   C251    1.414   .     A
C249   C253    1.421   .     A
C250   C254    1.416   .     A
C250   C252    1.409   .     A
C251   C893    1.391   .     S
C252   C894    1.391   1_554 S
C253   C920    1.426   .     S
C254   C919    1.426   1_554 S
Cu255  O277    1.951   .     S
Cu255  O280    1.944   .     S
Cu255  N271    2.028   .     S
Cu255  O273    1.960   .     S
Cu255  O276    1.965   .     S
Cu255  Cu404   2.698   1_455 S
Cu256  O278    1.951   .     S
Cu256  O279    1.944   .     S
Cu256  N272    2.028   .     S
Cu256  O274    1.960   .     S
Cu256  O275    1.965   .     S
Cu256  Cu329   2.698   .     S
H261   C320    1.081   .     S
H262   C393    1.082   1_455 S
H264   C318    1.082   .     S
O273   C371    1.295   1_455 S
O274   C298    1.295   .     S
O277   C387    1.301   1_455 S
O278   C314    1.302   .     S
C281   H286    1.111   .     S
C281   C282    1.529   .     S
C281   H287    1.113   .     S
C282   H285    1.111   .     S
C282   H284    1.105   .     S
C282   H283    1.110   .     S
C288   H294    1.110   .     S
C288   C289    1.529   .     S
C288   H293    1.101   .     S
C289   H290    1.111   .     S
C289   H291    1.108   .     S
C289   H292    1.111   .     S
C297   O349    1.300   .     A
C297   C308    1.449   .     S
C297   O421    1.295   .     S
C298   C307    1.449   .     S
C298   O350    1.300   .     A
C299   C301    1.397   .     A
C299   C328    1.426   .     A
C299   C355    1.522   .     S
C300   C302    1.402   .     A
C300   C362    1.530   .     S
C300   C327    1.438   .     A
C301   H331    1.081   .     S
C301   C991    1.391   1_554 S
C302   H332    1.084   .     S
C302   C992    1.391   .     S
C303   H339    1.083   .     S
C303   C308    1.399   .     A
C304   H340    1.083   .     S
C304   C307    1.399   .     A
C304   C528    1.383   .     S
C305   H341    1.083   .     S
C305   C525    1.383   .     S
C305   C381    1.403   .     S
C306   H342    1.083   .     S
C308   C380    1.403   .     S
C309   I369    2.120   .     S
C309   C311    1.415   .     A
C309   N346    1.387   .     A
C310   I370    2.124   .     S
C310   N345    1.387   .     A
C310   C312    1.416   .     A
C311   H343    1.082   .     S
C311   N345    1.356   .     A
C312   H344    1.082   .     S
C312   N346    1.357   .     A
C313   C315    1.466   .     S
C313   O353    1.301   .     A
C313   O425    1.301   .     S
C314   O354    1.302   .     A
C314   C316    1.471   .     S
C315   C319    1.400   .     A
C315   C321    1.394   .     A
C316   C320    1.402   .     A
C316   C322    1.398   .     A
C317   C325    1.405   .     A
C317   H337    1.083   .     S
C317   C319    1.396   .     A
C318   C320    1.396   .     A
C318   C326    1.402   .     A
C319   H410    1.082   .     S
C321   H334    1.071   .     S
C321   C323    1.395   .     A
C322   H333    1.076   .     S
C322   C324    1.401   .     A
C323   C325    1.414   .     A
C323   C327    1.421   .     A
C324   C328    1.416   .     A
C324   C326    1.409   .     A
C325   C967    1.391   .     S
C326   C968    1.391   1_554 S
C327   C994    1.426   .     S
C328   C993    1.426   1_554 S
Cu329  O351    1.951   .     S
Cu329  O354    1.944   .     S
Cu329  N345    2.028   .     S
Cu329  O347    1.960   .     S
Cu329  O350    1.965   .     S
Cu330  O352    1.951   .     S
Cu330  O353    1.944   .     S
Cu330  N346    2.028   .     S
Cu330  O348    1.960   .     S
Cu330  O349    1.965   .     S
Cu330  Cu403   2.698   .     S
H335   C394    1.081   .     S
H338   C392    1.082   .     S
O348   C372    1.295   .     S
O352   C388    1.302   .     S
C355   H360    1.111   .     S
C355   C356    1.529   .     S
C355   H361    1.113   .     S
C356   H359    1.111   .     S
C356   H358    1.105   .     S
C356   H357    1.110   .     S
C362   H368    1.110   .     S
C362   C363    1.529   .     S
C362   H367    1.101   .     S
C363   H364    1.111   .     S
C363   H365    1.108   .     S
C363   H366    1.111   .     S
C371   O423    1.300   .     A
C371   C382    1.449   .     S
C371   O273    1.295   1_655 S
C372   C381    1.449   .     S
C372   O424    1.300   .     A
C373   C375    1.397   .     A
C373   C402    1.426   .     A
C373   C429    1.522   .     S
C374   C376    1.402   .     A
C374   C436    1.530   .     S
C374   C401    1.438   .     A
C375   H405    1.081   .     S
C375   C1065   1.391   1_554 S
C376   H406    1.084   .     S
C376   C1066   1.391   .     S
C377   H413    1.083   .     S
C377   C382    1.399   .     A
C378   H414    1.083   .     S
C378   C381    1.399   .     A
C378   C602    1.383   .     S
C379   H415    1.083   .     S
C379   C599    1.383   .     S
C379   C233    1.403   1_655 S
C380   H416    1.083   .     S
C382   C232    1.403   1_655 S
C383   I443    2.120   .     S
C383   C385    1.415   .     A
C383   N420    1.387   .     A
C384   I444    2.124   .     S
C384   N419    1.387   .     A
C384   C386    1.416   .     A
C385   H417    1.082   .     S
C385   N419    1.356   .     A
C386   H418    1.082   .     S
C386   N420    1.357   .     A
C387   C389    1.466   .     S
C387   O427    1.301   .     A
C387   O277    1.301   1_655 S
C388   O428    1.302   .     A
C388   C390    1.471   .     S
C389   C393    1.400   .     A
C389   C395    1.394   .     A
C390   C394    1.402   .     A
C390   C396    1.398   .     A
C391   C399    1.405   .     A
C391   H411    1.083   .     S
C391   C393    1.396   .     A
C392   C394    1.396   .     A
C392   C400    1.402   .     A
C393   H262    1.082   1_655 S
C395   H408    1.071   .     S
C395   C397    1.395   .     A
C396   H407    1.076   .     S
C396   C398    1.401   .     A
C397   C399    1.414   .     A
C397   C401    1.421   .     A
C398   C402    1.416   .     A
C398   C400    1.409   .     A
C399   C1041   1.391   .     S
C400   C1042   1.391   1_554 S
C401   C1068   1.426   .     S
C402   C1067   1.426   1_554 S
Cu403  O425    1.951   .     S
Cu403  O428    1.944   .     S
Cu403  N419    2.028   .     S
Cu403  O421    1.960   .     S
Cu403  O424    1.965   .     S
Cu404  O426    1.951   .     S
Cu404  O427    1.944   .     S
Cu404  N420    2.028   .     S
Cu404  O422    1.960   .     S
Cu404  O423    1.965   .     S
Cu404  Cu255   2.698   1_655 S
H409   C246    1.081   1_655 S
H412   C244    1.082   1_655 S
O422   C224    1.295   1_655 S
O426   C240    1.302   1_655 S
C429   H434    1.111   .     S
C429   C430    1.529   .     S
C429   H435    1.113   .     S
C430   H433    1.111   .     S
C430   H432    1.105   .     S
C430   H431    1.110   .     S
C436   H442    1.110   .     S
C436   C437    1.529   .     S
C436   H441    1.101   .     S
C437   H438    1.111   .     S
C437   H439    1.108   .     S
C437   H440    1.111   .     S
C445   O497    1.300   .     A
C445   C456    1.449   .     S
C445   O569    1.295   .     S
C446   C455    1.449   .     S
C446   O498    1.300   .     A
C446   O644    1.295   1_455 S
C447   C449    1.397   .     A
C447   C476    1.426   .     A
C447   C503    1.522   .     S
C448   C450    1.402   .     A
C448   C510    1.530   .     S
C448   C475    1.438   .     A
C449   H479    1.081   .     S
C449   C1139   1.391   1_554 S
C450   H480    1.084   .     S
C450   C1140   1.391   .     S
C451   H487    1.083   .     S
C451   C456    1.399   .     A
C452   H488    1.083   .     S
C452   C455    1.399   .     A
C452   C10     1.383   1_565 S
C453   H489    1.083   .     S
C453   C7      1.383   1_565 S
C453   C529    1.403   .     S
C454   H490    1.083   .     S
C454   C604    1.403   1_455 S
C455   C601    1.403   1_455 S
C456   C528    1.403   .     S
C457   I517    2.120   .     S
C457   C459    1.415   .     A
C457   N494    1.387   .     A
C458   I518    2.124   .     S
C458   N493    1.387   .     A
C458   C460    1.416   .     A
C459   H491    1.082   .     S
C459   N493    1.356   .     A
C460   H492    1.082   .     S
C460   N494    1.357   .     A
C461   C463    1.466   .     S
C461   O501    1.301   .     A
C461   O573    1.301   .     S
C462   O502    1.302   .     A
C462   C464    1.471   .     S
C462   O648    1.302   1_455 S
C463   C467    1.400   .     A
C463   C469    1.394   .     A
C464   C468    1.402   .     A
C464   C470    1.398   .     A
C465   C473    1.405   .     A
C465   H485    1.083   .     S
C465   C467    1.396   .     A
C466   C468    1.396   .     A
C466   C474    1.402   .     A
C466   H634    1.082   1_455 S
C467   H558    1.082   .     S
C468   H631    1.081   1_455 S
C469   H482    1.071   .     S
C469   C471    1.395   .     A
C470   H481    1.076   .     S
C470   C472    1.401   .     A
C471   C473    1.414   .     A
C471   C475    1.421   .     A
C472   C476    1.416   .     A
C472   C474    1.409   .     A
C473   C1115   1.391   .     S
C474   C1116   1.391   1_554 S
C475   C1142   1.426   .     S
C476   C1141   1.426   1_554 S
Cu477  O499    1.951   .     S
Cu477  O502    1.944   .     S
Cu477  N493    2.028   .     S
Cu477  O495    1.960   .     S
Cu477  O498    1.965   .     S
Cu477  Cu626   2.698   1_455 S
Cu478  O500    1.951   .     S
Cu478  O501    1.944   .     S
Cu478  N494    2.028   .     S
Cu478  O496    1.960   .     S
Cu478  O497    1.965   .     S
Cu478  Cu551   2.698   .     S
H483   C542    1.081   .     S
H484   C615    1.082   1_455 S
H486   C540    1.082   .     S
O495   C593    1.295   1_455 S
O496   C520    1.295   .     S
O499   C609    1.301   1_455 S
O500   C536    1.302   .     S
C503   H508    1.111   .     S
C503   C504    1.529   .     S
C503   H509    1.113   .     S
C504   H507    1.111   .     S
C504   H506    1.105   .     S
C504   H505    1.110   .     S
C510   H516    1.110   .     S
C510   C511    1.529   .     S
C510   H515    1.101   .     S
C511   H512    1.111   .     S
C511   H513    1.108   .     S
C511   H514    1.111   .     S
C519   O571    1.300   .     A
C519   C530    1.449   .     S
C519   O643    1.295   .     S
C520   C529    1.449   .     S
C520   O572    1.300   .     A
C521   C523    1.397   .     A
C521   C550    1.426   .     A
C521   C577    1.522   .     S
C522   C524    1.402   .     A
C522   C584    1.530   .     S
C522   C549    1.438   .     A
C523   H553    1.081   .     S
C523   C1213   1.391   1_554 S
C524   H554    1.084   .     S
C524   C1214   1.391   .     S
C525   H561    1.083   .     S
C525   C530    1.399   .     A
C526   H562    1.083   .     S
C526   C529    1.399   .     A
C526   C84     1.383   1_565 S
C527   H563    1.083   .     S
C527   C81     1.383   1_565 S
C527   C603    1.403   .     S
C528   H564    1.083   .     S
C530   C602    1.403   .     S
C531   I591    2.120   .     S
C531   C533    1.415   .     A
C531   N568    1.387   .     A
C532   I592    2.124   .     S
C532   N567    1.387   .     A
C532   C534    1.416   .     A
C533   H565    1.082   .     S
C533   N567    1.356   .     A
C534   H566    1.082   .     S
C534   N568    1.357   .     A
C535   C537    1.466   .     S
C535   O575    1.301   .     A
C535   O647    1.301   .     S
C536   O576    1.302   .     A
C536   C538    1.471   .     S
C537   C541    1.400   .     A
C537   C543    1.394   .     A
C538   C542    1.402   .     A
C538   C544    1.398   .     A
C539   C547    1.405   .     A
C539   H559    1.083   .     S
C539   C541    1.396   .     A
C540   C542    1.396   .     A
C540   C548    1.402   .     A
C541   H632    1.082   .     S
C543   H556    1.071   .     S
C543   C545    1.395   .     A
C544   H555    1.076   .     S
C544   C546    1.401   .     A
C545   C547    1.414   .     A
C545   C549    1.421   .     A
C546   C550    1.416   .     A
C546   C548    1.409   .     A
C547   C1189   1.391   .     S
C548   C1190   1.391   1_554 S
C549   C1216   1.426   .     S
C550   C1215   1.426   1_554 S
Cu551  O573    1.951   .     S
Cu551  O576    1.944   .     S
Cu551  N567    2.028   .     S
Cu551  O569    1.960   .     S
Cu551  O572    1.965   .     S
Cu552  O574    1.951   .     S
Cu552  O575    1.944   .     S
Cu552  N568    2.028   .     S
Cu552  O570    1.960   .     S
Cu552  O571    1.965   .     S
Cu552  Cu625   2.698   .     S
H557   C616    1.081   .     S
H560   C614    1.082   .     S
O570   C594    1.295   .     S
O574   C610    1.302   .     S
C577   H582    1.111   .     S
C577   C578    1.529   .     S
C577   H583    1.113   .     S
C578   H581    1.111   .     S
C578   H580    1.105   .     S
C578   H579    1.110   .     S
C584   H590    1.110   .     S
C584   C585    1.529   .     S
C584   H589    1.101   .     S
C585   H586    1.111   .     S
C585   H587    1.108   .     S
C585   H588    1.111   .     S
C593   O645    1.300   .     A
C593   C604    1.449   .     S
C593   O495    1.295   1_655 S
C594   C603    1.449   .     S
C594   O646    1.300   .     A
C595   C597    1.397   .     A
C595   C624    1.426   .     A
C595   C651    1.522   .     S
C596   C598    1.402   .     A
C596   C658    1.530   .     S
C596   C623    1.438   .     A
C597   H627    1.081   .     S
C597   C1287   1.391   1_554 S
C598   H628    1.084   .     S
C598   C1288   1.391   .     S
C599   H635    1.083   .     S
C599   C604    1.399   .     A
C600   H636    1.083   .     S
C600   C603    1.399   .     A
C600   C158    1.383   1_565 S
C601   H637    1.083   .     S
C601   C155    1.383   1_565 S
C601   C455    1.403   1_655 S
C602   H638    1.083   .     S
C604   C454    1.403   1_655 S
C605   I665    2.120   .     S
C605   C607    1.415   .     A
C605   N642    1.387   .     A
C606   I666    2.124   .     S
C606   N641    1.387   .     A
C606   C608    1.416   .     A
C607   H639    1.082   .     S
C607   N641    1.356   .     A
C608   H640    1.082   .     S
C608   N642    1.357   .     A
C609   C611    1.466   .     S
C609   O649    1.301   .     A
C609   O499    1.301   1_655 S
C610   O650    1.302   .     A
C610   C612    1.471   .     S
C611   C615    1.400   .     A
C611   C617    1.394   .     A
C612   C616    1.402   .     A
C612   C618    1.398   .     A
C613   C621    1.405   .     A
C613   H633    1.083   .     S
C613   C615    1.396   .     A
C614   C616    1.396   .     A
C614   C622    1.402   .     A
C615   H484    1.082   1_655 S
C617   H630    1.071   .     S
C617   C619    1.395   .     A
C618   H629    1.076   .     S
C618   C620    1.401   .     A
C619   C621    1.414   .     A
C619   C623    1.421   .     A
C620   C624    1.416   .     A
C620   C622    1.409   .     A
C621   C1263   1.391   .     S
C622   C1264   1.391   1_554 S
C623   C1290   1.426   .     S
C624   C1289   1.426   1_554 S
Cu625  O647    1.951   .     S
Cu625  O650    1.944   .     S
Cu625  N641    2.028   .     S
Cu625  O643    1.960   .     S
Cu625  O646    1.965   .     S
Cu626  O648    1.951   .     S
Cu626  O649    1.944   .     S
Cu626  N642    2.028   .     S
Cu626  O644    1.960   .     S
Cu626  O645    1.965   .     S
Cu626  Cu477   2.698   1_655 S
H631   C468    1.081   1_655 S
H634   C466    1.082   1_655 S
O644   C446    1.295   1_655 S
O648   C462    1.302   1_655 S
C651   H656    1.111   .     S
C651   C652    1.529   .     S
C651   H657    1.113   .     S
C652   H655    1.111   .     S
C652   H654    1.105   .     S
C652   H653    1.110   .     S
C658   H664    1.110   .     S
C658   C659    1.529   .     S
C658   H663    1.101   .     S
C659   H660    1.111   .     S
C659   H661    1.108   .     S
C659   H662    1.111   .     S
C667   O719    1.300   .     A
C667   C678    1.449   .     S
C667   O791    1.295   .     S
C668   C677    1.449   .     S
C668   O720    1.300   .     A
C668   O866    1.295   1_455 S
C669   C671    1.397   .     A
C669   C698    1.426   .     A
C669   C725    1.522   .     S
C670   C672    1.402   .     A
C670   C732    1.530   .     S
C670   C697    1.438   .     A
C671   H701    1.081   .     S
C672   H702    1.084   .     S
C672   C30     1.391   1_556 S
C673   H709    1.083   .     S
C673   C678    1.399   .     A
C673   C1119   1.383   1_545 S
C674   H710    1.083   .     S
C674   C677    1.399   .     A
C674   C898    1.383   .     S
C675   H711    1.083   .     S
C675   C895    1.383   .     S
C675   C751    1.403   .     S
C676   H712    1.083   .     S
C676   C1118   1.383   1_545 S
C676   C826    1.403   1_455 S
C677   C823    1.403   1_455 S
C678   C750    1.403   .     S
C679   I739    2.120   .     S
C679   C681    1.415   .     A
C679   N716    1.387   .     A
C680   I740    2.124   .     S
C680   N715    1.387   .     A
C680   C682    1.416   .     A
C681   H713    1.082   .     S
C681   N715    1.356   .     A
C682   H714    1.082   .     S
C682   N716    1.357   .     A
C683   C685    1.466   .     S
C683   O723    1.301   .     A
C683   O795    1.301   .     S
C684   O724    1.302   .     A
C684   C686    1.471   .     S
C684   O870    1.302   1_455 S
C685   C689    1.400   .     A
C685   C691    1.394   .     A
C686   C690    1.402   .     A
C686   C692    1.398   .     A
C687   C695    1.405   .     A
C687   H707    1.083   .     S
C687   C689    1.396   .     A
C688   C690    1.396   .     A
C688   C696    1.402   .     A
C688   H856    1.082   1_455 S
C689   H780    1.082   .     S
C690   H853    1.081   1_455 S
C691   H704    1.071   .     S
C691   C693    1.395   .     A
C692   H703    1.076   .     S
C692   C694    1.401   .     A
C693   C695    1.414   .     A
C693   C697    1.421   .     A
C694   C698    1.416   .     A
C694   C696    1.409   .     A
C695   C5      1.391   1_556 S
C697   C32     1.426   1_556 S
Cu699  O721    1.951   .     S
Cu699  O724    1.944   .     S
Cu699  N715    2.028   .     S
Cu699  O717    1.960   .     S
Cu699  O720    1.965   .     S
Cu699  Cu848   2.698   1_455 S
Cu700  O722    1.951   .     S
Cu700  O723    1.944   .     S
Cu700  N716    2.028   .     S
Cu700  O718    1.960   .     S
Cu700  O719    1.965   .     S
Cu700  Cu773   2.698   .     S
H705   C764    1.081   .     S
H706   C837    1.082   1_455 S
H708   C762    1.082   .     S
O717   C815    1.295   1_455 S
O718   C742    1.295   .     S
O721   C831    1.301   1_455 S
O722   C758    1.302   .     S
C725   H730    1.111   .     S
C725   C726    1.529   .     S
C725   H731    1.113   .     S
C726   H729    1.111   .     S
C726   H728    1.105   .     S
C726   H727    1.110   .     S
C732   H738    1.110   .     S
C732   C733    1.529   .     S
C732   H737    1.101   .     S
C733   H734    1.111   .     S
C733   H735    1.108   .     S
C733   H736    1.111   .     S
C741   O793    1.300   .     A
C741   C752    1.449   .     S
C741   O865    1.295   .     S
C742   C751    1.449   .     S
C742   O794    1.300   .     A
C743   C745    1.397   .     A
C743   C772    1.426   .     A
C743   C799    1.522   .     S
C744   C746    1.402   .     A
C744   C806    1.530   .     S
C744   C771    1.438   .     A
C745   H775    1.081   .     S
C746   H776    1.084   .     S
C746   C104    1.391   1_556 S
C747   H783    1.083   .     S
C747   C752    1.399   .     A
C747   C1193   1.383   1_545 S
C748   H784    1.083   .     S
C748   C751    1.399   .     A
C748   C972    1.383   .     S
C749   H785    1.083   .     S
C749   C969    1.383   .     S
C749   C825    1.403   .     S
C750   H786    1.083   .     S
C750   C1192   1.383   1_545 S
C752   C824    1.403   .     S
C753   I813    2.120   .     S
C753   C755    1.415   .     A
C753   N790    1.387   .     A
C754   I814    2.124   .     S
C754   N789    1.387   .     A
C754   C756    1.416   .     A
C755   H787    1.082   .     S
C755   N789    1.356   .     A
C756   H788    1.082   .     S
C756   N790    1.357   .     A
C757   C759    1.466   .     S
C757   O797    1.301   .     A
C757   O869    1.301   .     S
C758   O798    1.302   .     A
C758   C760    1.471   .     S
C759   C763    1.400   .     A
C759   C765    1.394   .     A
C760   C764    1.402   .     A
C760   C766    1.398   .     A
C761   C769    1.405   .     A
C761   H781    1.083   .     S
C761   C763    1.396   .     A
C762   C764    1.396   .     A
C762   C770    1.402   .     A
C763   H854    1.082   .     S
C765   H778    1.071   .     S
C765   C767    1.395   .     A
C766   H777    1.076   .     S
C766   C768    1.401   .     A
C767   C769    1.414   .     A
C767   C771    1.421   .     A
C768   C772    1.416   .     A
C768   C770    1.409   .     A
C769   C79     1.391   1_556 S
C771   C106    1.426   1_556 S
Cu773  O795    1.951   .     S
Cu773  O798    1.944   .     S
Cu773  N789    2.028   .     S
Cu773  O791    1.960   .     S
Cu773  O794    1.965   .     S
Cu774  O796    1.951   .     S
Cu774  O797    1.944   .     S
Cu774  N790    2.028   .     S
Cu774  O792    1.960   .     S
Cu774  O793    1.965   .     S
Cu774  Cu847   2.698   .     S
H779   C838    1.081   .     S
H782   C836    1.082   .     S
O792   C816    1.295   .     S
O796   C832    1.302   .     S
C799   H804    1.111   .     S
C799   C800    1.529   .     S
C799   H805    1.113   .     S
C800   H803    1.111   .     S
C800   H802    1.105   .     S
C800   H801    1.110   .     S
C806   H812    1.110   .     S
C806   C807    1.529   .     S
C806   H811    1.101   .     S
C807   H808    1.111   .     S
C807   H809    1.108   .     S
C807   H810    1.111   .     S
C815   O867    1.300   .     A
C815   C826    1.449   .     S
C815   O717    1.295   1_655 S
C816   C825    1.449   .     S
C816   O868    1.300   .     A
C817   C819    1.397   .     A
C817   C846    1.426   .     A
C817   C873    1.522   .     S
C818   C820    1.402   .     A
C818   C880    1.530   .     S
C818   C845    1.438   .     A
C819   H849    1.081   .     S
C820   H850    1.084   .     S
C820   C178    1.391   1_556 S
C821   H857    1.083   .     S
C821   C826    1.399   .     A
C821   C1267   1.383   1_545 S
C822   H858    1.083   .     S
C822   C825    1.399   .     A
C822   C1046   1.383   .     S
C823   H859    1.083   .     S
C823   C1043   1.383   .     S
C823   C677    1.403   1_655 S
C824   H860    1.083   .     S
C824   C1266   1.383   1_545 S
C826   C676    1.403   1_655 S
C827   I887    2.120   .     S
C827   C829    1.415   .     A
C827   N864    1.387   .     A
C828   I888    2.124   .     S
C828   N863    1.387   .     A
C828   C830    1.416   .     A
C829   H861    1.082   .     S
C829   N863    1.356   .     A
C830   H862    1.082   .     S
C830   N864    1.357   .     A
C831   C833    1.466   .     S
C831   O871    1.301   .     A
C831   O721    1.301   1_655 S
C832   O872    1.302   .     A
C832   C834    1.471   .     S
C833   C837    1.400   .     A
C833   C839    1.394   .     A
C834   C838    1.402   .     A
C834   C840    1.398   .     A
C835   C843    1.405   .     A
C835   H855    1.083   .     S
C835   C837    1.396   .     A
C836   C838    1.396   .     A
C836   C844    1.402   .     A
C837   H706    1.082   1_655 S
C839   H852    1.071   .     S
C839   C841    1.395   .     A
C840   H851    1.076   .     S
C840   C842    1.401   .     A
C841   C843    1.414   .     A
C841   C845    1.421   .     A
C842   C846    1.416   .     A
C842   C844    1.409   .     A
C843   C153    1.391   1_556 S
C845   C180    1.426   1_556 S
Cu847  O869    1.951   .     S
Cu847  O872    1.944   .     S
Cu847  N863    2.028   .     S
Cu847  O865    1.960   .     S
Cu847  O868    1.965   .     S
Cu848  O870    1.951   .     S
Cu848  O871    1.944   .     S
Cu848  N864    2.028   .     S
Cu848  O866    1.960   .     S
Cu848  O867    1.965   .     S
Cu848  Cu699   2.698   1_655 S
H853   C690    1.081   1_655 S
H856   C688    1.082   1_655 S
O866   C668    1.295   1_655 S
O870   C684    1.302   1_655 S
C873   H878    1.111   .     S
C873   C874    1.529   .     S
C873   H879    1.113   .     S
C874   H877    1.111   .     S
C874   H876    1.105   .     S
C874   H875    1.110   .     S
C880   H886    1.110   .     S
C880   C881    1.529   .     S
C880   H885    1.101   .     S
C881   H882    1.111   .     S
C881   H883    1.108   .     S
C881   H884    1.111   .     S
C889   O941    1.300   .     A
C889   C900    1.449   .     S
C889   O1013   1.295   .     S
C890   C899    1.449   .     S
C890   O942    1.300   .     A
C890   O1088   1.295   1_455 S
C891   C893    1.397   .     A
C891   C920    1.426   .     A
C891   C947    1.522   .     S
C892   C894    1.402   .     A
C892   C954    1.530   .     S
C892   C919    1.438   .     A
C893   H923    1.081   .     S
C894   H924    1.084   .     S
C894   C252    1.391   1_556 S
C895   H931    1.083   .     S
C895   C900    1.399   .     A
C896   H932    1.083   .     S
C896   C899    1.399   .     A
C896   C1120   1.383   .     S
C897   H933    1.083   .     S
C897   C1117   1.383   .     S
C897   C973    1.403   .     S
C898   H934    1.083   .     S
C898   C1048   1.403   1_455 S
C899   C1045   1.403   1_455 S
C900   C972    1.403   .     S
C901   I961    2.120   .     S
C901   C903    1.415   .     A
C901   N938    1.387   .     A
C902   I962    2.124   .     S
C902   N937    1.387   .     A
C902   C904    1.416   .     A
C903   H935    1.082   .     S
C903   N937    1.356   .     A
C904   H936    1.082   .     S
C904   N938    1.357   .     A
C905   C907    1.466   .     S
C905   O945    1.301   .     A
C905   O1017   1.301   .     S
C906   O946    1.302   .     A
C906   C908    1.471   .     S
C906   O1092   1.302   1_455 S
C907   C911    1.400   .     A
C907   C913    1.394   .     A
C908   C912    1.402   .     A
C908   C914    1.398   .     A
C909   C917    1.405   .     A
C909   H929    1.083   .     S
C909   C911    1.396   .     A
C910   C912    1.396   .     A
C910   C918    1.402   .     A
C910   H1078   1.082   1_455 S
C911   H1002   1.082   .     S
C912   H1075   1.081   1_455 S
C913   H926    1.071   .     S
C913   C915    1.395   .     A
C914   H925    1.076   .     S
C914   C916    1.401   .     A
C915   C917    1.414   .     A
C915   C919    1.421   .     A
C916   C920    1.416   .     A
C916   C918    1.409   .     A
C917   C227    1.391   1_556 S
C919   C254    1.426   1_556 S
Cu921  O943    1.951   .     S
Cu921  O946    1.944   .     S
Cu921  N937    2.028   .     S
Cu921  O939    1.960   .     S
Cu921  O942    1.965   .     S
Cu921  Cu1070  2.698   1_455 S
Cu922  O944    1.951   .     S
Cu922  O945    1.944   .     S
Cu922  N938    2.028   .     S
Cu922  O940    1.960   .     S
Cu922  O941    1.965   .     S
Cu922  Cu995   2.698   .     S
H927   C986    1.081   .     S
H928   C1059   1.082   1_455 S
H930   C984    1.082   .     S
O939   C1037   1.295   1_455 S
O940   C964    1.295   .     S
O943   C1053   1.301   1_455 S
O944   C980    1.302   .     S
C947   H952    1.111   .     S
C947   C948    1.529   .     S
C947   H953    1.113   .     S
C948   H951    1.111   .     S
C948   H950    1.105   .     S
C948   H949    1.110   .     S
C954   H960    1.110   .     S
C954   C955    1.529   .     S
C954   H959    1.101   .     S
C955   H956    1.111   .     S
C955   H957    1.108   .     S
C955   H958    1.111   .     S
C963   O1015   1.300   .     A
C963   C974    1.449   .     S
C963   O1087   1.295   .     S
C964   C973    1.449   .     S
C964   O1016   1.300   .     A
C965   C967    1.397   .     A
C965   C994    1.426   .     A
C965   C1021   1.522   .     S
C966   C968    1.402   .     A
C966   C1028   1.530   .     S
C966   C993    1.438   .     A
C967   H997    1.081   .     S
C968   H998    1.084   .     S
C968   C326    1.391   1_556 S
C969   H1005   1.083   .     S
C969   C974    1.399   .     A
C970   H1006   1.083   .     S
C970   C973    1.399   .     A
C970   C1194   1.383   .     S
C971   H1007   1.083   .     S
C971   C1191   1.383   .     S
C971   C1047   1.403   .     S
C972   H1008   1.083   .     S
C974   C1046   1.403   .     S
C975   I1035   2.120   .     S
C975   C977    1.415   .     A
C975   N1012   1.387   .     A
C976   I1036   2.124   .     S
C976   N1011   1.387   .     A
C976   C978    1.416   .     A
C977   H1009   1.082   .     S
C977   N1011   1.356   .     A
C978   H1010   1.082   .     S
C978   N1012   1.357   .     A
C979   C981    1.466   .     S
C979   O1019   1.301   .     A
C979   O1091   1.301   .     S
C980   O1020   1.302   .     A
C980   C982    1.471   .     S
C981   C985    1.400   .     A
C981   C987    1.394   .     A
C982   C986    1.402   .     A
C982   C988    1.398   .     A
C983   C991    1.405   .     A
C983   H1003   1.083   .     S
C983   C985    1.396   .     A
C984   C986    1.396   .     A
C984   C992    1.402   .     A
C985   H1076   1.082   .     S
C987   H1000   1.071   .     S
C987   C989    1.395   .     A
C988   H999    1.076   .     S
C988   C990    1.401   .     A
C989   C991    1.414   .     A
C989   C993    1.421   .     A
C990   C994    1.416   .     A
C990   C992    1.409   .     A
C991   C301    1.391   1_556 S
C993   C328    1.426   1_556 S
Cu995  O1017   1.951   .     S
Cu995  O1020   1.944   .     S
Cu995  N1011   2.028   .     S
Cu995  O1013   1.960   .     S
Cu995  O1016   1.965   .     S
Cu996  O1018   1.951   .     S
Cu996  O1019   1.944   .     S
Cu996  N1012   2.028   .     S
Cu996  O1014   1.960   .     S
Cu996  O1015   1.965   .     S
Cu996  Cu1069  2.698   .     S
H1001  C1060   1.081   .     S
H1004  C1058   1.082   .     S
O1014  C1038   1.295   .     S
O1018  C1054   1.302   .     S
C1021  H1026   1.111   .     S
C1021  C1022   1.529   .     S
C1021  H1027   1.113   .     S
C1022  H1025   1.111   .     S
C1022  H1024   1.105   .     S
C1022  H1023   1.110   .     S
C1028  H1034   1.110   .     S
C1028  C1029   1.529   .     S
C1028  H1033   1.101   .     S
C1029  H1030   1.111   .     S
C1029  H1031   1.108   .     S
C1029  H1032   1.111   .     S
C1037  O1089   1.300   .     A
C1037  C1048   1.449   .     S
C1037  O939    1.295   1_655 S
C1038  C1047   1.449   .     S
C1038  O1090   1.300   .     A
C1039  C1041   1.397   .     A
C1039  C1068   1.426   .     A
C1039  C1095   1.522   .     S
C1040  C1042   1.402   .     A
C1040  C1102   1.530   .     S
C1040  C1067   1.438   .     A
C1041  H1071   1.081   .     S
C1042  H1072   1.084   .     S
C1042  C400    1.391   1_556 S
C1043  H1079   1.083   .     S
C1043  C1048   1.399   .     A
C1044  H1080   1.083   .     S
C1044  C1047   1.399   .     A
C1044  C1268   1.383   .     S
C1045  H1081   1.083   .     S
C1045  C1265   1.383   .     S
C1045  C899    1.403   1_655 S
C1046  H1082   1.083   .     S
C1048  C898    1.403   1_655 S
C1049  I1109   2.120   .     S
C1049  C1051   1.415   .     A
C1049  N1086   1.387   .     A
C1050  I1110   2.124   .     S
C1050  N1085   1.387   .     A
C1050  C1052   1.416   .     A
C1051  H1083   1.082   .     S
C1051  N1085   1.356   .     A
C1052  H1084   1.082   .     S
C1052  N1086   1.357   .     A
C1053  C1055   1.466   .     S
C1053  O1093   1.301   .     A
C1053  O943    1.301   1_655 S
C1054  O1094   1.302   .     A
C1054  C1056   1.471   .     S
C1055  C1059   1.400   .     A
C1055  C1061   1.394   .     A
C1056  C1060   1.402   .     A
C1056  C1062   1.398   .     A
C1057  C1065   1.405   .     A
C1057  H1077   1.083   .     S
C1057  C1059   1.396   .     A
C1058  C1060   1.396   .     A
C1058  C1066   1.402   .     A
C1059  H928    1.082   1_655 S
C1061  H1074   1.071   .     S
C1061  C1063   1.395   .     A
C1062  H1073   1.076   .     S
C1062  C1064   1.401   .     A
C1063  C1065   1.414   .     A
C1063  C1067   1.421   .     A
C1064  C1068   1.416   .     A
C1064  C1066   1.409   .     A
C1065  C375    1.391   1_556 S
C1067  C402    1.426   1_556 S
Cu1069 O1091   1.951   .     S
Cu1069 O1094   1.944   .     S
Cu1069 N1085   2.028   .     S
Cu1069 O1087   1.960   .     S
Cu1069 O1090   1.965   .     S
Cu1070 O1092   1.951   .     S
Cu1070 O1093   1.944   .     S
Cu1070 N1086   2.028   .     S
Cu1070 O1088   1.960   .     S
Cu1070 O1089   1.965   .     S
Cu1070 Cu921   2.698   1_655 S
H1075  C912    1.081   1_655 S
H1078  C910    1.082   1_655 S
O1088  C890    1.295   1_655 S
O1092  C906    1.302   1_655 S
C1095  H1100   1.111   .     S
C1095  C1096   1.529   .     S
C1095  H1101   1.113   .     S
C1096  H1099   1.111   .     S
C1096  H1098   1.105   .     S
C1096  H1097   1.110   .     S
C1102  H1108   1.110   .     S
C1102  C1103   1.529   .     S
C1102  H1107   1.101   .     S
C1103  H1104   1.111   .     S
C1103  H1105   1.108   .     S
C1103  H1106   1.111   .     S
C1111  O1163   1.300   .     A
C1111  C1122   1.449   .     S
C1111  O1235   1.295   .     S
C1112  C1121   1.449   .     S
C1112  O1164   1.300   .     A
C1112  O1310   1.295   1_455 S
C1113  C1115   1.397   .     A
C1113  C1142   1.426   .     A
C1113  C1169   1.522   .     S
C1114  C1116   1.402   .     A
C1114  C1176   1.530   .     S
C1114  C1141   1.438   .     A
C1115  H1145   1.081   .     S
C1116  H1146   1.084   .     S
C1116  C474    1.391   1_556 S
C1117  H1153   1.083   .     S
C1117  C1122   1.399   .     A
C1118  H1154   1.083   .     S
C1118  C1121   1.399   .     A
C1118  C676    1.383   1_565 S
C1119  H1155   1.083   .     S
C1119  C673    1.383   1_565 S
C1119  C1195   1.403   .     S
C1120  H1156   1.083   .     S
C1120  C1270   1.403   1_455 S
C1121  C1267   1.403   1_455 S
C1122  C1194   1.403   .     S
C1123  I1183   2.120   .     S
C1123  C1125   1.415   .     A
C1123  N1160   1.387   .     A
C1124  I1184   2.124   .     S
C1124  N1159   1.387   .     A
C1124  C1126   1.416   .     A
C1125  H1157   1.082   .     S
C1125  N1159   1.356   .     A
C1126  H1158   1.082   .     S
C1126  N1160   1.357   .     A
C1127  C1129   1.466   .     S
C1127  O1167   1.301   .     A
C1127  O1239   1.301   .     S
C1128  O1168   1.302   .     A
C1128  C1130   1.471   .     S
C1128  O1314   1.302   1_455 S
C1129  C1133   1.400   .     A
C1129  C1135   1.394   .     A
C1130  C1134   1.402   .     A
C1130  C1136   1.398   .     A
C1131  C1139   1.405   .     A
C1131  H1151   1.083   .     S
C1131  C1133   1.396   .     A
C1132  C1134   1.396   .     A
C1132  C1140   1.402   .     A
C1132  H1300   1.082   1_455 S
C1133  H1224   1.082   .     S
C1134  H1297   1.081   1_455 S
C1135  H1148   1.071   .     S
C1135  C1137   1.395   .     A
C1136  H1147   1.076   .     S
C1136  C1138   1.401   .     A
C1137  C1139   1.414   .     A
C1137  C1141   1.421   .     A
C1138  C1142   1.416   .     A
C1138  C1140   1.409   .     A
C1139  C449    1.391   1_556 S
C1141  C476    1.426   1_556 S
Cu1143 O1165   1.951   .     S
Cu1143 O1168   1.944   .     S
Cu1143 N1159   2.028   .     S
Cu1143 O1161   1.960   .     S
Cu1143 O1164   1.965   .     S
Cu1143 Cu1292  2.698   1_455 S
Cu1144 O1166   1.951   .     S
Cu1144 O1167   1.944   .     S
Cu1144 N1160   2.028   .     S
Cu1144 O1162   1.960   .     S
Cu1144 O1163   1.965   .     S
Cu1144 Cu1217  2.698   .     S
H1149  C1208   1.081   .     S
H1150  C1281   1.082   1_455 S
H1152  C1206   1.082   .     S
O1161  C1259   1.295   1_455 S
O1162  C1186   1.295   .     S
O1165  C1275   1.301   1_455 S
O1166  C1202   1.302   .     S
C1169  H1174   1.111   .     S
C1169  C1170   1.529   .     S
C1169  H1175   1.113   .     S
C1170  H1173   1.111   .     S
C1170  H1172   1.105   .     S
C1170  H1171   1.110   .     S
C1176  H1182   1.110   .     S
C1176  C1177   1.529   .     S
C1176  H1181   1.101   .     S
C1177  H1178   1.111   .     S
C1177  H1179   1.108   .     S
C1177  H1180   1.111   .     S
C1185  O1237   1.300   .     A
C1185  C1196   1.449   .     S
C1185  O1309   1.295   .     S
C1186  C1195   1.449   .     S
C1186  O1238   1.300   .     A
C1187  C1189   1.397   .     A
C1187  C1216   1.426   .     A
C1187  C1243   1.522   .     S
C1188  C1190   1.402   .     A
C1188  C1250   1.530   .     S
C1188  C1215   1.438   .     A
C1189  H1219   1.081   .     S
C1190  H1220   1.084   .     S
C1190  C548    1.391   1_556 S
C1191  H1227   1.083   .     S
C1191  C1196   1.399   .     A
C1192  H1228   1.083   .     S
C1192  C1195   1.399   .     A
C1192  C750    1.383   1_565 S
C1193  H1229   1.083   .     S
C1193  C747    1.383   1_565 S
C1193  C1269   1.403   .     S
C1194  H1230   1.083   .     S
C1196  C1268   1.403   .     S
C1197  I1257   2.120   .     S
C1197  C1199   1.415   .     A
C1197  N1234   1.387   .     A
C1198  I1258   2.124   .     S
C1198  N1233   1.387   .     A
C1198  C1200   1.416   .     A
C1199  H1231   1.082   .     S
C1199  N1233   1.356   .     A
C1200  H1232   1.082   .     S
C1200  N1234   1.357   .     A
C1201  C1203   1.466   .     S
C1201  O1241   1.301   .     A
C1201  O1313   1.301   .     S
C1202  O1242   1.302   .     A
C1202  C1204   1.471   .     S
C1203  C1207   1.400   .     A
C1203  C1209   1.394   .     A
C1204  C1208   1.402   .     A
C1204  C1210   1.398   .     A
C1205  C1213   1.405   .     A
C1205  H1225   1.083   .     S
C1205  C1207   1.396   .     A
C1206  C1208   1.396   .     A
C1206  C1214   1.402   .     A
C1207  H1298   1.082   .     S
C1209  H1222   1.071   .     S
C1209  C1211   1.395   .     A
C1210  H1221   1.076   .     S
C1210  C1212   1.401   .     A
C1211  C1213   1.414   .     A
C1211  C1215   1.421   .     A
C1212  C1216   1.416   .     A
C1212  C1214   1.409   .     A
C1213  C523    1.391   1_556 S
C1215  C550    1.426   1_556 S
Cu1217 O1239   1.951   .     S
Cu1217 O1242   1.944   .     S
Cu1217 N1233   2.028   .     S
Cu1217 O1235   1.960   .     S
Cu1217 O1238   1.965   .     S
Cu1218 O1240   1.951   .     S
Cu1218 O1241   1.944   .     S
Cu1218 N1234   2.028   .     S
Cu1218 O1236   1.960   .     S
Cu1218 O1237   1.965   .     S
Cu1218 Cu1291  2.698   .     S
H1223  C1282   1.081   .     S
H1226  C1280   1.082   .     S
O1236  C1260   1.295   .     S
O1240  C1276   1.302   .     S
C1243  H1248   1.111   .     S
C1243  C1244   1.529   .     S
C1243  H1249   1.113   .     S
C1244  H1247   1.111   .     S
C1244  H1246   1.105   .     S
C1244  H1245   1.110   .     S
C1250  H1256   1.110   .     S
C1250  C1251   1.529   .     S
C1250  H1255   1.101   .     S
C1251  H1252   1.111   .     S
C1251  H1253   1.108   .     S
C1251  H1254   1.111   .     S
C1259  O1311   1.300   .     A
C1259  C1270   1.449   .     S
C1259  O1161   1.295   1_655 S
C1260  C1269   1.449   .     S
C1260  O1312   1.300   .     A
C1261  C1263   1.397   .     A
C1261  C1290   1.426   .     A
C1261  C1317   1.522   .     S
C1262  C1264   1.402   .     A
C1262  C1324   1.530   .     S
C1262  C1289   1.438   .     A
C1263  H1293   1.081   .     S
C1264  H1294   1.084   .     S
C1264  C622    1.391   1_556 S
C1265  H1301   1.083   .     S
C1265  C1270   1.399   .     A
C1266  H1302   1.083   .     S
C1266  C1269   1.399   .     A
C1266  C824    1.383   1_565 S
C1267  H1303   1.083   .     S
C1267  C821    1.383   1_565 S
C1267  C1121   1.403   1_655 S
C1268  H1304   1.083   .     S
C1270  C1120   1.403   1_655 S
C1271  I1331   2.120   .     S
C1271  C1273   1.415   .     A
C1271  N1308   1.387   .     A
C1272  I1332   2.124   .     S
C1272  N1307   1.387   .     A
C1272  C1274   1.416   .     A
C1273  H1305   1.082   .     S
C1273  N1307   1.356   .     A
C1274  H1306   1.082   .     S
C1274  N1308   1.357   .     A
C1275  C1277   1.466   .     S
C1275  O1315   1.301   .     A
C1275  O1165   1.301   1_655 S
C1276  O1316   1.302   .     A
C1276  C1278   1.471   .     S
C1277  C1281   1.400   .     A
C1277  C1283   1.394   .     A
C1278  C1282   1.402   .     A
C1278  C1284   1.398   .     A
C1279  C1287   1.405   .     A
C1279  H1299   1.083   .     S
C1279  C1281   1.396   .     A
C1280  C1282   1.396   .     A
C1280  C1288   1.402   .     A
C1281  H1150   1.082   1_655 S
C1283  H1296   1.071   .     S
C1283  C1285   1.395   .     A
C1284  H1295   1.076   .     S
C1284  C1286   1.401   .     A
C1285  C1287   1.414   .     A
C1285  C1289   1.421   .     A
C1286  C1290   1.416   .     A
C1286  C1288   1.409   .     A
C1287  C597    1.391   1_556 S
C1289  C624    1.426   1_556 S
Cu1291 O1313   1.951   .     S
Cu1291 O1316   1.944   .     S
Cu1291 N1307   2.028   .     S
Cu1291 O1309   1.960   .     S
Cu1291 O1312   1.965   .     S
Cu1292 O1314   1.951   .     S
Cu1292 O1315   1.944   .     S
Cu1292 N1308   2.028   .     S
Cu1292 O1310   1.960   .     S
Cu1292 O1311   1.965   .     S
Cu1292 Cu1143  2.698   1_655 S
H1297  C1134   1.081   1_655 S
H1300  C1132   1.082   1_655 S
O1310  C1112   1.295   1_655 S
O1314  C1128   1.302   1_655 S
C1317  H1322   1.111   .     S
C1317  C1318   1.529   .     S
C1317  H1323   1.113   .     S
C1318  H1321   1.111   .     S
C1318  H1320   1.105   .     S
C1318  H1319   1.110   .     S
C1324  H1330   1.110   .     S
C1324  C1325   1.529   .     S
C1324  H1329   1.101   .     S
C1325  H1326   1.111   .     S
C1325  H1327   1.108   .     S
C1325  H1328   1.111   .     S
