data_str_m3_o2_o10_pcu_sym.4
_audit_creation_date              2020-01-03
_audit_creation_method            'Materials Studio'
_symmetry_space_group_name_H-M    'P1'
_symmetry_Int_Tables_number       1
_symmetry_cell_setting            triclinic
loop_
_symmetry_equiv_pos_as_xyz
  x,y,z
_cell_length_a                    25.7747
_cell_length_b                    29.8519
_cell_length_c                    28.5106
_cell_angle_alpha                 90.7512
_cell_angle_beta                  98.9119
_cell_angle_gamma                 90.7790
loop_
_atom_site_label
_atom_site_type_symbol
_atom_site_fract_x
_atom_site_fract_y
_atom_site_fract_z
_atom_site_U_iso_or_equiv
_atom_site_adp_type
_atom_site_occupancy
C1     C     0.16592   0.16410   0.24964   0.00000  Uiso   1.00
C2     C     0.14417   0.21469   0.44384   0.00000  Uiso   1.00
C3     C     0.16559   0.25107   0.02648   0.00000  Uiso   1.00
C4     C     0.16546   0.25095   0.47322   0.00000  Uiso   1.00
C5     C     0.06705   0.24985   0.23752   0.00000  Uiso   1.00
C6     C     0.26629   0.25001   0.26248   0.00000  Uiso   1.00
C7     C     0.01194   0.24951   0.23088   0.00000  Uiso   1.00
C8     C     0.32141   0.25005   0.26914   0.00000  Uiso   1.00
C9     C     0.20976   0.04862   0.27322   0.00000  Uiso   1.00
C10    C     0.12946   0.45261   0.26848   0.00000  Uiso   1.00
C11    C     0.20827   0.09479   0.27356   0.00000  Uiso   1.00
C12    C     0.16781   0.33594   0.25044   0.00000  Uiso   1.00
C13    C     0.13067   0.40644   0.26967   0.00000  Uiso   1.00
C14    C     0.16472   0.11628   0.24899   0.00000  Uiso   1.00
C15    C     0.17044   0.38382   0.25144   0.00000  Uiso   1.00
C16    C     0.12146   0.09170   0.22422   0.00000  Uiso   1.00
C17    C     0.21065   0.40737   0.23302   0.00000  Uiso   1.00
C18    C     0.12349   0.04535   0.22436   0.00000  Uiso   1.00
C19    C     0.20886   0.45370   0.23208   0.00000  Uiso   1.00
C20    C     0.16734   0.02411   0.24877   0.00000  Uiso   1.00
C21    C     0.16842   0.47601   0.24954   0.00000  Uiso   1.00
C22    C     0.12357   0.23246   0.04621   0.00000  Uiso   1.00
C23    C     0.18701   0.28689   0.45084   0.00000  Uiso   1.00
C24    C     0.12567   0.23044   0.09574   0.00000  Uiso   1.00
C25    C     0.18941   0.28507   0.40188   0.00000  Uiso   1.00
C26    C     0.20703   0.26982   0.10789   0.00000  Uiso   1.00
C27    C     0.14387   0.21538   0.39437   0.00000  Uiso   1.00
C28    C     0.20790   0.26953   0.05858   0.00000  Uiso   1.00
F29    F     0.08012   0.21601   0.01785   0.00000  Uiso   1.00
F30    F     0.20609   0.32405   0.47603   0.00000  Uiso   1.00
F31    F     0.24705   0.29011   0.13724   0.00000  Uiso   1.00
F32    F     0.12086   0.18085   0.36719   0.00000  Uiso   1.00
H33    H     0.32451   0.24876   0.19464   0.00000  Uiso   1.00
H34    H     0.12805   0.18551   0.45886   0.00000  Uiso   1.00
H35    H     0.07681   0.14346   0.20822   0.00000  Uiso   1.00
H36    H     0.25451   0.35545   0.22665   0.00000  Uiso   1.00
H37    H     0.10021   0.19494   0.14287   0.00000  Uiso   1.00
H38    H     0.23149   0.30661   0.35709   0.00000  Uiso   1.00
H39    H     0.00888   0.25065   0.30539   0.00000  Uiso   1.00
H40    H     0.24353   0.03194   0.29234   0.00000  Uiso   1.00
H41    H     0.09842   0.47014   0.28235   0.00000  Uiso   1.00
H42    H     0.24126   0.11385   0.29255   0.00000  Uiso   1.00
H43    H     0.10000   0.38825   0.28383   0.00000  Uiso   1.00
H44    H     0.09076   0.02580   0.20566   0.00000  Uiso   1.00
H45    H     0.23909   0.47240   0.21784   0.00000  Uiso   1.00
H46    H     0.24197   0.28356   0.04589   0.00000  Uiso   1.00
N47    N     0.16667   0.24999   0.12624   0.00000  Uiso   1.00
N48    N     0.16667   0.25001   0.37377   0.00000  Uiso   1.00
O49    O     0.16667   0.18453   0.28974   0.00000  Uiso   1.00
O50    O     0.25222   0.38698   0.21639   0.00000  Uiso   1.00
O51    O     0.08547   0.20799   0.11223   0.00000  Uiso   1.00
O52    O     0.21575   0.31934   0.38358   0.00000  Uiso   1.00
O53    O     0.16666   0.31546   0.21026   0.00000  Uiso   1.00
O54    O     0.16667   0.18453   0.21026   0.00000  Uiso   1.00
O55    O     0.16666   0.31547   0.28974   0.00000  Uiso   1.00
O56    O     0.09058   0.25000   0.28044   0.00000  Uiso   1.00
O57    O     0.24275   0.25000   0.21956   0.00000  Uiso   1.00
O58    O     0.09058   0.24999   0.20096   0.00000  Uiso   1.00
O59    O     0.24275   0.25000   0.29904   0.00000  Uiso   1.00
O60    O     0.07665   0.11106   0.20053   0.00000  Uiso   1.00
Zn61   Zn    0.16667   0.25000   0.30307   0.00000  Uiso   1.00
Zn62   Zn    0.16667   0.24999   0.19693   0.00000  Uiso   1.00
C63    C     0.49925   0.16410   0.24964   0.00000  Uiso   1.00
C64    C     0.47750   0.21469   0.44384   0.00000  Uiso   1.00
C65    C     0.49893   0.25107   0.02648   0.00000  Uiso   1.00
C66    C     0.49879   0.25095   0.47322   0.00000  Uiso   1.00
C67    C     0.40038   0.24985   0.23752   0.00000  Uiso   1.00
C68    C     0.59962   0.25001   0.26248   0.00000  Uiso   1.00
C69    C     0.34527   0.24951   0.23088   0.00000  Uiso   1.00
C70    C     0.65475   0.25005   0.26914   0.00000  Uiso   1.00
C71    C     0.54309   0.04862   0.27322   0.00000  Uiso   1.00
C72    C     0.46280   0.45261   0.26848   0.00000  Uiso   1.00
C73    C     0.54161   0.09479   0.27356   0.00000  Uiso   1.00
C74    C     0.50114   0.33594   0.25044   0.00000  Uiso   1.00
C75    C     0.46401   0.40644   0.26967   0.00000  Uiso   1.00
C76    C     0.49805   0.11628   0.24899   0.00000  Uiso   1.00
C77    C     0.50377   0.38382   0.25144   0.00000  Uiso   1.00
C78    C     0.45479   0.09170   0.22422   0.00000  Uiso   1.00
C79    C     0.54399   0.40737   0.23302   0.00000  Uiso   1.00
C80    C     0.45683   0.04535   0.22436   0.00000  Uiso   1.00
C81    C     0.54220   0.45370   0.23208   0.00000  Uiso   1.00
C82    C     0.50068   0.02411   0.24877   0.00000  Uiso   1.00
C83    C     0.50175   0.47601   0.24954   0.00000  Uiso   1.00
C84    C     0.45691   0.23246   0.04621   0.00000  Uiso   1.00
C85    C     0.52034   0.28689   0.45084   0.00000  Uiso   1.00
C86    C     0.45900   0.23044   0.09574   0.00000  Uiso   1.00
C87    C     0.52274   0.28507   0.40188   0.00000  Uiso   1.00
C88    C     0.54036   0.26982   0.10789   0.00000  Uiso   1.00
C89    C     0.47720   0.21538   0.39437   0.00000  Uiso   1.00
C90    C     0.54124   0.26953   0.05858   0.00000  Uiso   1.00
F91    F     0.41345   0.21601   0.01785   0.00000  Uiso   1.00
F92    F     0.53942   0.32405   0.47603   0.00000  Uiso   1.00
F93    F     0.58038   0.29011   0.13724   0.00000  Uiso   1.00
F94    F     0.45419   0.18085   0.36719   0.00000  Uiso   1.00
H95    H     0.65785   0.24876   0.19464   0.00000  Uiso   1.00
H96    H     0.46138   0.18551   0.45886   0.00000  Uiso   1.00
H97    H     0.41015   0.14346   0.20822   0.00000  Uiso   1.00
H98    H     0.58784   0.35545   0.22665   0.00000  Uiso   1.00
H99    H     0.43354   0.19494   0.14287   0.00000  Uiso   1.00
H100   H     0.56483   0.30661   0.35709   0.00000  Uiso   1.00
H101   H     0.34221   0.25065   0.30539   0.00000  Uiso   1.00
H102   H     0.57686   0.03194   0.29234   0.00000  Uiso   1.00
H103   H     0.43175   0.47014   0.28235   0.00000  Uiso   1.00
H104   H     0.57459   0.11385   0.29255   0.00000  Uiso   1.00
H105   H     0.43334   0.38825   0.28383   0.00000  Uiso   1.00
H106   H     0.42410   0.02580   0.20566   0.00000  Uiso   1.00
H107   H     0.57242   0.47240   0.21784   0.00000  Uiso   1.00
H108   H     0.57531   0.28356   0.04589   0.00000  Uiso   1.00
N109   N     0.50000   0.24999   0.12624   0.00000  Uiso   1.00
N110   N     0.50000   0.25001   0.37377   0.00000  Uiso   1.00
O111   O     0.50000   0.18453   0.28974   0.00000  Uiso   1.00
O112   O     0.58555   0.38698   0.21639   0.00000  Uiso   1.00
O113   O     0.41880   0.20799   0.11223   0.00000  Uiso   1.00
O114   O     0.54909   0.31934   0.38358   0.00000  Uiso   1.00
O115   O     0.50000   0.31546   0.21026   0.00000  Uiso   1.00
O116   O     0.50000   0.18453   0.21026   0.00000  Uiso   1.00
O117   O     0.50000   0.31547   0.28974   0.00000  Uiso   1.00
O118   O     0.42392   0.25000   0.28044   0.00000  Uiso   1.00
O119   O     0.57608   0.25000   0.21956   0.00000  Uiso   1.00
O120   O     0.42392   0.24999   0.20096   0.00000  Uiso   1.00
O121   O     0.57608   0.25000   0.29904   0.00000  Uiso   1.00
O122   O     0.40998   0.11106   0.20053   0.00000  Uiso   1.00
Zn123  Zn    0.50000   0.25000   0.30307   0.00000  Uiso   1.00
Zn124  Zn    0.50000   0.24999   0.19693   0.00000  Uiso   1.00
C125   C     0.83258   0.16410   0.24964   0.00000  Uiso   1.00
C126   C     0.81083   0.21469   0.44384   0.00000  Uiso   1.00
C127   C     0.83226   0.25107   0.02648   0.00000  Uiso   1.00
C128   C     0.83213   0.25095   0.47322   0.00000  Uiso   1.00
C129   C     0.73372   0.24985   0.23752   0.00000  Uiso   1.00
C130   C     0.93296   0.25001   0.26248   0.00000  Uiso   1.00
C131   C     0.67860   0.24951   0.23088   0.00000  Uiso   1.00
C132   C     0.98808   0.25005   0.26914   0.00000  Uiso   1.00
C133   C     0.87642   0.04862   0.27322   0.00000  Uiso   1.00
C134   C     0.79613   0.45261   0.26848   0.00000  Uiso   1.00
C135   C     0.87494   0.09479   0.27356   0.00000  Uiso   1.00
C136   C     0.83448   0.33594   0.25044   0.00000  Uiso   1.00
C137   C     0.79734   0.40644   0.26967   0.00000  Uiso   1.00
C138   C     0.83139   0.11628   0.24899   0.00000  Uiso   1.00
C139   C     0.83711   0.38382   0.25144   0.00000  Uiso   1.00
C140   C     0.78813   0.09170   0.22422   0.00000  Uiso   1.00
C141   C     0.87732   0.40737   0.23302   0.00000  Uiso   1.00
C142   C     0.79016   0.04535   0.22436   0.00000  Uiso   1.00
C143   C     0.87553   0.45370   0.23208   0.00000  Uiso   1.00
C144   C     0.83401   0.02411   0.24877   0.00000  Uiso   1.00
C145   C     0.83508   0.47601   0.24954   0.00000  Uiso   1.00
C146   C     0.79024   0.23246   0.04621   0.00000  Uiso   1.00
C147   C     0.85368   0.28689   0.45084   0.00000  Uiso   1.00
C148   C     0.79234   0.23044   0.09574   0.00000  Uiso   1.00
C149   C     0.85608   0.28507   0.40188   0.00000  Uiso   1.00
C150   C     0.87369   0.26982   0.10789   0.00000  Uiso   1.00
C151   C     0.81053   0.21538   0.39437   0.00000  Uiso   1.00
C152   C     0.87457   0.26953   0.05858   0.00000  Uiso   1.00
F153   F     0.74678   0.21601   0.01785   0.00000  Uiso   1.00
F154   F     0.87275   0.32405   0.47603   0.00000  Uiso   1.00
F155   F     0.91372   0.29011   0.13724   0.00000  Uiso   1.00
F156   F     0.78752   0.18085   0.36719   0.00000  Uiso   1.00
H157   H     0.99118   0.24876   0.19464   0.00000  Uiso   1.00
H158   H     0.79471   0.18551   0.45886   0.00000  Uiso   1.00
H159   H     0.74348   0.14346   0.20822   0.00000  Uiso   1.00
H160   H     0.92117   0.35545   0.22665   0.00000  Uiso   1.00
H161   H     0.76688   0.19494   0.14287   0.00000  Uiso   1.00
H162   H     0.89816   0.30661   0.35709   0.00000  Uiso   1.00
H163   H     0.67555   0.25065   0.30539   0.00000  Uiso   1.00
H164   H     0.91020   0.03194   0.29234   0.00000  Uiso   1.00
H165   H     0.76509   0.47014   0.28235   0.00000  Uiso   1.00
H166   H     0.90792   0.11385   0.29255   0.00000  Uiso   1.00
H167   H     0.76667   0.38825   0.28383   0.00000  Uiso   1.00
H168   H     0.75743   0.02580   0.20566   0.00000  Uiso   1.00
H169   H     0.90576   0.47240   0.21784   0.00000  Uiso   1.00
H170   H     0.90864   0.28356   0.04589   0.00000  Uiso   1.00
N171   N     0.83333   0.24999   0.12624   0.00000  Uiso   1.00
N172   N     0.83333   0.25001   0.37377   0.00000  Uiso   1.00
O173   O     0.83334   0.18453   0.28974   0.00000  Uiso   1.00
O174   O     0.91888   0.38698   0.21639   0.00000  Uiso   1.00
O175   O     0.75213   0.20799   0.11223   0.00000  Uiso   1.00
O176   O     0.88242   0.31934   0.38358   0.00000  Uiso   1.00
O177   O     0.83333   0.31546   0.21026   0.00000  Uiso   1.00
O178   O     0.83334   0.18453   0.21026   0.00000  Uiso   1.00
O179   O     0.83333   0.31547   0.28974   0.00000  Uiso   1.00
O180   O     0.75725   0.25000   0.28044   0.00000  Uiso   1.00
O181   O     0.90942   0.25000   0.21956   0.00000  Uiso   1.00
O182   O     0.75725   0.24999   0.20096   0.00000  Uiso   1.00
O183   O     0.90942   0.25000   0.29904   0.00000  Uiso   1.00
O184   O     0.74331   0.11106   0.20053   0.00000  Uiso   1.00
Zn185  Zn    0.83333   0.25000   0.30307   0.00000  Uiso   1.00
Zn186  Zn    0.83333   0.24999   0.19693   0.00000  Uiso   1.00
C187   C     0.16592   0.66410   0.24964   0.00000  Uiso   1.00
C188   C     0.14417   0.71469   0.44384   0.00000  Uiso   1.00
C189   C     0.16559   0.75107   0.02648   0.00000  Uiso   1.00
C190   C     0.16546   0.75095   0.47322   0.00000  Uiso   1.00
C191   C     0.06705   0.74985   0.23752   0.00000  Uiso   1.00
C192   C     0.26629   0.75001   0.26248   0.00000  Uiso   1.00
C193   C     0.01194   0.74951   0.23088   0.00000  Uiso   1.00
C194   C     0.32141   0.75005   0.26914   0.00000  Uiso   1.00
C195   C     0.20976   0.54862   0.27322   0.00000  Uiso   1.00
C196   C     0.12946   0.95261   0.26848   0.00000  Uiso   1.00
C197   C     0.20827   0.59479   0.27356   0.00000  Uiso   1.00
C198   C     0.16781   0.83594   0.25044   0.00000  Uiso   1.00
C199   C     0.13067   0.90644   0.26967   0.00000  Uiso   1.00
C200   C     0.16472   0.61628   0.24899   0.00000  Uiso   1.00
C201   C     0.17044   0.88382   0.25144   0.00000  Uiso   1.00
C202   C     0.12146   0.59170   0.22422   0.00000  Uiso   1.00
C203   C     0.21065   0.90737   0.23302   0.00000  Uiso   1.00
C204   C     0.12349   0.54535   0.22436   0.00000  Uiso   1.00
C205   C     0.20886   0.95370   0.23208   0.00000  Uiso   1.00
C206   C     0.16734   0.52411   0.24877   0.00000  Uiso   1.00
C207   C     0.16842   0.97601   0.24954   0.00000  Uiso   1.00
C208   C     0.12357   0.73246   0.04621   0.00000  Uiso   1.00
C209   C     0.18701   0.78689   0.45084   0.00000  Uiso   1.00
C210   C     0.12567   0.73044   0.09574   0.00000  Uiso   1.00
C211   C     0.18941   0.78507   0.40188   0.00000  Uiso   1.00
C212   C     0.20703   0.76982   0.10789   0.00000  Uiso   1.00
C213   C     0.14387   0.71538   0.39437   0.00000  Uiso   1.00
C214   C     0.20790   0.76953   0.05858   0.00000  Uiso   1.00
F215   F     0.08012   0.71601   0.01785   0.00000  Uiso   1.00
F216   F     0.20609   0.82405   0.47603   0.00000  Uiso   1.00
F217   F     0.24705   0.79011   0.13724   0.00000  Uiso   1.00
F218   F     0.12086   0.68085   0.36719   0.00000  Uiso   1.00
H219   H     0.32451   0.74876   0.19464   0.00000  Uiso   1.00
H220   H     0.12805   0.68551   0.45886   0.00000  Uiso   1.00
H221   H     0.07681   0.64346   0.20822   0.00000  Uiso   1.00
H222   H     0.25451   0.85545   0.22665   0.00000  Uiso   1.00
H223   H     0.10021   0.69494   0.14287   0.00000  Uiso   1.00
H224   H     0.23149   0.80661   0.35709   0.00000  Uiso   1.00
H225   H     0.00888   0.75065   0.30539   0.00000  Uiso   1.00
H226   H     0.24353   0.53194   0.29234   0.00000  Uiso   1.00
H227   H     0.09842   0.97014   0.28235   0.00000  Uiso   1.00
H228   H     0.24126   0.61385   0.29255   0.00000  Uiso   1.00
H229   H     0.10000   0.88825   0.28383   0.00000  Uiso   1.00
H230   H     0.09076   0.52580   0.20566   0.00000  Uiso   1.00
H231   H     0.23909   0.97240   0.21784   0.00000  Uiso   1.00
H232   H     0.24197   0.78356   0.04589   0.00000  Uiso   1.00
N233   N     0.16667   0.74999   0.12624   0.00000  Uiso   1.00
N234   N     0.16667   0.75001   0.37377   0.00000  Uiso   1.00
O235   O     0.16667   0.68453   0.28974   0.00000  Uiso   1.00
O236   O     0.25222   0.88698   0.21639   0.00000  Uiso   1.00
O237   O     0.08547   0.70799   0.11223   0.00000  Uiso   1.00
O238   O     0.21575   0.81934   0.38358   0.00000  Uiso   1.00
O239   O     0.16666   0.81546   0.21026   0.00000  Uiso   1.00
O240   O     0.16667   0.68453   0.21026   0.00000  Uiso   1.00
O241   O     0.16666   0.81547   0.28974   0.00000  Uiso   1.00
O242   O     0.09058   0.75000   0.28044   0.00000  Uiso   1.00
O243   O     0.24275   0.75000   0.21956   0.00000  Uiso   1.00
O244   O     0.09058   0.74999   0.20096   0.00000  Uiso   1.00
O245   O     0.24275   0.75000   0.29904   0.00000  Uiso   1.00
O246   O     0.07665   0.61106   0.20053   0.00000  Uiso   1.00
Zn247  Zn    0.16667   0.75000   0.30307   0.00000  Uiso   1.00
Zn248  Zn    0.16667   0.74999   0.19693   0.00000  Uiso   1.00
C249   C     0.49925   0.66410   0.24964   0.00000  Uiso   1.00
C250   C     0.47750   0.71469   0.44384   0.00000  Uiso   1.00
C251   C     0.49893   0.75107   0.02648   0.00000  Uiso   1.00
C252   C     0.49879   0.75095   0.47322   0.00000  Uiso   1.00
C253   C     0.40038   0.74985   0.23752   0.00000  Uiso   1.00
C254   C     0.59962   0.75001   0.26248   0.00000  Uiso   1.00
C255   C     0.34527   0.74951   0.23088   0.00000  Uiso   1.00
C256   C     0.65475   0.75005   0.26914   0.00000  Uiso   1.00
C257   C     0.54309   0.54862   0.27322   0.00000  Uiso   1.00
C258   C     0.46280   0.95261   0.26848   0.00000  Uiso   1.00
C259   C     0.54161   0.59479   0.27356   0.00000  Uiso   1.00
C260   C     0.50114   0.83594   0.25044   0.00000  Uiso   1.00
C261   C     0.46401   0.90644   0.26967   0.00000  Uiso   1.00
C262   C     0.49805   0.61628   0.24899   0.00000  Uiso   1.00
C263   C     0.50377   0.88382   0.25144   0.00000  Uiso   1.00
C264   C     0.45479   0.59170   0.22422   0.00000  Uiso   1.00
C265   C     0.54399   0.90737   0.23302   0.00000  Uiso   1.00
C266   C     0.45683   0.54535   0.22436   0.00000  Uiso   1.00
C267   C     0.54220   0.95370   0.23208   0.00000  Uiso   1.00
C268   C     0.50068   0.52411   0.24877   0.00000  Uiso   1.00
C269   C     0.50175   0.97601   0.24954   0.00000  Uiso   1.00
C270   C     0.45691   0.73246   0.04621   0.00000  Uiso   1.00
C271   C     0.52034   0.78689   0.45084   0.00000  Uiso   1.00
C272   C     0.45900   0.73044   0.09574   0.00000  Uiso   1.00
C273   C     0.52274   0.78507   0.40188   0.00000  Uiso   1.00
C274   C     0.54036   0.76982   0.10789   0.00000  Uiso   1.00
C275   C     0.47720   0.71538   0.39437   0.00000  Uiso   1.00
C276   C     0.54124   0.76953   0.05858   0.00000  Uiso   1.00
F277   F     0.41345   0.71601   0.01785   0.00000  Uiso   1.00
F278   F     0.53942   0.82405   0.47603   0.00000  Uiso   1.00
F279   F     0.58038   0.79011   0.13724   0.00000  Uiso   1.00
F280   F     0.45419   0.68085   0.36719   0.00000  Uiso   1.00
H281   H     0.65785   0.74876   0.19464   0.00000  Uiso   1.00
H282   H     0.46138   0.68551   0.45886   0.00000  Uiso   1.00
H283   H     0.41015   0.64346   0.20822   0.00000  Uiso   1.00
H284   H     0.58784   0.85545   0.22665   0.00000  Uiso   1.00
H285   H     0.43354   0.69494   0.14287   0.00000  Uiso   1.00
H286   H     0.56483   0.80661   0.35709   0.00000  Uiso   1.00
H287   H     0.34221   0.75065   0.30539   0.00000  Uiso   1.00
H288   H     0.57686   0.53194   0.29234   0.00000  Uiso   1.00
H289   H     0.43175   0.97014   0.28235   0.00000  Uiso   1.00
H290   H     0.57459   0.61385   0.29255   0.00000  Uiso   1.00
H291   H     0.43334   0.88825   0.28383   0.00000  Uiso   1.00
H292   H     0.42410   0.52580   0.20566   0.00000  Uiso   1.00
H293   H     0.57242   0.97240   0.21784   0.00000  Uiso   1.00
H294   H     0.57531   0.78356   0.04589   0.00000  Uiso   1.00
N295   N     0.50000   0.74999   0.12624   0.00000  Uiso   1.00
N296   N     0.50000   0.75001   0.37377   0.00000  Uiso   1.00
O297   O     0.50000   0.68453   0.28974   0.00000  Uiso   1.00
O298   O     0.58555   0.88698   0.21639   0.00000  Uiso   1.00
O299   O     0.41880   0.70799   0.11223   0.00000  Uiso   1.00
O300   O     0.54909   0.81934   0.38358   0.00000  Uiso   1.00
O301   O     0.50000   0.81546   0.21026   0.00000  Uiso   1.00
O302   O     0.50000   0.68453   0.21026   0.00000  Uiso   1.00
O303   O     0.50000   0.81547   0.28974   0.00000  Uiso   1.00
O304   O     0.42392   0.75000   0.28044   0.00000  Uiso   1.00
O305   O     0.57608   0.75000   0.21956   0.00000  Uiso   1.00
O306   O     0.42392   0.74999   0.20096   0.00000  Uiso   1.00
O307   O     0.57608   0.75000   0.29904   0.00000  Uiso   1.00
O308   O     0.40998   0.61106   0.20053   0.00000  Uiso   1.00
Zn309  Zn    0.50000   0.75000   0.30307   0.00000  Uiso   1.00
Zn310  Zn    0.50000   0.74999   0.19693   0.00000  Uiso   1.00
C311   C     0.83258   0.66410   0.24964   0.00000  Uiso   1.00
C312   C     0.81083   0.71469   0.44384   0.00000  Uiso   1.00
C313   C     0.83226   0.75107   0.02648   0.00000  Uiso   1.00
C314   C     0.83213   0.75095   0.47322   0.00000  Uiso   1.00
C315   C     0.73372   0.74985   0.23752   0.00000  Uiso   1.00
C316   C     0.93296   0.75001   0.26248   0.00000  Uiso   1.00
C317   C     0.67860   0.74951   0.23088   0.00000  Uiso   1.00
C318   C     0.98808   0.75005   0.26914   0.00000  Uiso   1.00
C319   C     0.87642   0.54862   0.27322   0.00000  Uiso   1.00
C320   C     0.79613   0.95261   0.26848   0.00000  Uiso   1.00
C321   C     0.87494   0.59479   0.27356   0.00000  Uiso   1.00
C322   C     0.83448   0.83594   0.25044   0.00000  Uiso   1.00
C323   C     0.79734   0.90644   0.26967   0.00000  Uiso   1.00
C324   C     0.83139   0.61628   0.24899   0.00000  Uiso   1.00
C325   C     0.83711   0.88382   0.25144   0.00000  Uiso   1.00
C326   C     0.78813   0.59170   0.22422   0.00000  Uiso   1.00
C327   C     0.87732   0.90737   0.23302   0.00000  Uiso   1.00
C328   C     0.79016   0.54535   0.22436   0.00000  Uiso   1.00
C329   C     0.87553   0.95370   0.23208   0.00000  Uiso   1.00
C330   C     0.83401   0.52411   0.24877   0.00000  Uiso   1.00
C331   C     0.83508   0.97601   0.24954   0.00000  Uiso   1.00
C332   C     0.79024   0.73246   0.04621   0.00000  Uiso   1.00
C333   C     0.85368   0.78689   0.45084   0.00000  Uiso   1.00
C334   C     0.79234   0.73044   0.09574   0.00000  Uiso   1.00
C335   C     0.85608   0.78507   0.40188   0.00000  Uiso   1.00
C336   C     0.87369   0.76982   0.10789   0.00000  Uiso   1.00
C337   C     0.81053   0.71538   0.39437   0.00000  Uiso   1.00
C338   C     0.87457   0.76953   0.05858   0.00000  Uiso   1.00
F339   F     0.74678   0.71601   0.01785   0.00000  Uiso   1.00
F340   F     0.87275   0.82405   0.47603   0.00000  Uiso   1.00
F341   F     0.91372   0.79011   0.13724   0.00000  Uiso   1.00
F342   F     0.78752   0.68085   0.36719   0.00000  Uiso   1.00
H343   H     0.99118   0.74876   0.19464   0.00000  Uiso   1.00
H344   H     0.79471   0.68551   0.45886   0.00000  Uiso   1.00
H345   H     0.74348   0.64346   0.20822   0.00000  Uiso   1.00
H346   H     0.92117   0.85545   0.22665   0.00000  Uiso   1.00
H347   H     0.76688   0.69494   0.14287   0.00000  Uiso   1.00
H348   H     0.89816   0.80661   0.35709   0.00000  Uiso   1.00
H349   H     0.67555   0.75065   0.30539   0.00000  Uiso   1.00
H350   H     0.91020   0.53194   0.29234   0.00000  Uiso   1.00
H351   H     0.76509   0.97014   0.28235   0.00000  Uiso   1.00
H352   H     0.90792   0.61385   0.29255   0.00000  Uiso   1.00
H353   H     0.76667   0.88825   0.28383   0.00000  Uiso   1.00
H354   H     0.75743   0.52580   0.20566   0.00000  Uiso   1.00
H355   H     0.90576   0.97240   0.21784   0.00000  Uiso   1.00
H356   H     0.90864   0.78356   0.04589   0.00000  Uiso   1.00
N357   N     0.83333   0.74999   0.12624   0.00000  Uiso   1.00
N358   N     0.83333   0.75001   0.37377   0.00000  Uiso   1.00
O359   O     0.83334   0.68453   0.28974   0.00000  Uiso   1.00
O360   O     0.91888   0.88698   0.21639   0.00000  Uiso   1.00
O361   O     0.75213   0.70799   0.11223   0.00000  Uiso   1.00
O362   O     0.88242   0.81934   0.38358   0.00000  Uiso   1.00
O363   O     0.83333   0.81546   0.21026   0.00000  Uiso   1.00
O364   O     0.83334   0.68453   0.21026   0.00000  Uiso   1.00
O365   O     0.83333   0.81547   0.28974   0.00000  Uiso   1.00
O366   O     0.75725   0.75000   0.28044   0.00000  Uiso   1.00
O367   O     0.90942   0.75000   0.21956   0.00000  Uiso   1.00
O368   O     0.75725   0.74999   0.20096   0.00000  Uiso   1.00
O369   O     0.90942   0.75000   0.29904   0.00000  Uiso   1.00
O370   O     0.74331   0.61106   0.20053   0.00000  Uiso   1.00
Zn371  Zn    0.83333   0.75000   0.30307   0.00000  Uiso   1.00
Zn372  Zn    0.83333   0.74999   0.19693   0.00000  Uiso   1.00
C373   C     0.16592   0.16410   0.74964   0.00000  Uiso   1.00
C374   C     0.14417   0.21469   0.94384   0.00000  Uiso   1.00
C375   C     0.16559   0.25107   0.52648   0.00000  Uiso   1.00
C376   C     0.16546   0.25095   0.97322   0.00000  Uiso   1.00
C377   C     0.06705   0.24985   0.73752   0.00000  Uiso   1.00
C378   C     0.26629   0.25001   0.76248   0.00000  Uiso   1.00
C379   C     0.01194   0.24951   0.73088   0.00000  Uiso   1.00
C380   C     0.32141   0.25005   0.76914   0.00000  Uiso   1.00
C381   C     0.20976   0.04862   0.77322   0.00000  Uiso   1.00
C382   C     0.12946   0.45261   0.76848   0.00000  Uiso   1.00
C383   C     0.20827   0.09479   0.77356   0.00000  Uiso   1.00
C384   C     0.16781   0.33594   0.75044   0.00000  Uiso   1.00
C385   C     0.13067   0.40644   0.76967   0.00000  Uiso   1.00
C386   C     0.16472   0.11628   0.74899   0.00000  Uiso   1.00
C387   C     0.17044   0.38382   0.75144   0.00000  Uiso   1.00
C388   C     0.12146   0.09170   0.72422   0.00000  Uiso   1.00
C389   C     0.21065   0.40737   0.73302   0.00000  Uiso   1.00
C390   C     0.12349   0.04535   0.72436   0.00000  Uiso   1.00
C391   C     0.20886   0.45370   0.73208   0.00000  Uiso   1.00
C392   C     0.16734   0.02411   0.74877   0.00000  Uiso   1.00
C393   C     0.16842   0.47601   0.74954   0.00000  Uiso   1.00
C394   C     0.12357   0.23246   0.54621   0.00000  Uiso   1.00
C395   C     0.18701   0.28689   0.95084   0.00000  Uiso   1.00
C396   C     0.12567   0.23044   0.59574   0.00000  Uiso   1.00
C397   C     0.18941   0.28507   0.90188   0.00000  Uiso   1.00
C398   C     0.20703   0.26982   0.60789   0.00000  Uiso   1.00
C399   C     0.14387   0.21538   0.89437   0.00000  Uiso   1.00
C400   C     0.20790   0.26953   0.55858   0.00000  Uiso   1.00
F401   F     0.08012   0.21601   0.51785   0.00000  Uiso   1.00
F402   F     0.20609   0.32405   0.97603   0.00000  Uiso   1.00
F403   F     0.24705   0.29011   0.63724   0.00000  Uiso   1.00
F404   F     0.12086   0.18085   0.86719   0.00000  Uiso   1.00
H405   H     0.32451   0.24876   0.69464   0.00000  Uiso   1.00
H406   H     0.12805   0.18551   0.95886   0.00000  Uiso   1.00
H407   H     0.07681   0.14346   0.70822   0.00000  Uiso   1.00
H408   H     0.25451   0.35545   0.72665   0.00000  Uiso   1.00
H409   H     0.10021   0.19494   0.64287   0.00000  Uiso   1.00
H410   H     0.23149   0.30661   0.85709   0.00000  Uiso   1.00
H411   H     0.00888   0.25065   0.80539   0.00000  Uiso   1.00
H412   H     0.24353   0.03194   0.79234   0.00000  Uiso   1.00
H413   H     0.09842   0.47014   0.78235   0.00000  Uiso   1.00
H414   H     0.24126   0.11385   0.79255   0.00000  Uiso   1.00
H415   H     0.10000   0.38825   0.78383   0.00000  Uiso   1.00
H416   H     0.09076   0.02580   0.70566   0.00000  Uiso   1.00
H417   H     0.23909   0.47240   0.71784   0.00000  Uiso   1.00
H418   H     0.24197   0.28356   0.54589   0.00000  Uiso   1.00
N419   N     0.16667   0.24999   0.62624   0.00000  Uiso   1.00
N420   N     0.16667   0.25001   0.87377   0.00000  Uiso   1.00
O421   O     0.16667   0.18453   0.78974   0.00000  Uiso   1.00
O422   O     0.25222   0.38698   0.71639   0.00000  Uiso   1.00
O423   O     0.08547   0.20799   0.61223   0.00000  Uiso   1.00
O424   O     0.21575   0.31934   0.88358   0.00000  Uiso   1.00
O425   O     0.16666   0.31546   0.71026   0.00000  Uiso   1.00
O426   O     0.16667   0.18453   0.71026   0.00000  Uiso   1.00
O427   O     0.16666   0.31547   0.78974   0.00000  Uiso   1.00
O428   O     0.09058   0.25000   0.78044   0.00000  Uiso   1.00
O429   O     0.24275   0.25000   0.71956   0.00000  Uiso   1.00
O430   O     0.09058   0.24999   0.70096   0.00000  Uiso   1.00
O431   O     0.24275   0.25000   0.79904   0.00000  Uiso   1.00
O432   O     0.07665   0.11106   0.70053   0.00000  Uiso   1.00
Zn433  Zn    0.16667   0.25000   0.80307   0.00000  Uiso   1.00
Zn434  Zn    0.16667   0.24999   0.69693   0.00000  Uiso   1.00
C435   C     0.49925   0.16410   0.74964   0.00000  Uiso   1.00
C436   C     0.47750   0.21469   0.94384   0.00000  Uiso   1.00
C437   C     0.49893   0.25107   0.52648   0.00000  Uiso   1.00
C438   C     0.49879   0.25095   0.97322   0.00000  Uiso   1.00
C439   C     0.40038   0.24985   0.73752   0.00000  Uiso   1.00
C440   C     0.59962   0.25001   0.76248   0.00000  Uiso   1.00
C441   C     0.34527   0.24951   0.73088   0.00000  Uiso   1.00
C442   C     0.65475   0.25005   0.76914   0.00000  Uiso   1.00
C443   C     0.54309   0.04862   0.77322   0.00000  Uiso   1.00
C444   C     0.46280   0.45261   0.76848   0.00000  Uiso   1.00
C445   C     0.54161   0.09479   0.77356   0.00000  Uiso   1.00
C446   C     0.50114   0.33594   0.75044   0.00000  Uiso   1.00
C447   C     0.46401   0.40644   0.76967   0.00000  Uiso   1.00
C448   C     0.49805   0.11628   0.74899   0.00000  Uiso   1.00
C449   C     0.50377   0.38382   0.75144   0.00000  Uiso   1.00
C450   C     0.45479   0.09170   0.72422   0.00000  Uiso   1.00
C451   C     0.54399   0.40737   0.73302   0.00000  Uiso   1.00
C452   C     0.45683   0.04535   0.72436   0.00000  Uiso   1.00
C453   C     0.54220   0.45370   0.73208   0.00000  Uiso   1.00
C454   C     0.50068   0.02411   0.74877   0.00000  Uiso   1.00
C455   C     0.50175   0.47601   0.74954   0.00000  Uiso   1.00
C456   C     0.45691   0.23246   0.54621   0.00000  Uiso   1.00
C457   C     0.52034   0.28689   0.95084   0.00000  Uiso   1.00
C458   C     0.45900   0.23044   0.59574   0.00000  Uiso   1.00
C459   C     0.52274   0.28507   0.90188   0.00000  Uiso   1.00
C460   C     0.54036   0.26982   0.60789   0.00000  Uiso   1.00
C461   C     0.47720   0.21538   0.89437   0.00000  Uiso   1.00
C462   C     0.54124   0.26953   0.55858   0.00000  Uiso   1.00
F463   F     0.41345   0.21601   0.51785   0.00000  Uiso   1.00
F464   F     0.53942   0.32405   0.97603   0.00000  Uiso   1.00
F465   F     0.58038   0.29011   0.63724   0.00000  Uiso   1.00
F466   F     0.45419   0.18085   0.86719   0.00000  Uiso   1.00
H467   H     0.65785   0.24876   0.69464   0.00000  Uiso   1.00
H468   H     0.46138   0.18551   0.95886   0.00000  Uiso   1.00
H469   H     0.41015   0.14346   0.70822   0.00000  Uiso   1.00
H470   H     0.58784   0.35545   0.72665   0.00000  Uiso   1.00
H471   H     0.43354   0.19494   0.64287   0.00000  Uiso   1.00
H472   H     0.56483   0.30661   0.85709   0.00000  Uiso   1.00
H473   H     0.34221   0.25065   0.80539   0.00000  Uiso   1.00
H474   H     0.57686   0.03194   0.79234   0.00000  Uiso   1.00
H475   H     0.43175   0.47014   0.78235   0.00000  Uiso   1.00
H476   H     0.57459   0.11385   0.79255   0.00000  Uiso   1.00
H477   H     0.43334   0.38825   0.78383   0.00000  Uiso   1.00
H478   H     0.42410   0.02580   0.70566   0.00000  Uiso   1.00
H479   H     0.57242   0.47240   0.71784   0.00000  Uiso   1.00
H480   H     0.57531   0.28356   0.54589   0.00000  Uiso   1.00
N481   N     0.50000   0.24999   0.62624   0.00000  Uiso   1.00
N482   N     0.50000   0.25001   0.87377   0.00000  Uiso   1.00
O483   O     0.50000   0.18453   0.78974   0.00000  Uiso   1.00
O484   O     0.58555   0.38698   0.71639   0.00000  Uiso   1.00
O485   O     0.41880   0.20799   0.61223   0.00000  Uiso   1.00
O486   O     0.54909   0.31934   0.88358   0.00000  Uiso   1.00
O487   O     0.50000   0.31546   0.71026   0.00000  Uiso   1.00
O488   O     0.50000   0.18453   0.71026   0.00000  Uiso   1.00
O489   O     0.50000   0.31547   0.78974   0.00000  Uiso   1.00
O490   O     0.42392   0.25000   0.78044   0.00000  Uiso   1.00
O491   O     0.57608   0.25000   0.71956   0.00000  Uiso   1.00
O492   O     0.42392   0.24999   0.70096   0.00000  Uiso   1.00
O493   O     0.57608   0.25000   0.79904   0.00000  Uiso   1.00
O494   O     0.40998   0.11106   0.70053   0.00000  Uiso   1.00
Zn495  Zn    0.50000   0.25000   0.80307   0.00000  Uiso   1.00
Zn496  Zn    0.50000   0.24999   0.69693   0.00000  Uiso   1.00
C497   C     0.83258   0.16410   0.74964   0.00000  Uiso   1.00
C498   C     0.81083   0.21469   0.94384   0.00000  Uiso   1.00
C499   C     0.83226   0.25107   0.52648   0.00000  Uiso   1.00
C500   C     0.83213   0.25095   0.97322   0.00000  Uiso   1.00
C501   C     0.73372   0.24985   0.73752   0.00000  Uiso   1.00
C502   C     0.93296   0.25001   0.76248   0.00000  Uiso   1.00
C503   C     0.67860   0.24951   0.73088   0.00000  Uiso   1.00
C504   C     0.98808   0.25005   0.76914   0.00000  Uiso   1.00
C505   C     0.87642   0.04862   0.77322   0.00000  Uiso   1.00
C506   C     0.79613   0.45261   0.76848   0.00000  Uiso   1.00
C507   C     0.87494   0.09479   0.77356   0.00000  Uiso   1.00
C508   C     0.83448   0.33594   0.75044   0.00000  Uiso   1.00
C509   C     0.79734   0.40644   0.76967   0.00000  Uiso   1.00
C510   C     0.83139   0.11628   0.74899   0.00000  Uiso   1.00
C511   C     0.83711   0.38382   0.75144   0.00000  Uiso   1.00
C512   C     0.78813   0.09170   0.72422   0.00000  Uiso   1.00
C513   C     0.87732   0.40737   0.73302   0.00000  Uiso   1.00
C514   C     0.79016   0.04535   0.72436   0.00000  Uiso   1.00
C515   C     0.87553   0.45370   0.73208   0.00000  Uiso   1.00
C516   C     0.83401   0.02411   0.74877   0.00000  Uiso   1.00
C517   C     0.83508   0.47601   0.74954   0.00000  Uiso   1.00
C518   C     0.79024   0.23246   0.54621   0.00000  Uiso   1.00
C519   C     0.85368   0.28689   0.95084   0.00000  Uiso   1.00
C520   C     0.79234   0.23044   0.59574   0.00000  Uiso   1.00
C521   C     0.85608   0.28507   0.90188   0.00000  Uiso   1.00
C522   C     0.87369   0.26982   0.60789   0.00000  Uiso   1.00
C523   C     0.81053   0.21538   0.89437   0.00000  Uiso   1.00
C524   C     0.87457   0.26953   0.55858   0.00000  Uiso   1.00
F525   F     0.74678   0.21601   0.51785   0.00000  Uiso   1.00
F526   F     0.87275   0.32405   0.97603   0.00000  Uiso   1.00
F527   F     0.91372   0.29011   0.63724   0.00000  Uiso   1.00
F528   F     0.78752   0.18085   0.86719   0.00000  Uiso   1.00
H529   H     0.99118   0.24876   0.69464   0.00000  Uiso   1.00
H530   H     0.79471   0.18551   0.95886   0.00000  Uiso   1.00
H531   H     0.74348   0.14346   0.70822   0.00000  Uiso   1.00
H532   H     0.92117   0.35545   0.72665   0.00000  Uiso   1.00
H533   H     0.76688   0.19494   0.64287   0.00000  Uiso   1.00
H534   H     0.89816   0.30661   0.85709   0.00000  Uiso   1.00
H535   H     0.67555   0.25065   0.80539   0.00000  Uiso   1.00
H536   H     0.91020   0.03194   0.79234   0.00000  Uiso   1.00
H537   H     0.76509   0.47014   0.78235   0.00000  Uiso   1.00
H538   H     0.90792   0.11385   0.79255   0.00000  Uiso   1.00
H539   H     0.76667   0.38825   0.78383   0.00000  Uiso   1.00
H540   H     0.75743   0.02580   0.70566   0.00000  Uiso   1.00
H541   H     0.90576   0.47240   0.71784   0.00000  Uiso   1.00
H542   H     0.90864   0.28356   0.54589   0.00000  Uiso   1.00
N543   N     0.83333   0.24999   0.62624   0.00000  Uiso   1.00
N544   N     0.83333   0.25001   0.87377   0.00000  Uiso   1.00
O545   O     0.83334   0.18453   0.78974   0.00000  Uiso   1.00
O546   O     0.91888   0.38698   0.71639   0.00000  Uiso   1.00
O547   O     0.75213   0.20799   0.61223   0.00000  Uiso   1.00
O548   O     0.88242   0.31934   0.88358   0.00000  Uiso   1.00
O549   O     0.83333   0.31546   0.71026   0.00000  Uiso   1.00
O550   O     0.83334   0.18453   0.71026   0.00000  Uiso   1.00
O551   O     0.83333   0.31547   0.78974   0.00000  Uiso   1.00
O552   O     0.75725   0.25000   0.78044   0.00000  Uiso   1.00
O553   O     0.90942   0.25000   0.71956   0.00000  Uiso   1.00
O554   O     0.75725   0.24999   0.70096   0.00000  Uiso   1.00
O555   O     0.90942   0.25000   0.79904   0.00000  Uiso   1.00
O556   O     0.74331   0.11106   0.70053   0.00000  Uiso   1.00
Zn557  Zn    0.83333   0.25000   0.80307   0.00000  Uiso   1.00
Zn558  Zn    0.83333   0.24999   0.69693   0.00000  Uiso   1.00
C559   C     0.16592   0.66410   0.74964   0.00000  Uiso   1.00
C560   C     0.14417   0.71469   0.94384   0.00000  Uiso   1.00
C561   C     0.16559   0.75107   0.52648   0.00000  Uiso   1.00
C562   C     0.16546   0.75095   0.97322   0.00000  Uiso   1.00
C563   C     0.06705   0.74985   0.73752   0.00000  Uiso   1.00
C564   C     0.26629   0.75001   0.76248   0.00000  Uiso   1.00
C565   C     0.01194   0.74951   0.73088   0.00000  Uiso   1.00
C566   C     0.32141   0.75005   0.76914   0.00000  Uiso   1.00
C567   C     0.20976   0.54862   0.77322   0.00000  Uiso   1.00
C568   C     0.12946   0.95261   0.76848   0.00000  Uiso   1.00
C569   C     0.20827   0.59479   0.77356   0.00000  Uiso   1.00
C570   C     0.16781   0.83594   0.75044   0.00000  Uiso   1.00
C571   C     0.13067   0.90644   0.76967   0.00000  Uiso   1.00
C572   C     0.16472   0.61628   0.74899   0.00000  Uiso   1.00
C573   C     0.17044   0.88382   0.75144   0.00000  Uiso   1.00
C574   C     0.12146   0.59170   0.72422   0.00000  Uiso   1.00
C575   C     0.21065   0.90737   0.73302   0.00000  Uiso   1.00
C576   C     0.12349   0.54535   0.72436   0.00000  Uiso   1.00
C577   C     0.20886   0.95370   0.73208   0.00000  Uiso   1.00
C578   C     0.16734   0.52411   0.74877   0.00000  Uiso   1.00
C579   C     0.16842   0.97601   0.74954   0.00000  Uiso   1.00
C580   C     0.12357   0.73246   0.54621   0.00000  Uiso   1.00
C581   C     0.18701   0.78689   0.95084   0.00000  Uiso   1.00
C582   C     0.12567   0.73044   0.59574   0.00000  Uiso   1.00
C583   C     0.18941   0.78507   0.90188   0.00000  Uiso   1.00
C584   C     0.20703   0.76982   0.60789   0.00000  Uiso   1.00
C585   C     0.14387   0.71538   0.89437   0.00000  Uiso   1.00
C586   C     0.20790   0.76953   0.55858   0.00000  Uiso   1.00
F587   F     0.08012   0.71601   0.51785   0.00000  Uiso   1.00
F588   F     0.20609   0.82405   0.97603   0.00000  Uiso   1.00
F589   F     0.24705   0.79011   0.63724   0.00000  Uiso   1.00
F590   F     0.12086   0.68085   0.86719   0.00000  Uiso   1.00
H591   H     0.32451   0.74876   0.69464   0.00000  Uiso   1.00
H592   H     0.12805   0.68551   0.95886   0.00000  Uiso   1.00
H593   H     0.07681   0.64346   0.70822   0.00000  Uiso   1.00
H594   H     0.25451   0.85545   0.72665   0.00000  Uiso   1.00
H595   H     0.10021   0.69494   0.64287   0.00000  Uiso   1.00
H596   H     0.23149   0.80661   0.85709   0.00000  Uiso   1.00
H597   H     0.00888   0.75065   0.80539   0.00000  Uiso   1.00
H598   H     0.24353   0.53194   0.79234   0.00000  Uiso   1.00
H599   H     0.09842   0.97014   0.78235   0.00000  Uiso   1.00
H600   H     0.24126   0.61385   0.79255   0.00000  Uiso   1.00
H601   H     0.10000   0.88825   0.78383   0.00000  Uiso   1.00
H602   H     0.09076   0.52580   0.70566   0.00000  Uiso   1.00
H603   H     0.23909   0.97240   0.71784   0.00000  Uiso   1.00
H604   H     0.24197   0.78356   0.54589   0.00000  Uiso   1.00
N605   N     0.16667   0.74999   0.62624   0.00000  Uiso   1.00
N606   N     0.16667   0.75001   0.87377   0.00000  Uiso   1.00
O607   O     0.16667   0.68453   0.78974   0.00000  Uiso   1.00
O608   O     0.25222   0.88698   0.71639   0.00000  Uiso   1.00
O609   O     0.08547   0.70799   0.61223   0.00000  Uiso   1.00
O610   O     0.21575   0.81934   0.88358   0.00000  Uiso   1.00
O611   O     0.16666   0.81546   0.71026   0.00000  Uiso   1.00
O612   O     0.16667   0.68453   0.71026   0.00000  Uiso   1.00
O613   O     0.16666   0.81547   0.78974   0.00000  Uiso   1.00
O614   O     0.09058   0.75000   0.78044   0.00000  Uiso   1.00
O615   O     0.24275   0.75000   0.71956   0.00000  Uiso   1.00
O616   O     0.09058   0.74999   0.70096   0.00000  Uiso   1.00
O617   O     0.24275   0.75000   0.79904   0.00000  Uiso   1.00
O618   O     0.07665   0.61106   0.70053   0.00000  Uiso   1.00
Zn619  Zn    0.16667   0.75000   0.80307   0.00000  Uiso   1.00
Zn620  Zn    0.16667   0.74999   0.69693   0.00000  Uiso   1.00
C621   C     0.49925   0.66410   0.74964   0.00000  Uiso   1.00
C622   C     0.47750   0.71469   0.94384   0.00000  Uiso   1.00
C623   C     0.49893   0.75107   0.52648   0.00000  Uiso   1.00
C624   C     0.49879   0.75095   0.97322   0.00000  Uiso   1.00
C625   C     0.40038   0.74985   0.73752   0.00000  Uiso   1.00
C626   C     0.59962   0.75001   0.76248   0.00000  Uiso   1.00
C627   C     0.34527   0.74951   0.73088   0.00000  Uiso   1.00
C628   C     0.65475   0.75005   0.76914   0.00000  Uiso   1.00
C629   C     0.54309   0.54862   0.77322   0.00000  Uiso   1.00
C630   C     0.46280   0.95261   0.76848   0.00000  Uiso   1.00
C631   C     0.54161   0.59479   0.77356   0.00000  Uiso   1.00
C632   C     0.50114   0.83594   0.75044   0.00000  Uiso   1.00
C633   C     0.46401   0.90644   0.76967   0.00000  Uiso   1.00
C634   C     0.49805   0.61628   0.74899   0.00000  Uiso   1.00
C635   C     0.50377   0.88382   0.75144   0.00000  Uiso   1.00
C636   C     0.45479   0.59170   0.72422   0.00000  Uiso   1.00
C637   C     0.54399   0.90737   0.73302   0.00000  Uiso   1.00
C638   C     0.45683   0.54535   0.72436   0.00000  Uiso   1.00
C639   C     0.54220   0.95370   0.73208   0.00000  Uiso   1.00
C640   C     0.50068   0.52411   0.74877   0.00000  Uiso   1.00
C641   C     0.50175   0.97601   0.74954   0.00000  Uiso   1.00
C642   C     0.45691   0.73246   0.54621   0.00000  Uiso   1.00
C643   C     0.52034   0.78689   0.95084   0.00000  Uiso   1.00
C644   C     0.45900   0.73044   0.59574   0.00000  Uiso   1.00
C645   C     0.52274   0.78507   0.90188   0.00000  Uiso   1.00
C646   C     0.54036   0.76982   0.60789   0.00000  Uiso   1.00
C647   C     0.47720   0.71538   0.89437   0.00000  Uiso   1.00
C648   C     0.54124   0.76953   0.55858   0.00000  Uiso   1.00
F649   F     0.41345   0.71601   0.51785   0.00000  Uiso   1.00
F650   F     0.53942   0.82405   0.97603   0.00000  Uiso   1.00
F651   F     0.58038   0.79011   0.63724   0.00000  Uiso   1.00
F652   F     0.45419   0.68085   0.86719   0.00000  Uiso   1.00
H653   H     0.65785   0.74876   0.69464   0.00000  Uiso   1.00
H654   H     0.46138   0.68551   0.95886   0.00000  Uiso   1.00
H655   H     0.41015   0.64346   0.70822   0.00000  Uiso   1.00
H656   H     0.58784   0.85545   0.72665   0.00000  Uiso   1.00
H657   H     0.43354   0.69494   0.64287   0.00000  Uiso   1.00
H658   H     0.56483   0.80661   0.85709   0.00000  Uiso   1.00
H659   H     0.34221   0.75065   0.80539   0.00000  Uiso   1.00
H660   H     0.57686   0.53194   0.79234   0.00000  Uiso   1.00
H661   H     0.43175   0.97014   0.78235   0.00000  Uiso   1.00
H662   H     0.57459   0.61385   0.79255   0.00000  Uiso   1.00
H663   H     0.43334   0.88825   0.78383   0.00000  Uiso   1.00
H664   H     0.42410   0.52580   0.70566   0.00000  Uiso   1.00
H665   H     0.57242   0.97240   0.71784   0.00000  Uiso   1.00
H666   H     0.57531   0.78356   0.54589   0.00000  Uiso   1.00
N667   N     0.50000   0.74999   0.62624   0.00000  Uiso   1.00
N668   N     0.50000   0.75001   0.87377   0.00000  Uiso   1.00
O669   O     0.50000   0.68453   0.78974   0.00000  Uiso   1.00
O670   O     0.58555   0.88698   0.71639   0.00000  Uiso   1.00
O671   O     0.41880   0.70799   0.61223   0.00000  Uiso   1.00
O672   O     0.54909   0.81934   0.88358   0.00000  Uiso   1.00
O673   O     0.50000   0.81546   0.71026   0.00000  Uiso   1.00
O674   O     0.50000   0.68453   0.71026   0.00000  Uiso   1.00
O675   O     0.50000   0.81547   0.78974   0.00000  Uiso   1.00
O676   O     0.42392   0.75000   0.78044   0.00000  Uiso   1.00
O677   O     0.57608   0.75000   0.71956   0.00000  Uiso   1.00
O678   O     0.42392   0.74999   0.70096   0.00000  Uiso   1.00
O679   O     0.57608   0.75000   0.79904   0.00000  Uiso   1.00
O680   O     0.40998   0.61106   0.70053   0.00000  Uiso   1.00
Zn681  Zn    0.50000   0.75000   0.80307   0.00000  Uiso   1.00
Zn682  Zn    0.50000   0.74999   0.69693   0.00000  Uiso   1.00
C683   C     0.83258   0.66410   0.74964   0.00000  Uiso   1.00
C684   C     0.81083   0.71469   0.94384   0.00000  Uiso   1.00
C685   C     0.83226   0.75107   0.52648   0.00000  Uiso   1.00
C686   C     0.83213   0.75095   0.97322   0.00000  Uiso   1.00
C687   C     0.73372   0.74985   0.73752   0.00000  Uiso   1.00
C688   C     0.93296   0.75001   0.76248   0.00000  Uiso   1.00
C689   C     0.67860   0.74951   0.73088   0.00000  Uiso   1.00
C690   C     0.98808   0.75005   0.76914   0.00000  Uiso   1.00
C691   C     0.87642   0.54862   0.77322   0.00000  Uiso   1.00
C692   C     0.79613   0.95261   0.76848   0.00000  Uiso   1.00
C693   C     0.87494   0.59479   0.77356   0.00000  Uiso   1.00
C694   C     0.83448   0.83594   0.75044   0.00000  Uiso   1.00
C695   C     0.79734   0.90644   0.76967   0.00000  Uiso   1.00
C696   C     0.83139   0.61628   0.74899   0.00000  Uiso   1.00
C697   C     0.83711   0.88382   0.75144   0.00000  Uiso   1.00
C698   C     0.78813   0.59170   0.72422   0.00000  Uiso   1.00
C699   C     0.87732   0.90737   0.73302   0.00000  Uiso   1.00
C700   C     0.79016   0.54535   0.72436   0.00000  Uiso   1.00
C701   C     0.87553   0.95370   0.73208   0.00000  Uiso   1.00
C702   C     0.83401   0.52411   0.74877   0.00000  Uiso   1.00
C703   C     0.83508   0.97601   0.74954   0.00000  Uiso   1.00
C704   C     0.79024   0.73246   0.54621   0.00000  Uiso   1.00
C705   C     0.85368   0.78689   0.95084   0.00000  Uiso   1.00
C706   C     0.79234   0.73044   0.59574   0.00000  Uiso   1.00
C707   C     0.85608   0.78507   0.90188   0.00000  Uiso   1.00
C708   C     0.87369   0.76982   0.60789   0.00000  Uiso   1.00
C709   C     0.81053   0.71538   0.89437   0.00000  Uiso   1.00
C710   C     0.87457   0.76953   0.55858   0.00000  Uiso   1.00
F711   F     0.74678   0.71601   0.51785   0.00000  Uiso   1.00
F712   F     0.87275   0.82405   0.97603   0.00000  Uiso   1.00
F713   F     0.91372   0.79011   0.63724   0.00000  Uiso   1.00
F714   F     0.78752   0.68085   0.86719   0.00000  Uiso   1.00
H715   H     0.99118   0.74876   0.69464   0.00000  Uiso   1.00
H716   H     0.79471   0.68551   0.95886   0.00000  Uiso   1.00
H717   H     0.74348   0.64346   0.70822   0.00000  Uiso   1.00
H718   H     0.92117   0.85545   0.72665   0.00000  Uiso   1.00
H719   H     0.76688   0.69494   0.64287   0.00000  Uiso   1.00
H720   H     0.89816   0.80661   0.85709   0.00000  Uiso   1.00
H721   H     0.67555   0.75065   0.80539   0.00000  Uiso   1.00
H722   H     0.91020   0.53194   0.79234   0.00000  Uiso   1.00
H723   H     0.76509   0.97014   0.78235   0.00000  Uiso   1.00
H724   H     0.90792   0.61385   0.79255   0.00000  Uiso   1.00
H725   H     0.76667   0.88825   0.78383   0.00000  Uiso   1.00
H726   H     0.75743   0.52580   0.70566   0.00000  Uiso   1.00
H727   H     0.90576   0.97240   0.71784   0.00000  Uiso   1.00
H728   H     0.90864   0.78356   0.54589   0.00000  Uiso   1.00
N729   N     0.83333   0.74999   0.62624   0.00000  Uiso   1.00
N730   N     0.83333   0.75001   0.87377   0.00000  Uiso   1.00
O731   O     0.83334   0.68453   0.78974   0.00000  Uiso   1.00
O732   O     0.91888   0.88698   0.71639   0.00000  Uiso   1.00
O733   O     0.75213   0.70799   0.61223   0.00000  Uiso   1.00
O734   O     0.88242   0.81934   0.88358   0.00000  Uiso   1.00
O735   O     0.83333   0.81546   0.71026   0.00000  Uiso   1.00
O736   O     0.83334   0.68453   0.71026   0.00000  Uiso   1.00
O737   O     0.83333   0.81547   0.78974   0.00000  Uiso   1.00
O738   O     0.75725   0.75000   0.78044   0.00000  Uiso   1.00
O739   O     0.90942   0.75000   0.71956   0.00000  Uiso   1.00
O740   O     0.75725   0.74999   0.70096   0.00000  Uiso   1.00
O741   O     0.90942   0.75000   0.79904   0.00000  Uiso   1.00
O742   O     0.74331   0.61106   0.70053   0.00000  Uiso   1.00
Zn743  Zn    0.83333   0.75000   0.80307   0.00000  Uiso   1.00
Zn744  Zn    0.83333   0.74999   0.69693   0.00000  Uiso   1.00
loop_
_geom_bond_atom_site_label_1
_geom_bond_atom_site_label_2
_geom_bond_distance
_geom_bond_site_symmetry_2
_ccdc_geom_bond_type
C1     O54     1.287   .     A
C1     C14     1.427   .     S
C1     O49     1.286   .     A
C2     C4      1.411   .     A
C2     C27     1.410   .     A
C2     H34     1.081   .     S
C3     C28     1.411   .     A
C3     C22     1.407   .     A
C3     C376    1.518   1_554 S
C4     C23     1.407   .     A
C4     C375    1.518   .     S
C5     O56     1.279   .     A
C5     C7      1.404   .     S
C5     O58     1.285   .     A
C6     O57     1.279   .     A
C6     C8      1.404   .     S
C6     O59     1.285   .     A
C7     C132    1.333   1_455 S
C7     H157    1.087   1_455 S
C8     C69     1.333   .     S
C8     H101    1.088   .     S
C9     C11     1.379   .     A
C9     C20     1.395   .     A
C9     H40     1.084   .     S
C10    H41     1.084   .     S
C10    C21     1.395   .     A
C10    C13     1.380   .     A
C11    C14     1.396   .     A
C11    H42     1.084   .     S
C12    O53     1.287   .     A
C12    C15     1.430   .     S
C12    O55     1.288   .     A
C13    C15     1.397   .     A
C13    H43     1.084   .     S
C14    C16     1.414   .     A
C15    C17     1.415   .     A
C16    O60     1.382   .     S
C16    C18     1.385   .     A
C17    O50     1.382   .     S
C17    C19     1.385   .     A
C18    H44     1.084   .     S
C18    C20     1.397   .     A
C19    H45     1.084   .     S
C19    C21     1.396   .     A
C20    C207    1.437   1_545 S
C21    C206    1.437   .     S
C22    F29     1.358   .     S
C22    C24     1.407   .     A
C23    C25     1.407   .     A
C23    F30     1.358   .     S
C24    O51     1.373   .     S
C24    N47     1.378   .     A
C25    N48     1.378   .     A
C25    O52     1.373   .     S
C26    C28     1.410   .     A
C26    N47     1.366   .     A
C26    F31     1.354   .     S
C27    N48     1.366   .     A
C27    F32     1.354   .     S
C28    H46     1.081   .     S
H33    C69     1.087   .     S
H35    O60     0.989   .     S
H36    O50     0.989   .     S
H37    O51     0.985   .     S
H38    O52     0.985   .     S
H39    C132    1.088   1_455 S
N47    Zn62    2.016   .     S
N48    Zn61    2.016   .     S
O49    Zn61    1.986   .     S
O53    Zn62    1.986   .     S
O54    Zn62    1.996   .     S
O55    Zn61    1.996   .     S
O56    Zn61    1.967   .     S
O57    Zn62    1.967   .     S
O58    Zn62    1.982   .     S
O59    Zn61    1.982   .     S
C63    O116    1.287   .     A
C63    C76     1.427   .     S
C63    O111    1.286   .     A
C64    C66     1.411   .     A
C64    C89     1.410   .     A
C64    H96     1.081   .     S
C65    C90     1.411   .     A
C65    C84     1.407   .     A
C65    C438    1.518   1_554 S
C66    C85     1.407   .     A
C66    C437    1.518   .     S
C67    O118    1.279   .     A
C67    C69     1.404   .     S
C67    O120    1.285   .     A
C68    O119    1.279   .     A
C68    C70     1.404   .     S
C68    O121    1.285   .     A
C70    C131    1.333   .     S
C70    H163    1.088   .     S
C71    C73     1.379   .     A
C71    C82     1.395   .     A
C71    H102    1.084   .     S
C72    H103    1.084   .     S
C72    C83     1.395   .     A
C72    C75     1.380   .     A
C73    C76     1.396   .     A
C73    H104    1.084   .     S
C74    O115    1.287   .     A
C74    C77     1.430   .     S
C74    O117    1.288   .     A
C75    C77     1.397   .     A
C75    H105    1.084   .     S
C76    C78     1.414   .     A
C77    C79     1.415   .     A
C78    O122    1.382   .     S
C78    C80     1.385   .     A
C79    O112    1.382   .     S
C79    C81     1.385   .     A
C80    H106    1.084   .     S
C80    C82     1.397   .     A
C81    H107    1.084   .     S
C81    C83     1.396   .     A
C82    C269    1.437   1_545 S
C83    C268    1.437   .     S
C84    F91     1.358   .     S
C84    C86     1.407   .     A
C85    C87     1.407   .     A
C85    F92     1.358   .     S
C86    O113    1.373   .     S
C86    N109    1.378   .     A
C87    N110    1.378   .     A
C87    O114    1.373   .     S
C88    C90     1.410   .     A
C88    N109    1.366   .     A
C88    F93     1.354   .     S
C89    N110    1.366   .     A
C89    F94     1.354   .     S
C90    H108    1.081   .     S
H95    C131    1.087   .     S
H97    O122    0.989   .     S
H98    O112    0.989   .     S
H99    O113    0.985   .     S
H100   O114    0.985   .     S
N109   Zn124   2.016   .     S
N110   Zn123   2.016   .     S
O111   Zn123   1.986   .     S
O115   Zn124   1.986   .     S
O116   Zn124   1.996   .     S
O117   Zn123   1.996   .     S
O118   Zn123   1.967   .     S
O119   Zn124   1.967   .     S
O120   Zn124   1.982   .     S
O121   Zn123   1.982   .     S
C125   O178    1.287   .     A
C125   C138    1.427   .     S
C125   O173    1.286   .     A
C126   C128    1.411   .     A
C126   C151    1.410   .     A
C126   H158    1.081   .     S
C127   C152    1.411   .     A
C127   C146    1.407   .     A
C127   C500    1.518   1_554 S
C128   C147    1.407   .     A
C128   C499    1.518   .     S
C129   O180    1.279   .     A
C129   C131    1.404   .     S
C129   O182    1.285   .     A
C130   O181    1.279   .     A
C130   C132    1.404   .     S
C130   O183    1.285   .     A
C132   C7      1.333   1_655 S
C132   H39     1.088   1_655 S
C133   C135    1.379   .     A
C133   C144    1.395   .     A
C133   H164    1.084   .     S
C134   H165    1.084   .     S
C134   C145    1.395   .     A
C134   C137    1.380   .     A
C135   C138    1.396   .     A
C135   H166    1.084   .     S
C136   O177    1.287   .     A
C136   C139    1.430   .     S
C136   O179    1.288   .     A
C137   C139    1.397   .     A
C137   H167    1.084   .     S
C138   C140    1.414   .     A
C139   C141    1.415   .     A
C140   O184    1.382   .     S
C140   C142    1.385   .     A
C141   O174    1.382   .     S
C141   C143    1.385   .     A
C142   H168    1.084   .     S
C142   C144    1.397   .     A
C143   H169    1.084   .     S
C143   C145    1.396   .     A
C144   C331    1.437   1_545 S
C145   C330    1.437   .     S
C146   F153    1.358   .     S
C146   C148    1.407   .     A
C147   C149    1.407   .     A
C147   F154    1.358   .     S
C148   O175    1.373   .     S
C148   N171    1.378   .     A
C149   N172    1.378   .     A
C149   O176    1.373   .     S
C150   C152    1.410   .     A
C150   N171    1.366   .     A
C150   F155    1.354   .     S
C151   N172    1.366   .     A
C151   F156    1.354   .     S
C152   H170    1.081   .     S
H157   C7      1.087   1_655 S
H159   O184    0.989   .     S
H160   O174    0.989   .     S
H161   O175    0.985   .     S
H162   O176    0.985   .     S
N171   Zn186   2.016   .     S
N172   Zn185   2.016   .     S
O173   Zn185   1.986   .     S
O177   Zn186   1.986   .     S
O178   Zn186   1.996   .     S
O179   Zn185   1.996   .     S
O180   Zn185   1.967   .     S
O181   Zn186   1.967   .     S
O182   Zn186   1.982   .     S
O183   Zn185   1.982   .     S
C187   O240    1.287   .     A
C187   C200    1.427   .     S
C187   O235    1.286   .     A
C188   C190    1.411   .     A
C188   C213    1.410   .     A
C188   H220    1.081   .     S
C189   C214    1.411   .     A
C189   C208    1.407   .     A
C189   C562    1.518   1_554 S
C190   C209    1.407   .     A
C190   C561    1.518   .     S
C191   O242    1.279   .     A
C191   C193    1.404   .     S
C191   O244    1.285   .     A
C192   O243    1.279   .     A
C192   C194    1.404   .     S
C192   O245    1.285   .     A
C193   C318    1.333   1_455 S
C193   H343    1.087   1_455 S
C194   C255    1.333   .     S
C194   H287    1.088   .     S
C195   C197    1.379   .     A
C195   C206    1.395   .     A
C195   H226    1.084   .     S
C196   H227    1.084   .     S
C196   C207    1.395   .     A
C196   C199    1.380   .     A
C197   C200    1.396   .     A
C197   H228    1.084   .     S
C198   O239    1.287   .     A
C198   C201    1.430   .     S
C198   O241    1.288   .     A
C199   C201    1.397   .     A
C199   H229    1.084   .     S
C200   C202    1.414   .     A
C201   C203    1.415   .     A
C202   O246    1.382   .     S
C202   C204    1.385   .     A
C203   O236    1.382   .     S
C203   C205    1.385   .     A
C204   H230    1.084   .     S
C204   C206    1.397   .     A
C205   H231    1.084   .     S
C205   C207    1.396   .     A
C207   C20     1.437   1_565 S
C208   F215    1.358   .     S
C208   C210    1.407   .     A
C209   C211    1.407   .     A
C209   F216    1.358   .     S
C210   O237    1.373   .     S
C210   N233    1.378   .     A
C211   N234    1.378   .     A
C211   O238    1.373   .     S
C212   C214    1.410   .     A
C212   N233    1.366   .     A
C212   F217    1.354   .     S
C213   N234    1.366   .     A
C213   F218    1.354   .     S
C214   H232    1.081   .     S
H219   C255    1.087   .     S
H221   O246    0.989   .     S
H222   O236    0.989   .     S
H223   O237    0.985   .     S
H224   O238    0.985   .     S
H225   C318    1.088   1_455 S
N233   Zn248   2.016   .     S
N234   Zn247   2.016   .     S
O235   Zn247   1.986   .     S
O239   Zn248   1.986   .     S
O240   Zn248   1.996   .     S
O241   Zn247   1.996   .     S
O242   Zn247   1.967   .     S
O243   Zn248   1.967   .     S
O244   Zn248   1.982   .     S
O245   Zn247   1.982   .     S
C249   O302    1.287   .     A
C249   C262    1.427   .     S
C249   O297    1.286   .     A
C250   C252    1.411   .     A
C250   C275    1.410   .     A
C250   H282    1.081   .     S
C251   C276    1.411   .     A
C251   C270    1.407   .     A
C251   C624    1.518   1_554 S
C252   C271    1.407   .     A
C252   C623    1.518   .     S
C253   O304    1.279   .     A
C253   C255    1.404   .     S
C253   O306    1.285   .     A
C254   O305    1.279   .     A
C254   C256    1.404   .     S
C254   O307    1.285   .     A
C256   C317    1.333   .     S
C256   H349    1.088   .     S
C257   C259    1.379   .     A
C257   C268    1.395   .     A
C257   H288    1.084   .     S
C258   H289    1.084   .     S
C258   C269    1.395   .     A
C258   C261    1.380   .     A
C259   C262    1.396   .     A
C259   H290    1.084   .     S
C260   O301    1.287   .     A
C260   C263    1.430   .     S
C260   O303    1.288   .     A
C261   C263    1.397   .     A
C261   H291    1.084   .     S
C262   C264    1.414   .     A
C263   C265    1.415   .     A
C264   O308    1.382   .     S
C264   C266    1.385   .     A
C265   O298    1.382   .     S
C265   C267    1.385   .     A
C266   H292    1.084   .     S
C266   C268    1.397   .     A
C267   H293    1.084   .     S
C267   C269    1.396   .     A
C269   C82     1.437   1_565 S
C270   F277    1.358   .     S
C270   C272    1.407   .     A
C271   C273    1.407   .     A
C271   F278    1.358   .     S
C272   O299    1.373   .     S
C272   N295    1.378   .     A
C273   N296    1.378   .     A
C273   O300    1.373   .     S
C274   C276    1.410   .     A
C274   N295    1.366   .     A
C274   F279    1.354   .     S
C275   N296    1.366   .     A
C275   F280    1.354   .     S
C276   H294    1.081   .     S
H281   C317    1.087   .     S
H283   O308    0.989   .     S
H284   O298    0.989   .     S
H285   O299    0.985   .     S
H286   O300    0.985   .     S
N295   Zn310   2.016   .     S
N296   Zn309   2.016   .     S
O297   Zn309   1.986   .     S
O301   Zn310   1.986   .     S
O302   Zn310   1.996   .     S
O303   Zn309   1.996   .     S
O304   Zn309   1.967   .     S
O305   Zn310   1.967   .     S
O306   Zn310   1.982   .     S
O307   Zn309   1.982   .     S
C311   O364    1.287   .     A
C311   C324    1.427   .     S
C311   O359    1.286   .     A
C312   C314    1.411   .     A
C312   C337    1.410   .     A
C312   H344    1.081   .     S
C313   C338    1.411   .     A
C313   C332    1.407   .     A
C313   C686    1.518   1_554 S
C314   C333    1.407   .     A
C314   C685    1.518   .     S
C315   O366    1.279   .     A
C315   C317    1.404   .     S
C315   O368    1.285   .     A
C316   O367    1.279   .     A
C316   C318    1.404   .     S
C316   O369    1.285   .     A
C318   C193    1.333   1_655 S
C318   H225    1.088   1_655 S
C319   C321    1.379   .     A
C319   C330    1.395   .     A
C319   H350    1.084   .     S
C320   H351    1.084   .     S
C320   C331    1.395   .     A
C320   C323    1.380   .     A
C321   C324    1.396   .     A
C321   H352    1.084   .     S
C322   O363    1.287   .     A
C322   C325    1.430   .     S
C322   O365    1.288   .     A
C323   C325    1.397   .     A
C323   H353    1.084   .     S
C324   C326    1.414   .     A
C325   C327    1.415   .     A
C326   O370    1.382   .     S
C326   C328    1.385   .     A
C327   O360    1.382   .     S
C327   C329    1.385   .     A
C328   H354    1.084   .     S
C328   C330    1.397   .     A
C329   H355    1.084   .     S
C329   C331    1.396   .     A
C331   C144    1.437   1_565 S
C332   F339    1.358   .     S
C332   C334    1.407   .     A
C333   C335    1.407   .     A
C333   F340    1.358   .     S
C334   O361    1.373   .     S
C334   N357    1.378   .     A
C335   N358    1.378   .     A
C335   O362    1.373   .     S
C336   C338    1.410   .     A
C336   N357    1.366   .     A
C336   F341    1.354   .     S
C337   N358    1.366   .     A
C337   F342    1.354   .     S
C338   H356    1.081   .     S
H343   C193    1.087   1_655 S
H345   O370    0.989   .     S
H346   O360    0.989   .     S
H347   O361    0.985   .     S
H348   O362    0.985   .     S
N357   Zn372   2.016   .     S
N358   Zn371   2.016   .     S
O359   Zn371   1.986   .     S
O363   Zn372   1.986   .     S
O364   Zn372   1.996   .     S
O365   Zn371   1.996   .     S
O366   Zn371   1.967   .     S
O367   Zn372   1.967   .     S
O368   Zn372   1.982   .     S
O369   Zn371   1.982   .     S
C373   O426    1.287   .     A
C373   C386    1.427   .     S
C373   O421    1.286   .     A
C374   C376    1.411   .     A
C374   C399    1.410   .     A
C374   H406    1.081   .     S
C375   C400    1.411   .     A
C375   C394    1.407   .     A
C376   C395    1.407   .     A
C376   C3      1.518   1_556 S
C377   O428    1.279   .     A
C377   C379    1.404   .     S
C377   O430    1.285   .     A
C378   O429    1.279   .     A
C378   C380    1.404   .     S
C378   O431    1.285   .     A
C379   C504    1.333   1_455 S
C379   H529    1.087   1_455 S
C380   C441    1.333   .     S
C380   H473    1.088   .     S
C381   C383    1.379   .     A
C381   C392    1.395   .     A
C381   H412    1.084   .     S
C382   H413    1.084   .     S
C382   C393    1.395   .     A
C382   C385    1.380   .     A
C383   C386    1.396   .     A
C383   H414    1.084   .     S
C384   O425    1.287   .     A
C384   C387    1.430   .     S
C384   O427    1.288   .     A
C385   C387    1.397   .     A
C385   H415    1.084   .     S
C386   C388    1.414   .     A
C387   C389    1.415   .     A
C388   O432    1.382   .     S
C388   C390    1.385   .     A
C389   O422    1.382   .     S
C389   C391    1.385   .     A
C390   H416    1.084   .     S
C390   C392    1.397   .     A
C391   H417    1.084   .     S
C391   C393    1.396   .     A
C392   C579    1.437   1_545 S
C393   C578    1.437   .     S
C394   F401    1.358   .     S
C394   C396    1.407   .     A
C395   C397    1.407   .     A
C395   F402    1.358   .     S
C396   O423    1.373   .     S
C396   N419    1.378   .     A
C397   N420    1.378   .     A
C397   O424    1.373   .     S
C398   C400    1.410   .     A
C398   N419    1.366   .     A
C398   F403    1.354   .     S
C399   N420    1.366   .     A
C399   F404    1.354   .     S
C400   H418    1.081   .     S
H405   C441    1.087   .     S
H407   O432    0.989   .     S
H408   O422    0.989   .     S
H409   O423    0.985   .     S
H410   O424    0.985   .     S
H411   C504    1.088   1_455 S
N419   Zn434   2.016   .     S
N420   Zn433   2.016   .     S
O421   Zn433   1.986   .     S
O425   Zn434   1.986   .     S
O426   Zn434   1.996   .     S
O427   Zn433   1.996   .     S
O428   Zn433   1.967   .     S
O429   Zn434   1.967   .     S
O430   Zn434   1.982   .     S
O431   Zn433   1.982   .     S
C435   O488    1.287   .     A
C435   C448    1.427   .     S
C435   O483    1.286   .     A
C436   C438    1.411   .     A
C436   C461    1.410   .     A
C436   H468    1.081   .     S
C437   C462    1.411   .     A
C437   C456    1.407   .     A
C438   C457    1.407   .     A
C438   C65     1.518   1_556 S
C439   O490    1.279   .     A
C439   C441    1.404   .     S
C439   O492    1.285   .     A
C440   O491    1.279   .     A
C440   C442    1.404   .     S
C440   O493    1.285   .     A
C442   C503    1.333   .     S
C442   H535    1.088   .     S
C443   C445    1.379   .     A
C443   C454    1.395   .     A
C443   H474    1.084   .     S
C444   H475    1.084   .     S
C444   C455    1.395   .     A
C444   C447    1.380   .     A
C445   C448    1.396   .     A
C445   H476    1.084   .     S
C446   O487    1.287   .     A
C446   C449    1.430   .     S
C446   O489    1.288   .     A
C447   C449    1.397   .     A
C447   H477    1.084   .     S
C448   C450    1.414   .     A
C449   C451    1.415   .     A
C450   O494    1.382   .     S
C450   C452    1.385   .     A
C451   O484    1.382   .     S
C451   C453    1.385   .     A
C452   H478    1.084   .     S
C452   C454    1.397   .     A
C453   H479    1.084   .     S
C453   C455    1.396   .     A
C454   C641    1.437   1_545 S
C455   C640    1.437   .     S
C456   F463    1.358   .     S
C456   C458    1.407   .     A
C457   C459    1.407   .     A
C457   F464    1.358   .     S
C458   O485    1.373   .     S
C458   N481    1.378   .     A
C459   N482    1.378   .     A
C459   O486    1.373   .     S
C460   C462    1.410   .     A
C460   N481    1.366   .     A
C460   F465    1.354   .     S
C461   N482    1.366   .     A
C461   F466    1.354   .     S
C462   H480    1.081   .     S
H467   C503    1.087   .     S
H469   O494    0.989   .     S
H470   O484    0.989   .     S
H471   O485    0.985   .     S
H472   O486    0.985   .     S
N481   Zn496   2.016   .     S
N482   Zn495   2.016   .     S
O483   Zn495   1.986   .     S
O487   Zn496   1.986   .     S
O488   Zn496   1.996   .     S
O489   Zn495   1.996   .     S
O490   Zn495   1.967   .     S
O491   Zn496   1.967   .     S
O492   Zn496   1.982   .     S
O493   Zn495   1.982   .     S
C497   O550    1.287   .     A
C497   C510    1.427   .     S
C497   O545    1.286   .     A
C498   C500    1.411   .     A
C498   C523    1.410   .     A
C498   H530    1.081   .     S
C499   C524    1.411   .     A
C499   C518    1.407   .     A
C500   C519    1.407   .     A
C500   C127    1.518   1_556 S
C501   O552    1.279   .     A
C501   C503    1.404   .     S
C501   O554    1.285   .     A
C502   O553    1.279   .     A
C502   C504    1.404   .     S
C502   O555    1.285   .     A
C504   C379    1.333   1_655 S
C504   H411    1.088   1_655 S
C505   C507    1.379   .     A
C505   C516    1.395   .     A
C505   H536    1.084   .     S
C506   H537    1.084   .     S
C506   C517    1.395   .     A
C506   C509    1.380   .     A
C507   C510    1.396   .     A
C507   H538    1.084   .     S
C508   O549    1.287   .     A
C508   C511    1.430   .     S
C508   O551    1.288   .     A
C509   C511    1.397   .     A
C509   H539    1.084   .     S
C510   C512    1.414   .     A
C511   C513    1.415   .     A
C512   O556    1.382   .     S
C512   C514    1.385   .     A
C513   O546    1.382   .     S
C513   C515    1.385   .     A
C514   H540    1.084   .     S
C514   C516    1.397   .     A
C515   H541    1.084   .     S
C515   C517    1.396   .     A
C516   C703    1.437   1_545 S
C517   C702    1.437   .     S
C518   F525    1.358   .     S
C518   C520    1.407   .     A
C519   C521    1.407   .     A
C519   F526    1.358   .     S
C520   O547    1.373   .     S
C520   N543    1.378   .     A
C521   N544    1.378   .     A
C521   O548    1.373   .     S
C522   C524    1.410   .     A
C522   N543    1.366   .     A
C522   F527    1.354   .     S
C523   N544    1.366   .     A
C523   F528    1.354   .     S
C524   H542    1.081   .     S
H529   C379    1.087   1_655 S
H531   O556    0.989   .     S
H532   O546    0.989   .     S
H533   O547    0.985   .     S
H534   O548    0.985   .     S
N543   Zn558   2.016   .     S
N544   Zn557   2.016   .     S
O545   Zn557   1.986   .     S
O549   Zn558   1.986   .     S
O550   Zn558   1.996   .     S
O551   Zn557   1.996   .     S
O552   Zn557   1.967   .     S
O553   Zn558   1.967   .     S
O554   Zn558   1.982   .     S
O555   Zn557   1.982   .     S
C559   O612    1.287   .     A
C559   C572    1.427   .     S
C559   O607    1.286   .     A
C560   C562    1.411   .     A
C560   C585    1.410   .     A
C560   H592    1.081   .     S
C561   C586    1.411   .     A
C561   C580    1.407   .     A
C562   C581    1.407   .     A
C562   C189    1.518   1_556 S
C563   O614    1.279   .     A
C563   C565    1.404   .     S
C563   O616    1.285   .     A
C564   O615    1.279   .     A
C564   C566    1.404   .     S
C564   O617    1.285   .     A
C565   C690    1.333   1_455 S
C565   H715    1.087   1_455 S
C566   C627    1.333   .     S
C566   H659    1.088   .     S
C567   C569    1.379   .     A
C567   C578    1.395   .     A
C567   H598    1.084   .     S
C568   H599    1.084   .     S
C568   C579    1.395   .     A
C568   C571    1.380   .     A
C569   C572    1.396   .     A
C569   H600    1.084   .     S
C570   O611    1.287   .     A
C570   C573    1.430   .     S
C570   O613    1.288   .     A
C571   C573    1.397   .     A
C571   H601    1.084   .     S
C572   C574    1.414   .     A
C573   C575    1.415   .     A
C574   O618    1.382   .     S
C574   C576    1.385   .     A
C575   O608    1.382   .     S
C575   C577    1.385   .     A
C576   H602    1.084   .     S
C576   C578    1.397   .     A
C577   H603    1.084   .     S
C577   C579    1.396   .     A
C579   C392    1.437   1_565 S
C580   F587    1.358   .     S
C580   C582    1.407   .     A
C581   C583    1.407   .     A
C581   F588    1.358   .     S
C582   O609    1.373   .     S
C582   N605    1.378   .     A
C583   N606    1.378   .     A
C583   O610    1.373   .     S
C584   C586    1.410   .     A
C584   N605    1.366   .     A
C584   F589    1.354   .     S
C585   N606    1.366   .     A
C585   F590    1.354   .     S
C586   H604    1.081   .     S
H591   C627    1.087   .     S
H593   O618    0.989   .     S
H594   O608    0.989   .     S
H595   O609    0.985   .     S
H596   O610    0.985   .     S
H597   C690    1.088   1_455 S
N605   Zn620   2.016   .     S
N606   Zn619   2.016   .     S
O607   Zn619   1.986   .     S
O611   Zn620   1.986   .     S
O612   Zn620   1.996   .     S
O613   Zn619   1.996   .     S
O614   Zn619   1.967   .     S
O615   Zn620   1.967   .     S
O616   Zn620   1.982   .     S
O617   Zn619   1.982   .     S
C621   O674    1.287   .     A
C621   C634    1.427   .     S
C621   O669    1.286   .     A
C622   C624    1.411   .     A
C622   C647    1.410   .     A
C622   H654    1.081   .     S
C623   C648    1.411   .     A
C623   C642    1.407   .     A
C624   C643    1.407   .     A
C624   C251    1.518   1_556 S
C625   O676    1.279   .     A
C625   C627    1.404   .     S
C625   O678    1.285   .     A
C626   O677    1.279   .     A
C626   C628    1.404   .     S
C626   O679    1.285   .     A
C628   C689    1.333   .     S
C628   H721    1.088   .     S
C629   C631    1.379   .     A
C629   C640    1.395   .     A
C629   H660    1.084   .     S
C630   H661    1.084   .     S
C630   C641    1.395   .     A
C630   C633    1.380   .     A
C631   C634    1.396   .     A
C631   H662    1.084   .     S
C632   O673    1.287   .     A
C632   C635    1.430   .     S
C632   O675    1.288   .     A
C633   C635    1.397   .     A
C633   H663    1.084   .     S
C634   C636    1.414   .     A
C635   C637    1.415   .     A
C636   O680    1.382   .     S
C636   C638    1.385   .     A
C637   O670    1.382   .     S
C637   C639    1.385   .     A
C638   H664    1.084   .     S
C638   C640    1.397   .     A
C639   H665    1.084   .     S
C639   C641    1.396   .     A
C641   C454    1.437   1_565 S
C642   F649    1.358   .     S
C642   C644    1.407   .     A
C643   C645    1.407   .     A
C643   F650    1.358   .     S
C644   O671    1.373   .     S
C644   N667    1.378   .     A
C645   N668    1.378   .     A
C645   O672    1.373   .     S
C646   C648    1.410   .     A
C646   N667    1.366   .     A
C646   F651    1.354   .     S
C647   N668    1.366   .     A
C647   F652    1.354   .     S
C648   H666    1.081   .     S
H653   C689    1.087   .     S
H655   O680    0.989   .     S
H656   O670    0.989   .     S
H657   O671    0.985   .     S
H658   O672    0.985   .     S
N667   Zn682   2.016   .     S
N668   Zn681   2.016   .     S
O669   Zn681   1.986   .     S
O673   Zn682   1.986   .     S
O674   Zn682   1.996   .     S
O675   Zn681   1.996   .     S
O676   Zn681   1.967   .     S
O677   Zn682   1.967   .     S
O678   Zn682   1.982   .     S
O679   Zn681   1.982   .     S
C683   O736    1.287   .     A
C683   C696    1.427   .     S
C683   O731    1.286   .     A
C684   C686    1.411   .     A
C684   C709    1.410   .     A
C684   H716    1.081   .     S
C685   C710    1.411   .     A
C685   C704    1.407   .     A
C686   C705    1.407   .     A
C686   C313    1.518   1_556 S
C687   O738    1.279   .     A
C687   C689    1.404   .     S
C687   O740    1.285   .     A
C688   O739    1.279   .     A
C688   C690    1.404   .     S
C688   O741    1.285   .     A
C690   C565    1.333   1_655 S
C690   H597    1.088   1_655 S
C691   C693    1.379   .     A
C691   C702    1.395   .     A
C691   H722    1.084   .     S
C692   H723    1.084   .     S
C692   C703    1.395   .     A
C692   C695    1.380   .     A
C693   C696    1.396   .     A
C693   H724    1.084   .     S
C694   O735    1.287   .     A
C694   C697    1.430   .     S
C694   O737    1.288   .     A
C695   C697    1.397   .     A
C695   H725    1.084   .     S
C696   C698    1.414   .     A
C697   C699    1.415   .     A
C698   O742    1.382   .     S
C698   C700    1.385   .     A
C699   O732    1.382   .     S
C699   C701    1.385   .     A
C700   H726    1.084   .     S
C700   C702    1.397   .     A
C701   H727    1.084   .     S
C701   C703    1.396   .     A
C703   C516    1.437   1_565 S
C704   F711    1.358   .     S
C704   C706    1.407   .     A
C705   C707    1.407   .     A
C705   F712    1.358   .     S
C706   O733    1.373   .     S
C706   N729    1.378   .     A
C707   N730    1.378   .     A
C707   O734    1.373   .     S
C708   C710    1.410   .     A
C708   N729    1.366   .     A
C708   F713    1.354   .     S
C709   N730    1.366   .     A
C709   F714    1.354   .     S
C710   H728    1.081   .     S
H715   C565    1.087   1_655 S
H717   O742    0.989   .     S
H718   O732    0.989   .     S
H719   O733    0.985   .     S
H720   O734    0.985   .     S
N729   Zn744   2.016   .     S
N730   Zn743   2.016   .     S
O731   Zn743   1.986   .     S
O735   Zn744   1.986   .     S
O736   Zn744   1.996   .     S
O737   Zn743   1.996   .     S
O738   Zn743   1.967   .     S
O739   Zn744   1.967   .     S
O740   Zn744   1.982   .     S
O741   Zn743   1.982   .     S
