data_str_m1_o5_o17_pcu_sym.38
_audit_creation_date              2020-01-03
_audit_creation_method            'Materials Studio'
_symmetry_space_group_name_H-M    'P1'
_symmetry_Int_Tables_number       1
_symmetry_cell_setting            triclinic
loop_
_symmetry_equiv_pos_as_xyz
  x,y,z
_cell_length_a                    31.7755
_cell_length_b                    31.7676
_cell_length_c                    34.4884
_cell_angle_alpha                 90.0000
_cell_angle_beta                  89.9999
_cell_angle_gamma                 90.0329
loop_
_atom_site_label
_atom_site_type_symbol
_atom_site_fract_x
_atom_site_fract_y
_atom_site_fract_z
_atom_site_U_iso_or_equiv
_atom_site_adp_type
_atom_site_occupancy
C1     C     0.25000   0.00000   0.35580   0.00000  Uiso   1.00
C2     C     0.33003   0.41998   0.74999   0.00000  Uiso   1.00
C3     C     0.43136   0.21521   0.02035   0.00000  Uiso   1.00
C4     C     0.26568   0.07546   0.97974   0.00000  Uiso   1.00
C5     C     0.23709   0.42410   0.02026   0.00000  Uiso   1.00
C6     C     0.42985   0.21820   0.97992   0.00000  Uiso   1.00
C7     C     0.06864   0.28478   0.02035   0.00000  Uiso   1.00
C8     C     0.01612   0.34512   0.37337   0.00000  Uiso   1.00
C9     C     0.02401   0.15630   0.62639   0.00000  Uiso   1.00
C10    C     0.15492   0.01618   0.37337   0.00000  Uiso   1.00
C11    C     0.34370   0.02397   0.62639   0.00000  Uiso   1.00
C12    C     0.48390   0.15487   0.37336   0.00000  Uiso   1.00
C13    C     0.41998   0.16998   0.24999   0.00000  Uiso   1.00
C14    C     0.47599   0.34370   0.62638   0.00000  Uiso   1.00
C15    C     0.34508   0.48382   0.37337   0.00000  Uiso   1.00
C16    C     0.15630   0.47603   0.62639   0.00000  Uiso   1.00
C17    C     0.28673   0.09017   0.87414   0.00000  Uiso   1.00
C18    C     0.24869   0.40405   0.12735   0.00000  Uiso   1.00
C19    C     0.40620   0.22758   0.87359   0.00000  Uiso   1.00
C20    C     0.08139   0.30604   0.12491   0.00000  Uiso   1.00
C21    C     0.21326   0.40983   0.87415   0.00000  Uiso   1.00
C22    C     0.25131   0.09595   0.12735   0.00000  Uiso   1.00
C23    C     0.09380   0.27244   0.87358   0.00000  Uiso   1.00
C24    C     0.08003   0.33001   0.75002   0.00000  Uiso   1.00
C25    C     0.41862   0.19395   0.12491   0.00000  Uiso   1.00
C26    C     0.45567   0.12083   0.46400   0.00000  Uiso   1.00
C27    C     0.44528   0.37517   0.53593   0.00000  Uiso   1.00
C28    C     0.37908   0.45560   0.46401   0.00000  Uiso   1.00
C29    C     0.12478   0.44532   0.53594   0.00000  Uiso   1.00
C30    C     0.04433   0.37917   0.46400   0.00000  Uiso   1.00
C31    C     0.05471   0.12483   0.53593   0.00000  Uiso   1.00
C32    C     0.12092   0.04440   0.46401   0.00000  Uiso   1.00
C33    C     0.37521   0.05468   0.53594   0.00000  Uiso   1.00
C34    C     0.17951   0.38197   0.96390   0.00000  Uiso   1.00
C35    C     0.33003   0.41998   0.25001   0.00000  Uiso   1.00
C36    C     0.22486   0.13329   0.03754   0.00000  Uiso   1.00
C37    C     0.13633   0.26101   0.96423   0.00000  Uiso   1.00
C38    C     0.40806   0.15021   0.03697   0.00000  Uiso   1.00
C39    C     0.32055   0.11797   0.96388   0.00000  Uiso   1.00
C40    C     0.27520   0.36673   0.03755   0.00000  Uiso   1.00
C41    C     0.36366   0.23895   0.96426   0.00000  Uiso   1.00
C42    C     0.09200   0.34977   0.03697   0.00000  Uiso   1.00
C43    C     0.16997   0.08002   0.74999   0.00000  Uiso   1.00
C44    C     0.08002   0.33002   0.24999   0.00000  Uiso   1.00
C45    C     0.41997   0.16999   0.75002   0.00000  Uiso   1.00
C46    C     0.16999   0.41998   0.75001   0.00000  Uiso   1.00
C47    C     0.33001   0.08003   0.24999   0.00000  Uiso   1.00
C48    C     0.41999   0.33003   0.74999   0.00000  Uiso   1.00
C49    C     0.25000   0.00000   0.64420   0.00000  Uiso   1.00
C50    C     0.08001   0.16997   0.25001   0.00000  Uiso   1.00
C51    C     0.33001   0.08002   0.75001   0.00000  Uiso   1.00
C52    C     0.16999   0.41997   0.24999   0.00000  Uiso   1.00
C53    C     0.08001   0.16997   0.74999   0.00000  Uiso   1.00
C54    C     0.41999   0.33003   0.25001   0.00000  Uiso   1.00
C55    C     0.13834   0.38832   0.24998   0.00000  Uiso   1.00
C56    C     0.36165   0.11168   0.75002   0.00000  Uiso   1.00
C57    C     0.11166   0.13832   0.25002   0.00000  Uiso   1.00
C58    C     0.38835   0.36168   0.74998   0.00000  Uiso   1.00
C59    C     0.36166   0.11168   0.24998   0.00000  Uiso   1.00
C60    C     0.00000   0.25000   0.35579   0.00000  Uiso   1.00
C61    C     0.13835   0.38832   0.75002   0.00000  Uiso   1.00
C62    C     0.38834   0.36168   0.25002   0.00000  Uiso   1.00
C63    C     0.11165   0.13832   0.74998   0.00000  Uiso   1.00
C64    C     0.13832   0.11166   0.74998   0.00000  Uiso   1.00
C65    C     0.36168   0.38834   0.25002   0.00000  Uiso   1.00
C66    C     0.11168   0.36165   0.75003   0.00000  Uiso   1.00
C67    C     0.38833   0.13834   0.24998   0.00000  Uiso   1.00
C68    C     0.36168   0.38834   0.74998   0.00000  Uiso   1.00
C69    C     0.13832   0.11166   0.25002   0.00000  Uiso   1.00
C70    C     0.38832   0.13835   0.75003   0.00000  Uiso   1.00
C71    C     0.00000   0.25000   0.64421   0.00000  Uiso   1.00
C72    C     0.11167   0.36166   0.24998   0.00000  Uiso   1.00
C73    C     0.49491   0.28815   0.41784   0.00000  Uiso   1.00
C74    C     0.49818   0.21155   0.58217   0.00000  Uiso   1.00
C75    C     0.21185   0.49493   0.41784   0.00000  Uiso   1.00
C76    C     0.28844   0.49817   0.58217   0.00000  Uiso   1.00
C77    C     0.00509   0.21185   0.41784   0.00000  Uiso   1.00
C78    C     0.00182   0.28845   0.58217   0.00000  Uiso   1.00
C79    C     0.28815   0.00507   0.41784   0.00000  Uiso   1.00
C80    C     0.21156   0.00184   0.58217   0.00000  Uiso   1.00
C81    C     0.25361   0.03833   0.91779   0.00000  Uiso   1.00
C82    C     0.00000   0.25000   0.85583   0.00000  Uiso   1.00
C83    C     0.23842   0.46328   0.08205   0.00000  Uiso   1.00
C84    C     0.46705   0.23003   0.91801   0.00000  Uiso   1.00
C85    C     0.03626   0.26303   0.08215   0.00000  Uiso   1.00
C86    C     0.24640   0.46166   0.91779   0.00000  Uiso   1.00
C87    C     0.26159   0.03671   0.08205   0.00000  Uiso   1.00
C88    C     0.03295   0.26998   0.91801   0.00000  Uiso   1.00
C89    C     0.46374   0.23697   0.08215   0.00000  Uiso   1.00
C90    C     0.00000   0.25000   0.39803   0.00000  Uiso   1.00
C91    C     0.00000   0.25000   0.60198   0.00000  Uiso   1.00
C92    C     0.25000  -0.00000   0.39803   0.00000  Uiso   1.00
C93    C    -0.00000   0.25000   0.14420   0.00000  Uiso   1.00
C94    C     0.25000   0.00000   0.60198   0.00000  Uiso   1.00
C95    C     0.25000  -0.00000   0.89800   0.00000  Uiso   1.00
C96    C     0.25000  -0.00000   0.10193   0.00000  Uiso   1.00
C97    C     0.00000   0.25000   0.89813   0.00000  Uiso   1.00
C98    C    -0.00000   0.25000   0.10201   0.00000  Uiso   1.00
C99    C     0.00224   0.21123   0.45881   0.00000  Uiso   1.00
C100   C     0.49898   0.28883   0.54119   0.00000  Uiso   1.00
C101   C     0.28877   0.00222   0.45881   0.00000  Uiso   1.00
C102   C     0.21118   0.49900   0.54119   0.00000  Uiso   1.00
C103   C     0.49776   0.28878   0.45881   0.00000  Uiso   1.00
C104   C     0.25000  -0.00000   0.85579   0.00000  Uiso   1.00
C105   C     0.00102   0.21117   0.54119   0.00000  Uiso   1.00
C106   C     0.21123   0.49778   0.45881   0.00000  Uiso   1.00
C107   C     0.28882   0.00100   0.54119   0.00000  Uiso   1.00
C108   C     0.24355   0.46166   0.95877   0.00000  Uiso   1.00
C109   C     0.25837   0.03789   0.04112   0.00000  Uiso   1.00
C110   C     0.03470   0.26747   0.95894   0.00000  Uiso   1.00
C111   C     0.46472   0.23388   0.04124   0.00000  Uiso   1.00
C112   C     0.25647   0.03833   0.95877   0.00000  Uiso   1.00
C113   C     0.24165   0.46211   0.04112   0.00000  Uiso   1.00
C114   C     0.46530   0.23253   0.95894   0.00000  Uiso   1.00
C115   C     0.25000  -0.00000   0.14419   0.00000  Uiso   1.00
C116   C     0.03528   0.26612   0.04124   0.00000  Uiso   1.00
C117   C    -0.00000   0.25000   0.47940   0.00000  Uiso   1.00
C118   C    -0.00000   0.25000   0.52061   0.00000  Uiso   1.00
C119   C     0.25000   0.00000   0.47940   0.00000  Uiso   1.00
C120   C     0.25000   0.00000   0.52061   0.00000  Uiso   1.00
C121   C     0.25001  -0.00000   0.97934   0.00000  Uiso   1.00
C122   C     0.25001  -0.00000   0.02053   0.00000  Uiso   1.00
C123   C     0.00000   0.25000   0.97949   0.00000  Uiso   1.00
C124   C     0.00000   0.25000   0.02067   0.00000  Uiso   1.00
C125   C     0.00140   0.17300   0.47977   0.00000  Uiso   1.00
C126   C     0.16997   0.08002   0.25001   0.00000  Uiso   1.00
C127   C     0.49504   0.32686   0.52022   0.00000  Uiso   1.00
C128   C     0.32699   0.00136   0.47977   0.00000  Uiso   1.00
C129   C     0.17315   0.49508   0.52023   0.00000  Uiso   1.00
C130   C     0.49860   0.32700   0.47977   0.00000  Uiso   1.00
C131   C     0.00495   0.17314   0.52022   0.00000  Uiso   1.00
C132   C     0.17301   0.49864   0.47977   0.00000  Uiso   1.00
C133   C     0.32685   0.00492   0.52022   0.00000  Uiso   1.00
C134   C     0.23435   0.42452   0.97974   0.00000  Uiso   1.00
C135   C     0.26294   0.07589   0.02026   0.00000  Uiso   1.00
C136   C     0.07015   0.28179   0.97992   0.00000  Uiso   1.00
H137   H     0.45992   0.34363   0.40674   0.00000  Uiso   1.00
H138   H     0.12173   0.01986   0.38278   0.00000  Uiso   1.00
H139   H     0.38304   0.13294   0.05281   0.00000  Uiso   1.00
H140   H     0.33800   0.09033   0.95222   0.00000  Uiso   1.00
H141   H     0.33018   0.12436   0.99427   0.00000  Uiso   1.00
H142   H     0.32964   0.14575   0.94631   0.00000  Uiso   1.00
H143   H     0.29954   0.38700   0.05142   0.00000  Uiso   1.00
H144   H     0.28446   0.35910   0.00725   0.00000  Uiso   1.00
H145   H     0.27403   0.33668   0.05389   0.00000  Uiso   1.00
H146   H     0.37598   0.26860   0.95128   0.00000  Uiso   1.00
H147   H     0.35401   0.24440   0.99485   0.00000  Uiso   1.00
H148   H     0.33501   0.22991   0.94787   0.00000  Uiso   1.00
H149   H     0.15511   0.00690   0.34235   0.00000  Uiso   1.00
H150   H     0.06141   0.35747   0.05101   0.00000  Uiso   1.00
H151   H     0.09214   0.36126   0.00650   0.00000  Uiso   1.00
H152   H     0.11703   0.36701   0.05281   0.00000  Uiso   1.00
H153   H     0.17112   0.04705   0.37644   0.00000  Uiso   1.00
H154   H     0.34647   0.46766   0.59327   0.00000  Uiso   1.00
H155   H     0.37660   0.02991   0.61706   0.00000  Uiso   1.00
H156   H     0.34405   0.01503   0.65750   0.00000  Uiso   1.00
H157   H     0.32540   0.05357   0.62298   0.00000  Uiso   1.00
H158   H     0.04009   0.15637   0.40675   0.00000  Uiso   1.00
H159   H     0.48024   0.12167   0.38277   0.00000  Uiso   1.00
H160   H     0.49321   0.15507   0.34235   0.00000  Uiso   1.00
H161   H     0.01978   0.37833   0.38277   0.00000  Uiso   1.00
H162   H     0.45304   0.17102   0.37641   0.00000  Uiso   1.00
H163   H     0.03230   0.34654   0.59327   0.00000  Uiso   1.00
H164   H     0.47005   0.37659   0.61705   0.00000  Uiso   1.00
H165   H     0.48493   0.34405   0.65749   0.00000  Uiso   1.00
H166   H     0.44641   0.32535   0.62296   0.00000  Uiso   1.00
H167   H     0.34368   0.04004   0.40673   0.00000  Uiso   1.00
H168   H     0.37827   0.48014   0.38278   0.00000  Uiso   1.00
H169   H     0.34489   0.49310   0.34235   0.00000  Uiso   1.00
H170   H     0.32888   0.45295   0.37644   0.00000  Uiso   1.00
H171   H     0.15353   0.03234   0.59327   0.00000  Uiso   1.00
H172   H     0.00682   0.34492   0.34235   0.00000  Uiso   1.00
H173   H     0.12340   0.47009   0.61706   0.00000  Uiso   1.00
H174   H     0.15596   0.48497   0.65750   0.00000  Uiso   1.00
H175   H     0.17460   0.44643   0.62298   0.00000  Uiso   1.00
H176   H     0.23070   0.09969   0.90655   0.00000  Uiso   1.00
H177   H     0.29598   0.12239   0.88317   0.00000  Uiso   1.00
H178   H     0.27867   0.09100   0.84284   0.00000  Uiso   1.00
H179   H     0.31404   0.06881   0.87847   0.00000  Uiso   1.00
H180   H     0.19470   0.41410   0.09226   0.00000  Uiso   1.00
H181   H     0.24753   0.37065   0.11796   0.00000  Uiso   1.00
H182   H     0.23828   0.40575   0.15803   0.00000  Uiso   1.00
H183   H     0.04698   0.32897   0.37643   0.00000  Uiso   1.00
H184   H     0.28179   0.41523   0.12542   0.00000  Uiso   1.00
H185   H     0.42949   0.17615   0.90672   0.00000  Uiso   1.00
H186   H     0.37417   0.21875   0.88350   0.00000  Uiso   1.00
H187   H     0.40939   0.21836   0.84269   0.00000  Uiso   1.00
H188   H     0.40977   0.26231   0.87596   0.00000  Uiso   1.00
H189   H     0.10120   0.25400   0.09139   0.00000  Uiso   1.00
H190   H     0.11084   0.32155   0.11512   0.00000  Uiso   1.00
H191   H     0.08487   0.29847   0.15615   0.00000  Uiso   1.00
H192   H     0.05488   0.32849   0.12113   0.00000  Uiso   1.00
H193   H     0.26930   0.40031   0.90653   0.00000  Uiso   1.00
H194   H     0.46770   0.15346   0.59327   0.00000  Uiso   1.00
H195   H     0.20401   0.37761   0.88318   0.00000  Uiso   1.00
H196   H     0.22131   0.40900   0.84284   0.00000  Uiso   1.00
H197   H     0.18595   0.43119   0.87849   0.00000  Uiso   1.00
H198   H     0.30531   0.08589   0.09227   0.00000  Uiso   1.00
H199   H     0.25248   0.12935   0.11796   0.00000  Uiso   1.00
H200   H     0.26172   0.09425   0.15803   0.00000  Uiso   1.00
H201   H     0.21821   0.08477   0.12541   0.00000  Uiso   1.00
H202   H     0.07051   0.32386   0.90673   0.00000  Uiso   1.00
H203   H     0.12583   0.28126   0.88348   0.00000  Uiso   1.00
H204   H     0.09060   0.28167   0.84268   0.00000  Uiso   1.00
H205   H     0.02995   0.12341   0.61705   0.00000  Uiso   1.00
H206   H     0.09022   0.23770   0.87594   0.00000  Uiso   1.00
H207   H     0.39880   0.24598   0.09138   0.00000  Uiso   1.00
H208   H     0.38918   0.17842   0.11512   0.00000  Uiso   1.00
H209   H     0.41513   0.20152   0.15615   0.00000  Uiso   1.00
H210   H     0.44514   0.17150   0.12113   0.00000  Uiso   1.00
H211   H     0.43359   0.14396   0.45079   0.00000  Uiso   1.00
H212   H     0.44665   0.11450   0.49461   0.00000  Uiso   1.00
H213   H     0.45240   0.09082   0.44783   0.00000  Uiso   1.00
H214   H     0.42512   0.35038   0.54921   0.00000  Uiso   1.00
H215   H     0.43578   0.38065   0.50531   0.00000  Uiso   1.00
H216   H     0.01507   0.15595   0.65749   0.00000  Uiso   1.00
H217   H     0.43964   0.40487   0.55202   0.00000  Uiso   1.00
H218   H     0.35593   0.43352   0.45079   0.00000  Uiso   1.00
H219   H     0.38538   0.44658   0.49462   0.00000  Uiso   1.00
H220   H     0.40908   0.45232   0.44785   0.00000  Uiso   1.00
H221   H     0.14954   0.42515   0.54923   0.00000  Uiso   1.00
H222   H     0.11930   0.43582   0.50531   0.00000  Uiso   1.00
H223   H     0.09508   0.43969   0.55202   0.00000  Uiso   1.00
H224   H     0.06640   0.35605   0.45078   0.00000  Uiso   1.00
H225   H     0.05335   0.38549   0.49461   0.00000  Uiso   1.00
H226   H     0.04760   0.40919   0.44784   0.00000  Uiso   1.00
H227   H     0.05359   0.17465   0.62297   0.00000  Uiso   1.00
H228   H     0.07488   0.14962   0.54921   0.00000  Uiso   1.00
H229   H     0.06421   0.11935   0.50531   0.00000  Uiso   1.00
H230   H     0.06035   0.09513   0.55202   0.00000  Uiso   1.00
H231   H     0.14407   0.06648   0.45079   0.00000  Uiso   1.00
H232   H     0.11462   0.05343   0.49462   0.00000  Uiso   1.00
H233   H     0.09092   0.04768   0.44785   0.00000  Uiso   1.00
H234   H     0.35046   0.07485   0.54923   0.00000  Uiso   1.00
H235   H     0.38069   0.06419   0.50531   0.00000  Uiso   1.00
H236   H     0.40492   0.06032   0.55201   0.00000  Uiso   1.00
H237   H     0.16203   0.40959   0.95225   0.00000  Uiso   1.00
H238   H     0.15632   0.45996   0.40674   0.00000  Uiso   1.00
H239   H     0.16989   0.37557   0.99429   0.00000  Uiso   1.00
H240   H     0.17044   0.35418   0.94634   0.00000  Uiso   1.00
H241   H     0.20051   0.11304   0.05140   0.00000  Uiso   1.00
H242   H     0.21562   0.14093   0.00723   0.00000  Uiso   1.00
H243   H     0.22605   0.16334   0.05388   0.00000  Uiso   1.00
H244   H     0.12398   0.23138   0.95123   0.00000  Uiso   1.00
H245   H     0.14596   0.25551   0.99482   0.00000  Uiso   1.00
H246   H     0.16499   0.27003   0.94786   0.00000  Uiso   1.00
H247   H     0.43866   0.14252   0.05101   0.00000  Uiso   1.00
H248   H     0.40792   0.13872   0.00650   0.00000  Uiso   1.00
N249   N     0.48360   0.32472   0.39609   0.00000  Uiso   1.00
N250   N     0.22068   0.42918   0.10360   0.00000  Uiso   1.00
N251   N     0.43756   0.20550   0.89634   0.00000  Uiso   1.00
N252   N     0.07467   0.26741   0.10338   0.00000  Uiso   1.00
N253   N     0.24974   0.42354   0.89602   0.00000  Uiso   1.00
N254   N     0.27933   0.07082   0.10360   0.00000  Uiso   1.00
N255   N     0.06244   0.29451   0.89634   0.00000  Uiso   1.00
N256   N     0.42533   0.23257   0.10338   0.00000  Uiso   1.00
N257   N     0.48985   0.17418   0.60392   0.00000  Uiso   1.00
N258   N     0.17527   0.48364   0.39609   0.00000  Uiso   1.00
N259   N     0.32579   0.48982   0.60392   0.00000  Uiso   1.00
N260   N     0.01641   0.17529   0.39609   0.00000  Uiso   1.00
N261   N     0.01015   0.32582   0.60392   0.00000  Uiso   1.00
N262   N     0.32473   0.01636   0.39609   0.00000  Uiso   1.00
N263   N     0.17421   0.01019   0.60392   0.00000  Uiso   1.00
N264   N     0.25026   0.07646   0.89602   0.00000  Uiso   1.00
O265   O     0.25000   0.00000   0.25000   0.00000  Uiso   1.00
O266   O     0.25000   0.46539   0.66251   0.00000  Uiso   1.00
O267   O     0.46539   0.25000   0.33749   0.00000  Uiso   1.00
O268   O     0.03462   0.25000   0.66251   0.00000  Uiso   1.00
O269   O     0.00000   0.21539   0.83749   0.00000  Uiso   1.00
O270   O     0.00000   0.28462   0.16251   0.00000  Uiso   1.00
O271   O     0.28462   0.00000   0.83749   0.00000  Uiso   1.00
O272   O     0.21539   0.00000   0.16251   0.00000  Uiso   1.00
O273   O     0.00000   0.28462   0.83749   0.00000  Uiso   1.00
O274   O     0.00000   0.21539   0.16251   0.00000  Uiso   1.00
O275   O     0.21539   0.00000   0.83749   0.00000  Uiso   1.00
O276   O     0.25000   0.00000   0.75000   0.00000  Uiso   1.00
O277   O     0.28462   0.00000   0.16251   0.00000  Uiso   1.00
O278   O     0.20127   0.08332   0.27298   0.00000  Uiso   1.00
O279   O     0.29874   0.41668   0.72702   0.00000  Uiso   1.00
O280   O     0.41668   0.20127   0.27298   0.00000  Uiso   1.00
O281   O     0.08332   0.29874   0.72702   0.00000  Uiso   1.00
O282   O     0.29874   0.41668   0.27298   0.00000  Uiso   1.00
O283   O     0.20127   0.08332   0.72702   0.00000  Uiso   1.00
O284   O     0.08332   0.29874   0.27298   0.00000  Uiso   1.00
O285   O     0.41668   0.20127   0.72702   0.00000  Uiso   1.00
O286   O     0.20127   0.41668   0.72702   0.00000  Uiso   1.00
O287   O     0.00000   0.25000   0.25000   0.00000  Uiso   1.00
O288   O     0.29874   0.08332   0.27298   0.00000  Uiso   1.00
O289   O     0.41668   0.29874   0.72702   0.00000  Uiso   1.00
O290   O     0.08332   0.20127   0.27298   0.00000  Uiso   1.00
O291   O     0.29874   0.08332   0.72702   0.00000  Uiso   1.00
O292   O     0.20127   0.41668   0.27298   0.00000  Uiso   1.00
O293   O     0.08332   0.20127   0.72702   0.00000  Uiso   1.00
O294   O     0.41668   0.29874   0.27298   0.00000  Uiso   1.00
O295   O     0.45127   0.33332   0.77298   0.00000  Uiso   1.00
O296   O     0.04874   0.16668   0.22702   0.00000  Uiso   1.00
O297   O     0.16668   0.45127   0.77298   0.00000  Uiso   1.00
O298   O     0.00000   0.25000   0.75000   0.00000  Uiso   1.00
O299   O     0.33332   0.04874   0.22702   0.00000  Uiso   1.00
O300   O     0.04874   0.16668   0.77298   0.00000  Uiso   1.00
O301   O     0.45127   0.33332   0.22702   0.00000  Uiso   1.00
O302   O     0.33332   0.04874   0.77298   0.00000  Uiso   1.00
O303   O     0.16668   0.45127   0.22702   0.00000  Uiso   1.00
O304   O     0.45127   0.16668   0.22702   0.00000  Uiso   1.00
O305   O     0.04874   0.33332   0.77298   0.00000  Uiso   1.00
O306   O     0.16668   0.04874   0.22702   0.00000  Uiso   1.00
O307   O     0.33332   0.45127   0.77298   0.00000  Uiso   1.00
O308   O     0.04874   0.33332   0.22702   0.00000  Uiso   1.00
O309   O     0.25000   0.46539   0.33749   0.00000  Uiso   1.00
O310   O     0.45127   0.16668   0.77298   0.00000  Uiso   1.00
O311   O     0.33332   0.45127   0.22702   0.00000  Uiso   1.00
O312   O     0.16668   0.04874   0.77298   0.00000  Uiso   1.00
O313   O     0.49779   0.13462   0.46108   0.00000  Uiso   1.00
O314   O     0.48837   0.36483   0.53890   0.00000  Uiso   1.00
O315   O     0.36535   0.49774   0.46108   0.00000  Uiso   1.00
O316   O     0.13519   0.48842   0.53890   0.00000  Uiso   1.00
O317   O     0.00221   0.36538   0.46108   0.00000  Uiso   1.00
O318   O     0.01163   0.13518   0.53890   0.00000  Uiso   1.00
O319   O     0.13465   0.00227   0.46108   0.00000  Uiso   1.00
O320   O     0.25000   0.03462   0.66251   0.00000  Uiso   1.00
O321   O     0.36481   0.01159   0.53890   0.00000  Uiso   1.00
O322   O     0.22346   0.38761   0.96094   0.00000  Uiso   1.00
O323   O     0.26497   0.11429   0.03910   0.00000  Uiso   1.00
O324   O     0.10674   0.29399   0.96129   0.00000  Uiso   1.00
O325   O     0.39939   0.19374   0.03905   0.00000  Uiso   1.00
O326   O     0.27660   0.11237   0.96094   0.00000  Uiso   1.00
O327   O     0.23508   0.38570   0.03910   0.00000  Uiso   1.00
O328   O     0.39327   0.20599   0.96129   0.00000  Uiso   1.00
O329   O     0.10063   0.30623   0.03905   0.00000  Uiso   1.00
O330   O     0.03462   0.25000   0.33749   0.00000  Uiso   1.00
O331   O     0.46539   0.25000   0.66251   0.00000  Uiso   1.00
O332   O     0.25000   0.03462   0.33749   0.00000  Uiso   1.00
Zn333  Zn    0.20053   0.00000   0.21730   0.00000  Uiso   1.00
Zn334  Zn    0.04948   0.25000   0.28270   0.00000  Uiso   1.00
Zn335  Zn    0.25000   0.45053   0.71730   0.00000  Uiso   1.00
Zn336  Zn    0.25000   0.04948   0.28270   0.00000  Uiso   1.00
Zn337  Zn    0.04948   0.25000   0.71730   0.00000  Uiso   1.00
Zn338  Zn    0.45053   0.25000   0.28270   0.00000  Uiso   1.00
Zn339  Zn    0.25000   0.04948   0.71730   0.00000  Uiso   1.00
Zn340  Zn    0.25000   0.45053   0.28270   0.00000  Uiso   1.00
Zn341  Zn    0.29948   0.00000   0.78270   0.00000  Uiso   1.00
Zn342  Zn    0.00000   0.20053   0.21730   0.00000  Uiso   1.00
Zn343  Zn    0.00000   0.29948   0.78270   0.00000  Uiso   1.00
Zn344  Zn    0.29948   0.00000   0.21730   0.00000  Uiso   1.00
Zn345  Zn    0.20053   0.00000   0.78270   0.00000  Uiso   1.00
Zn346  Zn    0.00000   0.29948   0.21730   0.00000  Uiso   1.00
Zn347  Zn    0.00000   0.20053   0.78270   0.00000  Uiso   1.00
Zn348  Zn    0.45053   0.25000   0.71730   0.00000  Uiso   1.00
C349   C     0.75000   0.00000   0.35580   0.00000  Uiso   1.00
C350   C     0.83003   0.41998   0.74999   0.00000  Uiso   1.00
C351   C     0.93136   0.21521   0.02035   0.00000  Uiso   1.00
C352   C     0.76568   0.07546   0.97974   0.00000  Uiso   1.00
C353   C     0.73709   0.42410   0.02026   0.00000  Uiso   1.00
C354   C     0.92985   0.21820   0.97992   0.00000  Uiso   1.00
C355   C     0.56864   0.28478   0.02035   0.00000  Uiso   1.00
C356   C     0.51612   0.34512   0.37337   0.00000  Uiso   1.00
C357   C     0.52401   0.15630   0.62639   0.00000  Uiso   1.00
C358   C     0.65492   0.01618   0.37337   0.00000  Uiso   1.00
C359   C     0.84370   0.02397   0.62639   0.00000  Uiso   1.00
C360   C     0.98390   0.15487   0.37336   0.00000  Uiso   1.00
C361   C     0.91998   0.16998   0.24999   0.00000  Uiso   1.00
C362   C     0.97599   0.34370   0.62638   0.00000  Uiso   1.00
C363   C     0.84508   0.48382   0.37337   0.00000  Uiso   1.00
C364   C     0.65630   0.47603   0.62639   0.00000  Uiso   1.00
C365   C     0.78673   0.09017   0.87414   0.00000  Uiso   1.00
C366   C     0.74869   0.40405   0.12735   0.00000  Uiso   1.00
C367   C     0.90620   0.22758   0.87359   0.00000  Uiso   1.00
C368   C     0.58139   0.30604   0.12491   0.00000  Uiso   1.00
C369   C     0.71326   0.40983   0.87415   0.00000  Uiso   1.00
C370   C     0.75131   0.09595   0.12735   0.00000  Uiso   1.00
C371   C     0.59380   0.27244   0.87358   0.00000  Uiso   1.00
C372   C     0.58003   0.33001   0.75002   0.00000  Uiso   1.00
C373   C     0.91862   0.19395   0.12491   0.00000  Uiso   1.00
C374   C     0.95567   0.12083   0.46400   0.00000  Uiso   1.00
C375   C     0.94528   0.37517   0.53593   0.00000  Uiso   1.00
C376   C     0.87908   0.45560   0.46401   0.00000  Uiso   1.00
C377   C     0.62478   0.44532   0.53594   0.00000  Uiso   1.00
C378   C     0.54433   0.37917   0.46400   0.00000  Uiso   1.00
C379   C     0.55471   0.12483   0.53593   0.00000  Uiso   1.00
C380   C     0.62092   0.04440   0.46401   0.00000  Uiso   1.00
C381   C     0.87521   0.05468   0.53594   0.00000  Uiso   1.00
C382   C     0.67951   0.38197   0.96390   0.00000  Uiso   1.00
C383   C     0.83003   0.41998   0.25001   0.00000  Uiso   1.00
C384   C     0.72486   0.13329   0.03754   0.00000  Uiso   1.00
C385   C     0.63633   0.26101   0.96423   0.00000  Uiso   1.00
C386   C     0.90806   0.15021   0.03697   0.00000  Uiso   1.00
C387   C     0.82055   0.11797   0.96388   0.00000  Uiso   1.00
C388   C     0.77520   0.36673   0.03755   0.00000  Uiso   1.00
C389   C     0.86366   0.23895   0.96426   0.00000  Uiso   1.00
C390   C     0.59200   0.34977   0.03697   0.00000  Uiso   1.00
C391   C     0.66997   0.08002   0.74999   0.00000  Uiso   1.00
C392   C     0.58002   0.33002   0.24999   0.00000  Uiso   1.00
C393   C     0.91997   0.16999   0.75002   0.00000  Uiso   1.00
C394   C     0.66999   0.41998   0.75001   0.00000  Uiso   1.00
C395   C     0.83001   0.08003   0.24999   0.00000  Uiso   1.00
C396   C     0.91999   0.33003   0.74999   0.00000  Uiso   1.00
C397   C     0.75000   0.00000   0.64420   0.00000  Uiso   1.00
C398   C     0.58001   0.16997   0.25001   0.00000  Uiso   1.00
C399   C     0.83001   0.08002   0.75001   0.00000  Uiso   1.00
C400   C     0.66999   0.41997   0.24999   0.00000  Uiso   1.00
C401   C     0.58001   0.16997   0.74999   0.00000  Uiso   1.00
C402   C     0.91999   0.33003   0.25001   0.00000  Uiso   1.00
C403   C     0.63834   0.38832   0.24998   0.00000  Uiso   1.00
C404   C     0.86165   0.11168   0.75002   0.00000  Uiso   1.00
C405   C     0.61166   0.13832   0.25002   0.00000  Uiso   1.00
C406   C     0.88835   0.36168   0.74998   0.00000  Uiso   1.00
C407   C     0.86166   0.11168   0.24998   0.00000  Uiso   1.00
C408   C     0.50000   0.25000   0.35579   0.00000  Uiso   1.00
C409   C     0.63835   0.38832   0.75002   0.00000  Uiso   1.00
C410   C     0.88834   0.36168   0.25002   0.00000  Uiso   1.00
C411   C     0.61165   0.13832   0.74998   0.00000  Uiso   1.00
C412   C     0.63832   0.11166   0.74998   0.00000  Uiso   1.00
C413   C     0.86168   0.38834   0.25002   0.00000  Uiso   1.00
C414   C     0.61168   0.36165   0.75003   0.00000  Uiso   1.00
C415   C     0.88833   0.13834   0.24998   0.00000  Uiso   1.00
C416   C     0.86168   0.38834   0.74998   0.00000  Uiso   1.00
C417   C     0.63832   0.11166   0.25002   0.00000  Uiso   1.00
C418   C     0.88832   0.13835   0.75003   0.00000  Uiso   1.00
C419   C     0.50000   0.25000   0.64421   0.00000  Uiso   1.00
C420   C     0.61167   0.36166   0.24998   0.00000  Uiso   1.00
C421   C     0.99491   0.28815   0.41784   0.00000  Uiso   1.00
C422   C     0.99818   0.21155   0.58217   0.00000  Uiso   1.00
C423   C     0.71185   0.49493   0.41784   0.00000  Uiso   1.00
C424   C     0.78844   0.49817   0.58217   0.00000  Uiso   1.00
C425   C     0.50509   0.21185   0.41784   0.00000  Uiso   1.00
C426   C     0.50182   0.28845   0.58217   0.00000  Uiso   1.00
C427   C     0.78815   0.00507   0.41784   0.00000  Uiso   1.00
C428   C     0.71156   0.00184   0.58217   0.00000  Uiso   1.00
C429   C     0.75361   0.03833   0.91779   0.00000  Uiso   1.00
C430   C     0.50000   0.25000   0.85583   0.00000  Uiso   1.00
C431   C     0.73842   0.46328   0.08205   0.00000  Uiso   1.00
C432   C     0.96705   0.23003   0.91801   0.00000  Uiso   1.00
C433   C     0.53626   0.26303   0.08215   0.00000  Uiso   1.00
C434   C     0.74640   0.46166   0.91779   0.00000  Uiso   1.00
C435   C     0.76159   0.03671   0.08205   0.00000  Uiso   1.00
C436   C     0.53295   0.26998   0.91801   0.00000  Uiso   1.00
C437   C     0.96374   0.23697   0.08215   0.00000  Uiso   1.00
C438   C     0.50000   0.25000   0.39803   0.00000  Uiso   1.00
C439   C     0.50000   0.25000   0.60198   0.00000  Uiso   1.00
C440   C     0.75000  -0.00000   0.39803   0.00000  Uiso   1.00
C441   C     0.50000   0.25000   0.14420   0.00000  Uiso   1.00
C442   C     0.75000   0.00000   0.60198   0.00000  Uiso   1.00
C443   C     0.75000  -0.00000   0.89800   0.00000  Uiso   1.00
C444   C     0.75000  -0.00000   0.10193   0.00000  Uiso   1.00
C445   C     0.50000   0.25000   0.89813   0.00000  Uiso   1.00
C446   C     0.50000   0.25000   0.10201   0.00000  Uiso   1.00
C447   C     0.50224   0.21123   0.45881   0.00000  Uiso   1.00
C448   C     0.99898   0.28883   0.54119   0.00000  Uiso   1.00
C449   C     0.78877   0.00222   0.45881   0.00000  Uiso   1.00
C450   C     0.71118   0.49900   0.54119   0.00000  Uiso   1.00
C451   C     0.99776   0.28878   0.45881   0.00000  Uiso   1.00
C452   C     0.75000  -0.00000   0.85579   0.00000  Uiso   1.00
C453   C     0.50102   0.21117   0.54119   0.00000  Uiso   1.00
C454   C     0.71123   0.49778   0.45881   0.00000  Uiso   1.00
C455   C     0.78882   0.00100   0.54119   0.00000  Uiso   1.00
C456   C     0.74355   0.46166   0.95877   0.00000  Uiso   1.00
C457   C     0.75837   0.03789   0.04112   0.00000  Uiso   1.00
C458   C     0.53470   0.26747   0.95894   0.00000  Uiso   1.00
C459   C     0.96472   0.23388   0.04124   0.00000  Uiso   1.00
C460   C     0.75647   0.03833   0.95877   0.00000  Uiso   1.00
C461   C     0.74165   0.46211   0.04112   0.00000  Uiso   1.00
C462   C     0.96530   0.23253   0.95894   0.00000  Uiso   1.00
C463   C     0.75000  -0.00000   0.14419   0.00000  Uiso   1.00
C464   C     0.53528   0.26612   0.04124   0.00000  Uiso   1.00
C465   C     0.50000   0.25000   0.47940   0.00000  Uiso   1.00
C466   C     0.50000   0.25000   0.52061   0.00000  Uiso   1.00
C467   C     0.75000   0.00000   0.47940   0.00000  Uiso   1.00
C468   C     0.75000   0.00000   0.52061   0.00000  Uiso   1.00
C469   C     0.75001  -0.00000   0.97934   0.00000  Uiso   1.00
C470   C     0.75001  -0.00000   0.02053   0.00000  Uiso   1.00
C471   C     0.50000   0.25000   0.97949   0.00000  Uiso   1.00
C472   C     0.50000   0.25000   0.02067   0.00000  Uiso   1.00
C473   C     0.50140   0.17300   0.47977   0.00000  Uiso   1.00
C474   C     0.66997   0.08002   0.25001   0.00000  Uiso   1.00
C475   C     0.99504   0.32686   0.52022   0.00000  Uiso   1.00
C476   C     0.82699   0.00136   0.47977   0.00000  Uiso   1.00
C477   C     0.67315   0.49508   0.52023   0.00000  Uiso   1.00
C478   C     0.99860   0.32700   0.47977   0.00000  Uiso   1.00
C479   C     0.50495   0.17314   0.52022   0.00000  Uiso   1.00
C480   C     0.67301   0.49864   0.47977   0.00000  Uiso   1.00
C481   C     0.82685   0.00492   0.52022   0.00000  Uiso   1.00
C482   C     0.73435   0.42452   0.97974   0.00000  Uiso   1.00
C483   C     0.76294   0.07589   0.02026   0.00000  Uiso   1.00
C484   C     0.57015   0.28179   0.97992   0.00000  Uiso   1.00
H485   H     0.95992   0.34363   0.40674   0.00000  Uiso   1.00
H486   H     0.62173   0.01986   0.38278   0.00000  Uiso   1.00
H487   H     0.88304   0.13294   0.05281   0.00000  Uiso   1.00
H488   H     0.83800   0.09033   0.95222   0.00000  Uiso   1.00
H489   H     0.83018   0.12436   0.99427   0.00000  Uiso   1.00
H490   H     0.82964   0.14575   0.94631   0.00000  Uiso   1.00
H491   H     0.79954   0.38700   0.05142   0.00000  Uiso   1.00
H492   H     0.78446   0.35910   0.00725   0.00000  Uiso   1.00
H493   H     0.77403   0.33668   0.05389   0.00000  Uiso   1.00
H494   H     0.87598   0.26860   0.95128   0.00000  Uiso   1.00
H495   H     0.85401   0.24440   0.99485   0.00000  Uiso   1.00
H496   H     0.83501   0.22991   0.94787   0.00000  Uiso   1.00
H497   H     0.65511   0.00690   0.34235   0.00000  Uiso   1.00
H498   H     0.56141   0.35747   0.05101   0.00000  Uiso   1.00
H499   H     0.59214   0.36126   0.00650   0.00000  Uiso   1.00
H500   H     0.61703   0.36701   0.05281   0.00000  Uiso   1.00
H501   H     0.67112   0.04705   0.37644   0.00000  Uiso   1.00
H502   H     0.84647   0.46766   0.59327   0.00000  Uiso   1.00
H503   H     0.87660   0.02991   0.61706   0.00000  Uiso   1.00
H504   H     0.84405   0.01503   0.65750   0.00000  Uiso   1.00
H505   H     0.82540   0.05357   0.62298   0.00000  Uiso   1.00
H506   H     0.54009   0.15637   0.40675   0.00000  Uiso   1.00
H507   H     0.98024   0.12167   0.38277   0.00000  Uiso   1.00
H508   H     0.99321   0.15507   0.34235   0.00000  Uiso   1.00
H509   H     0.51978   0.37833   0.38277   0.00000  Uiso   1.00
H510   H     0.95304   0.17102   0.37641   0.00000  Uiso   1.00
H511   H     0.53230   0.34654   0.59327   0.00000  Uiso   1.00
H512   H     0.97005   0.37659   0.61705   0.00000  Uiso   1.00
H513   H     0.98493   0.34405   0.65749   0.00000  Uiso   1.00
H514   H     0.94641   0.32535   0.62296   0.00000  Uiso   1.00
H515   H     0.84368   0.04004   0.40673   0.00000  Uiso   1.00
H516   H     0.87827   0.48014   0.38278   0.00000  Uiso   1.00
H517   H     0.84489   0.49310   0.34235   0.00000  Uiso   1.00
H518   H     0.82888   0.45295   0.37644   0.00000  Uiso   1.00
H519   H     0.65353   0.03234   0.59327   0.00000  Uiso   1.00
H520   H     0.50682   0.34492   0.34235   0.00000  Uiso   1.00
H521   H     0.62340   0.47009   0.61706   0.00000  Uiso   1.00
H522   H     0.65596   0.48497   0.65750   0.00000  Uiso   1.00
H523   H     0.67460   0.44643   0.62298   0.00000  Uiso   1.00
H524   H     0.73070   0.09969   0.90655   0.00000  Uiso   1.00
H525   H     0.79598   0.12239   0.88317   0.00000  Uiso   1.00
H526   H     0.77867   0.09100   0.84284   0.00000  Uiso   1.00
H527   H     0.81404   0.06881   0.87847   0.00000  Uiso   1.00
H528   H     0.69470   0.41410   0.09226   0.00000  Uiso   1.00
H529   H     0.74753   0.37065   0.11796   0.00000  Uiso   1.00
H530   H     0.73828   0.40575   0.15803   0.00000  Uiso   1.00
H531   H     0.54698   0.32897   0.37643   0.00000  Uiso   1.00
H532   H     0.78179   0.41523   0.12542   0.00000  Uiso   1.00
H533   H     0.92949   0.17615   0.90672   0.00000  Uiso   1.00
H534   H     0.87417   0.21875   0.88350   0.00000  Uiso   1.00
H535   H     0.90939   0.21836   0.84269   0.00000  Uiso   1.00
H536   H     0.90977   0.26231   0.87596   0.00000  Uiso   1.00
H537   H     0.60120   0.25400   0.09139   0.00000  Uiso   1.00
H538   H     0.61084   0.32155   0.11512   0.00000  Uiso   1.00
H539   H     0.58487   0.29847   0.15615   0.00000  Uiso   1.00
H540   H     0.55488   0.32849   0.12113   0.00000  Uiso   1.00
H541   H     0.76930   0.40031   0.90653   0.00000  Uiso   1.00
H542   H     0.96770   0.15346   0.59327   0.00000  Uiso   1.00
H543   H     0.70401   0.37761   0.88318   0.00000  Uiso   1.00
H544   H     0.72131   0.40900   0.84284   0.00000  Uiso   1.00
H545   H     0.68595   0.43119   0.87849   0.00000  Uiso   1.00
H546   H     0.80531   0.08589   0.09227   0.00000  Uiso   1.00
H547   H     0.75248   0.12935   0.11796   0.00000  Uiso   1.00
H548   H     0.76172   0.09425   0.15803   0.00000  Uiso   1.00
H549   H     0.71821   0.08477   0.12541   0.00000  Uiso   1.00
H550   H     0.57051   0.32386   0.90673   0.00000  Uiso   1.00
H551   H     0.62583   0.28126   0.88348   0.00000  Uiso   1.00
H552   H     0.59060   0.28167   0.84268   0.00000  Uiso   1.00
H553   H     0.52995   0.12341   0.61705   0.00000  Uiso   1.00
H554   H     0.59022   0.23770   0.87594   0.00000  Uiso   1.00
H555   H     0.89880   0.24598   0.09138   0.00000  Uiso   1.00
H556   H     0.88918   0.17842   0.11512   0.00000  Uiso   1.00
H557   H     0.91513   0.20152   0.15615   0.00000  Uiso   1.00
H558   H     0.94514   0.17150   0.12113   0.00000  Uiso   1.00
H559   H     0.93359   0.14396   0.45079   0.00000  Uiso   1.00
H560   H     0.94665   0.11450   0.49461   0.00000  Uiso   1.00
H561   H     0.95240   0.09082   0.44783   0.00000  Uiso   1.00
H562   H     0.92512   0.35038   0.54921   0.00000  Uiso   1.00
H563   H     0.93578   0.38065   0.50531   0.00000  Uiso   1.00
H564   H     0.51507   0.15595   0.65749   0.00000  Uiso   1.00
H565   H     0.93964   0.40487   0.55202   0.00000  Uiso   1.00
H566   H     0.85593   0.43352   0.45079   0.00000  Uiso   1.00
H567   H     0.88538   0.44658   0.49462   0.00000  Uiso   1.00
H568   H     0.90908   0.45232   0.44785   0.00000  Uiso   1.00
H569   H     0.64954   0.42515   0.54923   0.00000  Uiso   1.00
H570   H     0.61930   0.43582   0.50531   0.00000  Uiso   1.00
H571   H     0.59508   0.43969   0.55202   0.00000  Uiso   1.00
H572   H     0.56640   0.35605   0.45078   0.00000  Uiso   1.00
H573   H     0.55335   0.38549   0.49461   0.00000  Uiso   1.00
H574   H     0.54760   0.40919   0.44784   0.00000  Uiso   1.00
H575   H     0.55359   0.17465   0.62297   0.00000  Uiso   1.00
H576   H     0.57488   0.14962   0.54921   0.00000  Uiso   1.00
H577   H     0.56421   0.11935   0.50531   0.00000  Uiso   1.00
H578   H     0.56035   0.09513   0.55202   0.00000  Uiso   1.00
H579   H     0.64407   0.06648   0.45079   0.00000  Uiso   1.00
H580   H     0.61462   0.05343   0.49462   0.00000  Uiso   1.00
H581   H     0.59092   0.04768   0.44785   0.00000  Uiso   1.00
H582   H     0.85046   0.07485   0.54923   0.00000  Uiso   1.00
H583   H     0.88069   0.06419   0.50531   0.00000  Uiso   1.00
H584   H     0.90492   0.06032   0.55201   0.00000  Uiso   1.00
H585   H     0.66203   0.40959   0.95225   0.00000  Uiso   1.00
H586   H     0.65632   0.45996   0.40674   0.00000  Uiso   1.00
H587   H     0.66989   0.37557   0.99429   0.00000  Uiso   1.00
H588   H     0.67044   0.35418   0.94634   0.00000  Uiso   1.00
H589   H     0.70051   0.11304   0.05140   0.00000  Uiso   1.00
H590   H     0.71562   0.14093   0.00723   0.00000  Uiso   1.00
H591   H     0.72605   0.16334   0.05388   0.00000  Uiso   1.00
H592   H     0.62398   0.23138   0.95123   0.00000  Uiso   1.00
H593   H     0.64596   0.25551   0.99482   0.00000  Uiso   1.00
H594   H     0.66499   0.27003   0.94786   0.00000  Uiso   1.00
H595   H     0.93866   0.14252   0.05101   0.00000  Uiso   1.00
H596   H     0.90792   0.13872   0.00650   0.00000  Uiso   1.00
N597   N     0.98360   0.32472   0.39609   0.00000  Uiso   1.00
N598   N     0.72068   0.42918   0.10360   0.00000  Uiso   1.00
N599   N     0.93756   0.20550   0.89634   0.00000  Uiso   1.00
N600   N     0.57467   0.26741   0.10338   0.00000  Uiso   1.00
N601   N     0.74974   0.42354   0.89602   0.00000  Uiso   1.00
N602   N     0.77933   0.07082   0.10360   0.00000  Uiso   1.00
N603   N     0.56244   0.29451   0.89634   0.00000  Uiso   1.00
N604   N     0.92533   0.23257   0.10338   0.00000  Uiso   1.00
N605   N     0.98985   0.17418   0.60392   0.00000  Uiso   1.00
N606   N     0.67527   0.48364   0.39609   0.00000  Uiso   1.00
N607   N     0.82579   0.48982   0.60392   0.00000  Uiso   1.00
N608   N     0.51641   0.17529   0.39609   0.00000  Uiso   1.00
N609   N     0.51015   0.32582   0.60392   0.00000  Uiso   1.00
N610   N     0.82473   0.01636   0.39609   0.00000  Uiso   1.00
N611   N     0.67421   0.01019   0.60392   0.00000  Uiso   1.00
N612   N     0.75026   0.07646   0.89602   0.00000  Uiso   1.00
O613   O     0.75000   0.00000   0.25000   0.00000  Uiso   1.00
O614   O     0.75000   0.46539   0.66251   0.00000  Uiso   1.00
O615   O     0.96539   0.25000   0.33749   0.00000  Uiso   1.00
O616   O     0.53462   0.25000   0.66251   0.00000  Uiso   1.00
O617   O     0.50000   0.21539   0.83749   0.00000  Uiso   1.00
O618   O     0.50000   0.28462   0.16251   0.00000  Uiso   1.00
O619   O     0.78462   0.00000   0.83749   0.00000  Uiso   1.00
O620   O     0.71539   0.00000   0.16251   0.00000  Uiso   1.00
O621   O     0.50000   0.28462   0.83749   0.00000  Uiso   1.00
O622   O     0.50000   0.21539   0.16251   0.00000  Uiso   1.00
O623   O     0.71539   0.00000   0.83749   0.00000  Uiso   1.00
O624   O     0.75000   0.00000   0.75000   0.00000  Uiso   1.00
O625   O     0.78462   0.00000   0.16251   0.00000  Uiso   1.00
O626   O     0.70127   0.08332   0.27298   0.00000  Uiso   1.00
O627   O     0.79874   0.41668   0.72702   0.00000  Uiso   1.00
O628   O     0.91668   0.20127   0.27298   0.00000  Uiso   1.00
O629   O     0.58332   0.29874   0.72702   0.00000  Uiso   1.00
O630   O     0.79874   0.41668   0.27298   0.00000  Uiso   1.00
O631   O     0.70127   0.08332   0.72702   0.00000  Uiso   1.00
O632   O     0.58332   0.29874   0.27298   0.00000  Uiso   1.00
O633   O     0.91668   0.20127   0.72702   0.00000  Uiso   1.00
O634   O     0.70127   0.41668   0.72702   0.00000  Uiso   1.00
O635   O     0.50000   0.25000   0.25000   0.00000  Uiso   1.00
O636   O     0.79874   0.08332   0.27298   0.00000  Uiso   1.00
O637   O     0.91668   0.29874   0.72702   0.00000  Uiso   1.00
O638   O     0.58332   0.20127   0.27298   0.00000  Uiso   1.00
O639   O     0.79874   0.08332   0.72702   0.00000  Uiso   1.00
O640   O     0.70127   0.41668   0.27298   0.00000  Uiso   1.00
O641   O     0.58332   0.20127   0.72702   0.00000  Uiso   1.00
O642   O     0.91668   0.29874   0.27298   0.00000  Uiso   1.00
O643   O     0.95127   0.33332   0.77298   0.00000  Uiso   1.00
O644   O     0.54874   0.16668   0.22702   0.00000  Uiso   1.00
O645   O     0.66668   0.45127   0.77298   0.00000  Uiso   1.00
O646   O     0.50000   0.25000   0.75000   0.00000  Uiso   1.00
O647   O     0.83332   0.04874   0.22702   0.00000  Uiso   1.00
O648   O     0.54874   0.16668   0.77298   0.00000  Uiso   1.00
O649   O     0.95127   0.33332   0.22702   0.00000  Uiso   1.00
O650   O     0.83332   0.04874   0.77298   0.00000  Uiso   1.00
O651   O     0.66668   0.45127   0.22702   0.00000  Uiso   1.00
O652   O     0.95127   0.16668   0.22702   0.00000  Uiso   1.00
O653   O     0.54874   0.33332   0.77298   0.00000  Uiso   1.00
O654   O     0.66668   0.04874   0.22702   0.00000  Uiso   1.00
O655   O     0.83332   0.45127   0.77298   0.00000  Uiso   1.00
O656   O     0.54874   0.33332   0.22702   0.00000  Uiso   1.00
O657   O     0.75000   0.46539   0.33749   0.00000  Uiso   1.00
O658   O     0.95127   0.16668   0.77298   0.00000  Uiso   1.00
O659   O     0.83332   0.45127   0.22702   0.00000  Uiso   1.00
O660   O     0.66668   0.04874   0.77298   0.00000  Uiso   1.00
O661   O     0.99779   0.13462   0.46108   0.00000  Uiso   1.00
O662   O     0.98837   0.36483   0.53890   0.00000  Uiso   1.00
O663   O     0.86535   0.49774   0.46108   0.00000  Uiso   1.00
O664   O     0.63519   0.48842   0.53890   0.00000  Uiso   1.00
O665   O     0.50221   0.36538   0.46108   0.00000  Uiso   1.00
O666   O     0.51163   0.13518   0.53890   0.00000  Uiso   1.00
O667   O     0.63465   0.00227   0.46108   0.00000  Uiso   1.00
O668   O     0.75000   0.03462   0.66251   0.00000  Uiso   1.00
O669   O     0.86481   0.01159   0.53890   0.00000  Uiso   1.00
O670   O     0.72346   0.38761   0.96094   0.00000  Uiso   1.00
O671   O     0.76497   0.11429   0.03910   0.00000  Uiso   1.00
O672   O     0.60674   0.29399   0.96129   0.00000  Uiso   1.00
O673   O     0.89939   0.19374   0.03905   0.00000  Uiso   1.00
O674   O     0.77660   0.11237   0.96094   0.00000  Uiso   1.00
O675   O     0.73508   0.38570   0.03910   0.00000  Uiso   1.00
O676   O     0.89327   0.20599   0.96129   0.00000  Uiso   1.00
O677   O     0.60063   0.30623   0.03905   0.00000  Uiso   1.00
O678   O     0.53462   0.25000   0.33749   0.00000  Uiso   1.00
O679   O     0.96539   0.25000   0.66251   0.00000  Uiso   1.00
O680   O     0.75000   0.03462   0.33749   0.00000  Uiso   1.00
Zn681  Zn    0.70053   0.00000   0.21730   0.00000  Uiso   1.00
Zn682  Zn    0.54948   0.25000   0.28270   0.00000  Uiso   1.00
Zn683  Zn    0.75000   0.45053   0.71730   0.00000  Uiso   1.00
Zn684  Zn    0.75000   0.04948   0.28270   0.00000  Uiso   1.00
Zn685  Zn    0.54948   0.25000   0.71730   0.00000  Uiso   1.00
Zn686  Zn    0.95053   0.25000   0.28270   0.00000  Uiso   1.00
Zn687  Zn    0.75000   0.04948   0.71730   0.00000  Uiso   1.00
Zn688  Zn    0.75000   0.45053   0.28270   0.00000  Uiso   1.00
Zn689  Zn    0.79948   0.00000   0.78270   0.00000  Uiso   1.00
Zn690  Zn    0.50000   0.20053   0.21730   0.00000  Uiso   1.00
Zn691  Zn    0.50000   0.29948   0.78270   0.00000  Uiso   1.00
Zn692  Zn    0.79948   0.00000   0.21730   0.00000  Uiso   1.00
Zn693  Zn    0.70053   0.00000   0.78270   0.00000  Uiso   1.00
Zn694  Zn    0.50000   0.29948   0.21730   0.00000  Uiso   1.00
Zn695  Zn    0.50000   0.20053   0.78270   0.00000  Uiso   1.00
Zn696  Zn    0.95053   0.25000   0.71730   0.00000  Uiso   1.00
C697   C     0.25000   0.50000   0.35580   0.00000  Uiso   1.00
C698   C     0.33003   0.91998   0.74999   0.00000  Uiso   1.00
C699   C     0.43136   0.71521   0.02035   0.00000  Uiso   1.00
C700   C     0.26568   0.57546   0.97974   0.00000  Uiso   1.00
C701   C     0.23709   0.92410   0.02026   0.00000  Uiso   1.00
C702   C     0.42985   0.71820   0.97992   0.00000  Uiso   1.00
C703   C     0.06864   0.78478   0.02035   0.00000  Uiso   1.00
C704   C     0.01612   0.84512   0.37337   0.00000  Uiso   1.00
C705   C     0.02401   0.65630   0.62639   0.00000  Uiso   1.00
C706   C     0.15492   0.51618   0.37337   0.00000  Uiso   1.00
C707   C     0.34370   0.52397   0.62639   0.00000  Uiso   1.00
C708   C     0.48390   0.65487   0.37336   0.00000  Uiso   1.00
C709   C     0.41998   0.66998   0.24999   0.00000  Uiso   1.00
C710   C     0.47599   0.84370   0.62638   0.00000  Uiso   1.00
C711   C     0.34508   0.98382   0.37337   0.00000  Uiso   1.00
C712   C     0.15630   0.97603   0.62639   0.00000  Uiso   1.00
C713   C     0.28673   0.59017   0.87414   0.00000  Uiso   1.00
C714   C     0.24869   0.90405   0.12735   0.00000  Uiso   1.00
C715   C     0.40620   0.72758   0.87359   0.00000  Uiso   1.00
C716   C     0.08139   0.80604   0.12491   0.00000  Uiso   1.00
C717   C     0.21326   0.90983   0.87415   0.00000  Uiso   1.00
C718   C     0.25131   0.59595   0.12735   0.00000  Uiso   1.00
C719   C     0.09380   0.77244   0.87358   0.00000  Uiso   1.00
C720   C     0.08003   0.83001   0.75002   0.00000  Uiso   1.00
C721   C     0.41862   0.69395   0.12491   0.00000  Uiso   1.00
C722   C     0.45567   0.62083   0.46400   0.00000  Uiso   1.00
C723   C     0.44528   0.87517   0.53593   0.00000  Uiso   1.00
C724   C     0.37908   0.95560   0.46401   0.00000  Uiso   1.00
C725   C     0.12478   0.94532   0.53594   0.00000  Uiso   1.00
C726   C     0.04433   0.87917   0.46400   0.00000  Uiso   1.00
C727   C     0.05471   0.62483   0.53593   0.00000  Uiso   1.00
C728   C     0.12092   0.54440   0.46401   0.00000  Uiso   1.00
C729   C     0.37521   0.55468   0.53594   0.00000  Uiso   1.00
C730   C     0.17951   0.88197   0.96390   0.00000  Uiso   1.00
C731   C     0.33003   0.91998   0.25001   0.00000  Uiso   1.00
C732   C     0.22486   0.63329   0.03754   0.00000  Uiso   1.00
C733   C     0.13633   0.76101   0.96423   0.00000  Uiso   1.00
C734   C     0.40806   0.65021   0.03697   0.00000  Uiso   1.00
C735   C     0.32055   0.61797   0.96388   0.00000  Uiso   1.00
C736   C     0.27520   0.86673   0.03755   0.00000  Uiso   1.00
C737   C     0.36366   0.73895   0.96426   0.00000  Uiso   1.00
C738   C     0.09200   0.84977   0.03697   0.00000  Uiso   1.00
C739   C     0.16997   0.58002   0.74999   0.00000  Uiso   1.00
C740   C     0.08002   0.83002   0.24999   0.00000  Uiso   1.00
C741   C     0.41997   0.66999   0.75002   0.00000  Uiso   1.00
C742   C     0.16999   0.91998   0.75001   0.00000  Uiso   1.00
C743   C     0.33001   0.58003   0.24999   0.00000  Uiso   1.00
C744   C     0.41999   0.83003   0.74999   0.00000  Uiso   1.00
C745   C     0.25000   0.50000   0.64420   0.00000  Uiso   1.00
C746   C     0.08001   0.66997   0.25001   0.00000  Uiso   1.00
C747   C     0.33001   0.58002   0.75001   0.00000  Uiso   1.00
C748   C     0.16999   0.91997   0.24999   0.00000  Uiso   1.00
C749   C     0.08001   0.66997   0.74999   0.00000  Uiso   1.00
C750   C     0.41999   0.83003   0.25001   0.00000  Uiso   1.00
C751   C     0.13834   0.88832   0.24998   0.00000  Uiso   1.00
C752   C     0.36165   0.61168   0.75002   0.00000  Uiso   1.00
C753   C     0.11166   0.63832   0.25002   0.00000  Uiso   1.00
C754   C     0.38835   0.86168   0.74998   0.00000  Uiso   1.00
C755   C     0.36166   0.61168   0.24998   0.00000  Uiso   1.00
C756   C     0.00000   0.75000   0.35579   0.00000  Uiso   1.00
C757   C     0.13835   0.88832   0.75002   0.00000  Uiso   1.00
C758   C     0.38834   0.86168   0.25002   0.00000  Uiso   1.00
C759   C     0.11165   0.63832   0.74998   0.00000  Uiso   1.00
C760   C     0.13832   0.61166   0.74998   0.00000  Uiso   1.00
C761   C     0.36168   0.88834   0.25002   0.00000  Uiso   1.00
C762   C     0.11168   0.86165   0.75003   0.00000  Uiso   1.00
C763   C     0.38833   0.63834   0.24998   0.00000  Uiso   1.00
C764   C     0.36168   0.88834   0.74998   0.00000  Uiso   1.00
C765   C     0.13832   0.61166   0.25002   0.00000  Uiso   1.00
C766   C     0.38832   0.63835   0.75003   0.00000  Uiso   1.00
C767   C     0.00000   0.75000   0.64421   0.00000  Uiso   1.00
C768   C     0.11167   0.86166   0.24998   0.00000  Uiso   1.00
C769   C     0.49491   0.78815   0.41784   0.00000  Uiso   1.00
C770   C     0.49818   0.71155   0.58217   0.00000  Uiso   1.00
C771   C     0.21185   0.99493   0.41784   0.00000  Uiso   1.00
C772   C     0.28844   0.99817   0.58217   0.00000  Uiso   1.00
C773   C     0.00509   0.71185   0.41784   0.00000  Uiso   1.00
C774   C     0.00182   0.78845   0.58217   0.00000  Uiso   1.00
C775   C     0.28815   0.50507   0.41784   0.00000  Uiso   1.00
C776   C     0.21156   0.50184   0.58217   0.00000  Uiso   1.00
C777   C     0.25361   0.53833   0.91779   0.00000  Uiso   1.00
C778   C     0.00000   0.75000   0.85583   0.00000  Uiso   1.00
C779   C     0.23842   0.96328   0.08205   0.00000  Uiso   1.00
C780   C     0.46705   0.73003   0.91801   0.00000  Uiso   1.00
C781   C     0.03626   0.76303   0.08215   0.00000  Uiso   1.00
C782   C     0.24640   0.96166   0.91779   0.00000  Uiso   1.00
C783   C     0.26159   0.53671   0.08205   0.00000  Uiso   1.00
C784   C     0.03295   0.76998   0.91801   0.00000  Uiso   1.00
C785   C     0.46374   0.73697   0.08215   0.00000  Uiso   1.00
C786   C     0.00000   0.75000   0.39803   0.00000  Uiso   1.00
C787   C     0.00000   0.75000   0.60198   0.00000  Uiso   1.00
C788   C     0.25000   0.50000   0.39803   0.00000  Uiso   1.00
C789   C    -0.00000   0.75000   0.14420   0.00000  Uiso   1.00
C790   C     0.25000   0.50000   0.60198   0.00000  Uiso   1.00
C791   C     0.25000   0.50000   0.89800   0.00000  Uiso   1.00
C792   C     0.25000   0.50000   0.10193   0.00000  Uiso   1.00
C793   C     0.00000   0.75000   0.89813   0.00000  Uiso   1.00
C794   C    -0.00000   0.75000   0.10201   0.00000  Uiso   1.00
C795   C     0.00224   0.71123   0.45881   0.00000  Uiso   1.00
C796   C     0.49898   0.78883   0.54119   0.00000  Uiso   1.00
C797   C     0.28877   0.50222   0.45881   0.00000  Uiso   1.00
C798   C     0.21118   0.99900   0.54119   0.00000  Uiso   1.00
C799   C     0.49776   0.78878   0.45881   0.00000  Uiso   1.00
C800   C     0.25000   0.50000   0.85579   0.00000  Uiso   1.00
C801   C     0.00102   0.71117   0.54119   0.00000  Uiso   1.00
C802   C     0.21123   0.99778   0.45881   0.00000  Uiso   1.00
C803   C     0.28882   0.50100   0.54119   0.00000  Uiso   1.00
C804   C     0.24355   0.96166   0.95877   0.00000  Uiso   1.00
C805   C     0.25837   0.53789   0.04112   0.00000  Uiso   1.00
C806   C     0.03470   0.76747   0.95894   0.00000  Uiso   1.00
C807   C     0.46472   0.73388   0.04124   0.00000  Uiso   1.00
C808   C     0.25647   0.53833   0.95877   0.00000  Uiso   1.00
C809   C     0.24165   0.96211   0.04112   0.00000  Uiso   1.00
C810   C     0.46530   0.73253   0.95894   0.00000  Uiso   1.00
C811   C     0.25000   0.50000   0.14419   0.00000  Uiso   1.00
C812   C     0.03528   0.76612   0.04124   0.00000  Uiso   1.00
C813   C    -0.00000   0.75000   0.47940   0.00000  Uiso   1.00
C814   C    -0.00000   0.75000   0.52061   0.00000  Uiso   1.00
C815   C     0.25000   0.50000   0.47940   0.00000  Uiso   1.00
C816   C     0.25000   0.50000   0.52061   0.00000  Uiso   1.00
C817   C     0.25001   0.50000   0.97934   0.00000  Uiso   1.00
C818   C     0.25001   0.50000   0.02053   0.00000  Uiso   1.00
C819   C     0.00000   0.75000   0.97949   0.00000  Uiso   1.00
C820   C     0.00000   0.75000   0.02067   0.00000  Uiso   1.00
C821   C     0.00140   0.67300   0.47977   0.00000  Uiso   1.00
C822   C     0.16997   0.58002   0.25001   0.00000  Uiso   1.00
C823   C     0.49504   0.82686   0.52022   0.00000  Uiso   1.00
C824   C     0.32699   0.50136   0.47977   0.00000  Uiso   1.00
C825   C     0.17315   0.99508   0.52023   0.00000  Uiso   1.00
C826   C     0.49860   0.82700   0.47977   0.00000  Uiso   1.00
C827   C     0.00495   0.67314   0.52022   0.00000  Uiso   1.00
C828   C     0.17301   0.99864   0.47977   0.00000  Uiso   1.00
C829   C     0.32685   0.50492   0.52022   0.00000  Uiso   1.00
C830   C     0.23435   0.92452   0.97974   0.00000  Uiso   1.00
C831   C     0.26294   0.57589   0.02026   0.00000  Uiso   1.00
C832   C     0.07015   0.78179   0.97992   0.00000  Uiso   1.00
H833   H     0.45992   0.84363   0.40674   0.00000  Uiso   1.00
H834   H     0.12173   0.51986   0.38278   0.00000  Uiso   1.00
H835   H     0.38304   0.63294   0.05281   0.00000  Uiso   1.00
H836   H     0.33800   0.59033   0.95222   0.00000  Uiso   1.00
H837   H     0.33018   0.62436   0.99427   0.00000  Uiso   1.00
H838   H     0.32964   0.64575   0.94631   0.00000  Uiso   1.00
H839   H     0.29954   0.88700   0.05142   0.00000  Uiso   1.00
H840   H     0.28446   0.85910   0.00725   0.00000  Uiso   1.00
H841   H     0.27403   0.83668   0.05389   0.00000  Uiso   1.00
H842   H     0.37598   0.76860   0.95128   0.00000  Uiso   1.00
H843   H     0.35401   0.74440   0.99485   0.00000  Uiso   1.00
H844   H     0.33501   0.72991   0.94787   0.00000  Uiso   1.00
H845   H     0.15511   0.50690   0.34235   0.00000  Uiso   1.00
H846   H     0.06141   0.85747   0.05101   0.00000  Uiso   1.00
H847   H     0.09214   0.86126   0.00650   0.00000  Uiso   1.00
H848   H     0.11703   0.86701   0.05281   0.00000  Uiso   1.00
H849   H     0.17112   0.54705   0.37644   0.00000  Uiso   1.00
H850   H     0.34647   0.96766   0.59327   0.00000  Uiso   1.00
H851   H     0.37660   0.52991   0.61706   0.00000  Uiso   1.00
H852   H     0.34405   0.51503   0.65750   0.00000  Uiso   1.00
H853   H     0.32540   0.55357   0.62298   0.00000  Uiso   1.00
H854   H     0.04009   0.65637   0.40675   0.00000  Uiso   1.00
H855   H     0.48024   0.62167   0.38277   0.00000  Uiso   1.00
H856   H     0.49321   0.65507   0.34235   0.00000  Uiso   1.00
H857   H     0.01978   0.87833   0.38277   0.00000  Uiso   1.00
H858   H     0.45304   0.67102   0.37641   0.00000  Uiso   1.00
H859   H     0.03230   0.84654   0.59327   0.00000  Uiso   1.00
H860   H     0.47005   0.87659   0.61705   0.00000  Uiso   1.00
H861   H     0.48493   0.84405   0.65749   0.00000  Uiso   1.00
H862   H     0.44641   0.82535   0.62296   0.00000  Uiso   1.00
H863   H     0.34368   0.54004   0.40673   0.00000  Uiso   1.00
H864   H     0.37827   0.98014   0.38278   0.00000  Uiso   1.00
H865   H     0.34489   0.99310   0.34235   0.00000  Uiso   1.00
H866   H     0.32888   0.95295   0.37644   0.00000  Uiso   1.00
H867   H     0.15353   0.53234   0.59327   0.00000  Uiso   1.00
H868   H     0.00682   0.84492   0.34235   0.00000  Uiso   1.00
H869   H     0.12340   0.97009   0.61706   0.00000  Uiso   1.00
H870   H     0.15596   0.98497   0.65750   0.00000  Uiso   1.00
H871   H     0.17460   0.94643   0.62298   0.00000  Uiso   1.00
H872   H     0.23070   0.59969   0.90655   0.00000  Uiso   1.00
H873   H     0.29598   0.62239   0.88317   0.00000  Uiso   1.00
H874   H     0.27867   0.59100   0.84284   0.00000  Uiso   1.00
H875   H     0.31404   0.56881   0.87847   0.00000  Uiso   1.00
H876   H     0.19470   0.91410   0.09226   0.00000  Uiso   1.00
H877   H     0.24753   0.87065   0.11796   0.00000  Uiso   1.00
H878   H     0.23828   0.90575   0.15803   0.00000  Uiso   1.00
H879   H     0.04698   0.82897   0.37643   0.00000  Uiso   1.00
H880   H     0.28179   0.91523   0.12542   0.00000  Uiso   1.00
H881   H     0.42949   0.67615   0.90672   0.00000  Uiso   1.00
H882   H     0.37417   0.71875   0.88350   0.00000  Uiso   1.00
H883   H     0.40939   0.71836   0.84269   0.00000  Uiso   1.00
H884   H     0.40977   0.76231   0.87596   0.00000  Uiso   1.00
H885   H     0.10120   0.75400   0.09139   0.00000  Uiso   1.00
H886   H     0.11084   0.82155   0.11512   0.00000  Uiso   1.00
H887   H     0.08487   0.79847   0.15615   0.00000  Uiso   1.00
H888   H     0.05488   0.82849   0.12113   0.00000  Uiso   1.00
H889   H     0.26930   0.90031   0.90653   0.00000  Uiso   1.00
H890   H     0.46770   0.65346   0.59327   0.00000  Uiso   1.00
H891   H     0.20401   0.87761   0.88318   0.00000  Uiso   1.00
H892   H     0.22131   0.90900   0.84284   0.00000  Uiso   1.00
H893   H     0.18595   0.93119   0.87849   0.00000  Uiso   1.00
H894   H     0.30531   0.58589   0.09227   0.00000  Uiso   1.00
H895   H     0.25248   0.62935   0.11796   0.00000  Uiso   1.00
H896   H     0.26172   0.59425   0.15803   0.00000  Uiso   1.00
H897   H     0.21821   0.58477   0.12541   0.00000  Uiso   1.00
H898   H     0.07051   0.82386   0.90673   0.00000  Uiso   1.00
H899   H     0.12583   0.78126   0.88348   0.00000  Uiso   1.00
H900   H     0.09060   0.78167   0.84268   0.00000  Uiso   1.00
H901   H     0.02995   0.62341   0.61705   0.00000  Uiso   1.00
H902   H     0.09022   0.73770   0.87594   0.00000  Uiso   1.00
H903   H     0.39880   0.74598   0.09138   0.00000  Uiso   1.00
H904   H     0.38918   0.67842   0.11512   0.00000  Uiso   1.00
H905   H     0.41513   0.70152   0.15615   0.00000  Uiso   1.00
H906   H     0.44514   0.67150   0.12113   0.00000  Uiso   1.00
H907   H     0.43359   0.64396   0.45079   0.00000  Uiso   1.00
H908   H     0.44665   0.61450   0.49461   0.00000  Uiso   1.00
H909   H     0.45240   0.59082   0.44783   0.00000  Uiso   1.00
H910   H     0.42512   0.85038   0.54921   0.00000  Uiso   1.00
H911   H     0.43578   0.88065   0.50531   0.00000  Uiso   1.00
H912   H     0.01507   0.65595   0.65749   0.00000  Uiso   1.00
H913   H     0.43964   0.90487   0.55202   0.00000  Uiso   1.00
H914   H     0.35593   0.93352   0.45079   0.00000  Uiso   1.00
H915   H     0.38538   0.94658   0.49462   0.00000  Uiso   1.00
H916   H     0.40908   0.95232   0.44785   0.00000  Uiso   1.00
H917   H     0.14954   0.92515   0.54923   0.00000  Uiso   1.00
H918   H     0.11930   0.93582   0.50531   0.00000  Uiso   1.00
H919   H     0.09508   0.93969   0.55202   0.00000  Uiso   1.00
H920   H     0.06640   0.85605   0.45078   0.00000  Uiso   1.00
H921   H     0.05335   0.88549   0.49461   0.00000  Uiso   1.00
H922   H     0.04760   0.90919   0.44784   0.00000  Uiso   1.00
H923   H     0.05359   0.67465   0.62297   0.00000  Uiso   1.00
H924   H     0.07488   0.64962   0.54921   0.00000  Uiso   1.00
H925   H     0.06421   0.61935   0.50531   0.00000  Uiso   1.00
H926   H     0.06035   0.59513   0.55202   0.00000  Uiso   1.00
H927   H     0.14407   0.56648   0.45079   0.00000  Uiso   1.00
H928   H     0.11462   0.55343   0.49462   0.00000  Uiso   1.00
H929   H     0.09092   0.54768   0.44785   0.00000  Uiso   1.00
H930   H     0.35046   0.57485   0.54923   0.00000  Uiso   1.00
H931   H     0.38069   0.56419   0.50531   0.00000  Uiso   1.00
H932   H     0.40492   0.56032   0.55201   0.00000  Uiso   1.00
H933   H     0.16203   0.90959   0.95225   0.00000  Uiso   1.00
H934   H     0.15632   0.95996   0.40674   0.00000  Uiso   1.00
H935   H     0.16989   0.87557   0.99429   0.00000  Uiso   1.00
H936   H     0.17044   0.85418   0.94634   0.00000  Uiso   1.00
H937   H     0.20051   0.61304   0.05140   0.00000  Uiso   1.00
H938   H     0.21562   0.64093   0.00723   0.00000  Uiso   1.00
H939   H     0.22605   0.66334   0.05388   0.00000  Uiso   1.00
H940   H     0.12398   0.73138   0.95123   0.00000  Uiso   1.00
H941   H     0.14596   0.75551   0.99482   0.00000  Uiso   1.00
H942   H     0.16499   0.77003   0.94786   0.00000  Uiso   1.00
H943   H     0.43866   0.64252   0.05101   0.00000  Uiso   1.00
H944   H     0.40792   0.63872   0.00650   0.00000  Uiso   1.00
N945   N     0.48360   0.82472   0.39609   0.00000  Uiso   1.00
N946   N     0.22068   0.92918   0.10360   0.00000  Uiso   1.00
N947   N     0.43756   0.70550   0.89634   0.00000  Uiso   1.00
N948   N     0.07467   0.76741   0.10338   0.00000  Uiso   1.00
N949   N     0.24974   0.92354   0.89602   0.00000  Uiso   1.00
N950   N     0.27933   0.57082   0.10360   0.00000  Uiso   1.00
N951   N     0.06244   0.79451   0.89634   0.00000  Uiso   1.00
N952   N     0.42533   0.73257   0.10338   0.00000  Uiso   1.00
N953   N     0.48985   0.67418   0.60392   0.00000  Uiso   1.00
N954   N     0.17527   0.98364   0.39609   0.00000  Uiso   1.00
N955   N     0.32579   0.98982   0.60392   0.00000  Uiso   1.00
N956   N     0.01641   0.67529   0.39609   0.00000  Uiso   1.00
N957   N     0.01015   0.82582   0.60392   0.00000  Uiso   1.00
N958   N     0.32473   0.51636   0.39609   0.00000  Uiso   1.00
N959   N     0.17421   0.51019   0.60392   0.00000  Uiso   1.00
N960   N     0.25026   0.57646   0.89602   0.00000  Uiso   1.00
O961   O     0.25000   0.50000   0.25000   0.00000  Uiso   1.00
O962   O     0.25000   0.96539   0.66251   0.00000  Uiso   1.00
O963   O     0.46539   0.75000   0.33749   0.00000  Uiso   1.00
O964   O     0.03462   0.75000   0.66251   0.00000  Uiso   1.00
O965   O     0.00000   0.71539   0.83749   0.00000  Uiso   1.00
O966   O     0.00000   0.78462   0.16251   0.00000  Uiso   1.00
O967   O     0.28462   0.50000   0.83749   0.00000  Uiso   1.00
O968   O     0.21539   0.50000   0.16251   0.00000  Uiso   1.00
O969   O     0.00000   0.78462   0.83749   0.00000  Uiso   1.00
O970   O     0.00000   0.71539   0.16251   0.00000  Uiso   1.00
O971   O     0.21539   0.50000   0.83749   0.00000  Uiso   1.00
O972   O     0.25000   0.50000   0.75000   0.00000  Uiso   1.00
O973   O     0.28462   0.50000   0.16251   0.00000  Uiso   1.00
O974   O     0.20127   0.58332   0.27298   0.00000  Uiso   1.00
O975   O     0.29874   0.91668   0.72702   0.00000  Uiso   1.00
O976   O     0.41668   0.70127   0.27298   0.00000  Uiso   1.00
O977   O     0.08332   0.79874   0.72702   0.00000  Uiso   1.00
O978   O     0.29874   0.91668   0.27298   0.00000  Uiso   1.00
O979   O     0.20127   0.58332   0.72702   0.00000  Uiso   1.00
O980   O     0.08332   0.79874   0.27298   0.00000  Uiso   1.00
O981   O     0.41668   0.70127   0.72702   0.00000  Uiso   1.00
O982   O     0.20127   0.91668   0.72702   0.00000  Uiso   1.00
O983   O     0.00000   0.75000   0.25000   0.00000  Uiso   1.00
O984   O     0.29874   0.58332   0.27298   0.00000  Uiso   1.00
O985   O     0.41668   0.79874   0.72702   0.00000  Uiso   1.00
O986   O     0.08332   0.70127   0.27298   0.00000  Uiso   1.00
O987   O     0.29874   0.58332   0.72702   0.00000  Uiso   1.00
O988   O     0.20127   0.91668   0.27298   0.00000  Uiso   1.00
O989   O     0.08332   0.70127   0.72702   0.00000  Uiso   1.00
O990   O     0.41668   0.79874   0.27298   0.00000  Uiso   1.00
O991   O     0.45127   0.83332   0.77298   0.00000  Uiso   1.00
O992   O     0.04874   0.66668   0.22702   0.00000  Uiso   1.00
O993   O     0.16668   0.95127   0.77298   0.00000  Uiso   1.00
O994   O     0.00000   0.75000   0.75000   0.00000  Uiso   1.00
O995   O     0.33332   0.54874   0.22702   0.00000  Uiso   1.00
O996   O     0.04874   0.66668   0.77298   0.00000  Uiso   1.00
O997   O     0.45127   0.83332   0.22702   0.00000  Uiso   1.00
O998   O     0.33332   0.54874   0.77298   0.00000  Uiso   1.00
O999   O     0.16668   0.95127   0.22702   0.00000  Uiso   1.00
O1000  O     0.45127   0.66668   0.22702   0.00000  Uiso   1.00
O1001  O     0.04874   0.83332   0.77298   0.00000  Uiso   1.00
O1002  O     0.16668   0.54874   0.22702   0.00000  Uiso   1.00
O1003  O     0.33332   0.95127   0.77298   0.00000  Uiso   1.00
O1004  O     0.04874   0.83332   0.22702   0.00000  Uiso   1.00
O1005  O     0.25000   0.96539   0.33749   0.00000  Uiso   1.00
O1006  O     0.45127   0.66668   0.77298   0.00000  Uiso   1.00
O1007  O     0.33332   0.95127   0.22702   0.00000  Uiso   1.00
O1008  O     0.16668   0.54874   0.77298   0.00000  Uiso   1.00
O1009  O     0.49779   0.63462   0.46108   0.00000  Uiso   1.00
O1010  O     0.48837   0.86483   0.53890   0.00000  Uiso   1.00
O1011  O     0.36535   0.99774   0.46108   0.00000  Uiso   1.00
O1012  O     0.13519   0.98842   0.53890   0.00000  Uiso   1.00
O1013  O     0.00221   0.86538   0.46108   0.00000  Uiso   1.00
O1014  O     0.01163   0.63518   0.53890   0.00000  Uiso   1.00
O1015  O     0.13465   0.50227   0.46108   0.00000  Uiso   1.00
O1016  O     0.25000   0.53462   0.66251   0.00000  Uiso   1.00
O1017  O     0.36481   0.51159   0.53890   0.00000  Uiso   1.00
O1018  O     0.22346   0.88761   0.96094   0.00000  Uiso   1.00
O1019  O     0.26497   0.61429   0.03910   0.00000  Uiso   1.00
O1020  O     0.10674   0.79399   0.96129   0.00000  Uiso   1.00
O1021  O     0.39939   0.69374   0.03905   0.00000  Uiso   1.00
O1022  O     0.27660   0.61237   0.96094   0.00000  Uiso   1.00
O1023  O     0.23508   0.88570   0.03910   0.00000  Uiso   1.00
O1024  O     0.39327   0.70599   0.96129   0.00000  Uiso   1.00
O1025  O     0.10063   0.80623   0.03905   0.00000  Uiso   1.00
O1026  O     0.03462   0.75000   0.33749   0.00000  Uiso   1.00
O1027  O     0.46539   0.75000   0.66251   0.00000  Uiso   1.00
O1028  O     0.25000   0.53462   0.33749   0.00000  Uiso   1.00
Zn1029 Zn    0.20053   0.50000   0.21730   0.00000  Uiso   1.00
Zn1030 Zn    0.04948   0.75000   0.28270   0.00000  Uiso   1.00
Zn1031 Zn    0.25000   0.95053   0.71730   0.00000  Uiso   1.00
Zn1032 Zn    0.25000   0.54948   0.28270   0.00000  Uiso   1.00
Zn1033 Zn    0.04948   0.75000   0.71730   0.00000  Uiso   1.00
Zn1034 Zn    0.45053   0.75000   0.28270   0.00000  Uiso   1.00
Zn1035 Zn    0.25000   0.54948   0.71730   0.00000  Uiso   1.00
Zn1036 Zn    0.25000   0.95053   0.28270   0.00000  Uiso   1.00
Zn1037 Zn    0.29948   0.50000   0.78270   0.00000  Uiso   1.00
Zn1038 Zn    0.00000   0.70053   0.21730   0.00000  Uiso   1.00
Zn1039 Zn    0.00000   0.79948   0.78270   0.00000  Uiso   1.00
Zn1040 Zn    0.29948   0.50000   0.21730   0.00000  Uiso   1.00
Zn1041 Zn    0.20053   0.50000   0.78270   0.00000  Uiso   1.00
Zn1042 Zn    0.00000   0.79948   0.21730   0.00000  Uiso   1.00
Zn1043 Zn    0.00000   0.70053   0.78270   0.00000  Uiso   1.00
Zn1044 Zn    0.45053   0.75000   0.71730   0.00000  Uiso   1.00
C1045  C     0.75000   0.50000   0.35580   0.00000  Uiso   1.00
C1046  C     0.83003   0.91998   0.74999   0.00000  Uiso   1.00
C1047  C     0.93136   0.71521   0.02035   0.00000  Uiso   1.00
C1048  C     0.76568   0.57546   0.97974   0.00000  Uiso   1.00
C1049  C     0.73709   0.92410   0.02026   0.00000  Uiso   1.00
C1050  C     0.92985   0.71820   0.97992   0.00000  Uiso   1.00
C1051  C     0.56864   0.78478   0.02035   0.00000  Uiso   1.00
C1052  C     0.51612   0.84512   0.37337   0.00000  Uiso   1.00
C1053  C     0.52401   0.65630   0.62639   0.00000  Uiso   1.00
C1054  C     0.65492   0.51618   0.37337   0.00000  Uiso   1.00
C1055  C     0.84370   0.52397   0.62639   0.00000  Uiso   1.00
C1056  C     0.98390   0.65487   0.37336   0.00000  Uiso   1.00
C1057  C     0.91998   0.66998   0.24999   0.00000  Uiso   1.00
C1058  C     0.97599   0.84370   0.62638   0.00000  Uiso   1.00
C1059  C     0.84508   0.98382   0.37337   0.00000  Uiso   1.00
C1060  C     0.65630   0.97603   0.62639   0.00000  Uiso   1.00
C1061  C     0.78673   0.59017   0.87414   0.00000  Uiso   1.00
C1062  C     0.74869   0.90405   0.12735   0.00000  Uiso   1.00
C1063  C     0.90620   0.72758   0.87359   0.00000  Uiso   1.00
C1064  C     0.58139   0.80604   0.12491   0.00000  Uiso   1.00
C1065  C     0.71326   0.90983   0.87415   0.00000  Uiso   1.00
C1066  C     0.75131   0.59595   0.12735   0.00000  Uiso   1.00
C1067  C     0.59380   0.77244   0.87358   0.00000  Uiso   1.00
C1068  C     0.58003   0.83001   0.75002   0.00000  Uiso   1.00
C1069  C     0.91862   0.69395   0.12491   0.00000  Uiso   1.00
C1070  C     0.95567   0.62083   0.46400   0.00000  Uiso   1.00
C1071  C     0.94528   0.87517   0.53593   0.00000  Uiso   1.00
C1072  C     0.87908   0.95560   0.46401   0.00000  Uiso   1.00
C1073  C     0.62478   0.94532   0.53594   0.00000  Uiso   1.00
C1074  C     0.54433   0.87917   0.46400   0.00000  Uiso   1.00
C1075  C     0.55471   0.62483   0.53593   0.00000  Uiso   1.00
C1076  C     0.62092   0.54440   0.46401   0.00000  Uiso   1.00
C1077  C     0.87521   0.55468   0.53594   0.00000  Uiso   1.00
C1078  C     0.67951   0.88197   0.96390   0.00000  Uiso   1.00
C1079  C     0.83003   0.91998   0.25001   0.00000  Uiso   1.00
C1080  C     0.72486   0.63329   0.03754   0.00000  Uiso   1.00
C1081  C     0.63633   0.76101   0.96423   0.00000  Uiso   1.00
C1082  C     0.90806   0.65021   0.03697   0.00000  Uiso   1.00
C1083  C     0.82055   0.61797   0.96388   0.00000  Uiso   1.00
C1084  C     0.77520   0.86673   0.03755   0.00000  Uiso   1.00
C1085  C     0.86366   0.73895   0.96426   0.00000  Uiso   1.00
C1086  C     0.59200   0.84977   0.03697   0.00000  Uiso   1.00
C1087  C     0.66997   0.58002   0.74999   0.00000  Uiso   1.00
C1088  C     0.58002   0.83002   0.24999   0.00000  Uiso   1.00
C1089  C     0.91997   0.66999   0.75002   0.00000  Uiso   1.00
C1090  C     0.66999   0.91998   0.75001   0.00000  Uiso   1.00
C1091  C     0.83001   0.58003   0.24999   0.00000  Uiso   1.00
C1092  C     0.91999   0.83003   0.74999   0.00000  Uiso   1.00
C1093  C     0.75000   0.50000   0.64420   0.00000  Uiso   1.00
C1094  C     0.58001   0.66997   0.25001   0.00000  Uiso   1.00
C1095  C     0.83001   0.58002   0.75001   0.00000  Uiso   1.00
C1096  C     0.66999   0.91997   0.24999   0.00000  Uiso   1.00
C1097  C     0.58001   0.66997   0.74999   0.00000  Uiso   1.00
C1098  C     0.91999   0.83003   0.25001   0.00000  Uiso   1.00
C1099  C     0.63834   0.88832   0.24998   0.00000  Uiso   1.00
C1100  C     0.86165   0.61168   0.75002   0.00000  Uiso   1.00
C1101  C     0.61166   0.63832   0.25002   0.00000  Uiso   1.00
C1102  C     0.88835   0.86168   0.74998   0.00000  Uiso   1.00
C1103  C     0.86166   0.61168   0.24998   0.00000  Uiso   1.00
C1104  C     0.50000   0.75000   0.35579   0.00000  Uiso   1.00
C1105  C     0.63835   0.88832   0.75002   0.00000  Uiso   1.00
C1106  C     0.88834   0.86168   0.25002   0.00000  Uiso   1.00
C1107  C     0.61165   0.63832   0.74998   0.00000  Uiso   1.00
C1108  C     0.63832   0.61166   0.74998   0.00000  Uiso   1.00
C1109  C     0.86168   0.88834   0.25002   0.00000  Uiso   1.00
C1110  C     0.61168   0.86165   0.75003   0.00000  Uiso   1.00
C1111  C     0.88833   0.63834   0.24998   0.00000  Uiso   1.00
C1112  C     0.86168   0.88834   0.74998   0.00000  Uiso   1.00
C1113  C     0.63832   0.61166   0.25002   0.00000  Uiso   1.00
C1114  C     0.88832   0.63835   0.75003   0.00000  Uiso   1.00
C1115  C     0.50000   0.75000   0.64421   0.00000  Uiso   1.00
C1116  C     0.61167   0.86166   0.24998   0.00000  Uiso   1.00
C1117  C     0.99491   0.78815   0.41784   0.00000  Uiso   1.00
C1118  C     0.99818   0.71155   0.58217   0.00000  Uiso   1.00
C1119  C     0.71185   0.99493   0.41784   0.00000  Uiso   1.00
C1120  C     0.78844   0.99817   0.58217   0.00000  Uiso   1.00
C1121  C     0.50509   0.71185   0.41784   0.00000  Uiso   1.00
C1122  C     0.50182   0.78845   0.58217   0.00000  Uiso   1.00
C1123  C     0.78815   0.50507   0.41784   0.00000  Uiso   1.00
C1124  C     0.71156   0.50184   0.58217   0.00000  Uiso   1.00
C1125  C     0.75361   0.53833   0.91779   0.00000  Uiso   1.00
C1126  C     0.50000   0.75000   0.85583   0.00000  Uiso   1.00
C1127  C     0.73842   0.96328   0.08205   0.00000  Uiso   1.00
C1128  C     0.96705   0.73003   0.91801   0.00000  Uiso   1.00
C1129  C     0.53626   0.76303   0.08215   0.00000  Uiso   1.00
C1130  C     0.74640   0.96166   0.91779   0.00000  Uiso   1.00
C1131  C     0.76159   0.53671   0.08205   0.00000  Uiso   1.00
C1132  C     0.53295   0.76998   0.91801   0.00000  Uiso   1.00
C1133  C     0.96374   0.73697   0.08215   0.00000  Uiso   1.00
C1134  C     0.50000   0.75000   0.39803   0.00000  Uiso   1.00
C1135  C     0.50000   0.75000   0.60198   0.00000  Uiso   1.00
C1136  C     0.75000   0.50000   0.39803   0.00000  Uiso   1.00
C1137  C     0.50000   0.75000   0.14420   0.00000  Uiso   1.00
C1138  C     0.75000   0.50000   0.60198   0.00000  Uiso   1.00
C1139  C     0.75000   0.50000   0.89800   0.00000  Uiso   1.00
C1140  C     0.75000   0.50000   0.10193   0.00000  Uiso   1.00
C1141  C     0.50000   0.75000   0.89813   0.00000  Uiso   1.00
C1142  C     0.50000   0.75000   0.10201   0.00000  Uiso   1.00
C1143  C     0.50224   0.71123   0.45881   0.00000  Uiso   1.00
C1144  C     0.99898   0.78883   0.54119   0.00000  Uiso   1.00
C1145  C     0.78877   0.50222   0.45881   0.00000  Uiso   1.00
C1146  C     0.71118   0.99900   0.54119   0.00000  Uiso   1.00
C1147  C     0.99776   0.78878   0.45881   0.00000  Uiso   1.00
C1148  C     0.75000   0.50000   0.85579   0.00000  Uiso   1.00
C1149  C     0.50102   0.71117   0.54119   0.00000  Uiso   1.00
C1150  C     0.71123   0.99778   0.45881   0.00000  Uiso   1.00
C1151  C     0.78882   0.50100   0.54119   0.00000  Uiso   1.00
C1152  C     0.74355   0.96166   0.95877   0.00000  Uiso   1.00
C1153  C     0.75837   0.53789   0.04112   0.00000  Uiso   1.00
C1154  C     0.53470   0.76747   0.95894   0.00000  Uiso   1.00
C1155  C     0.96472   0.73388   0.04124   0.00000  Uiso   1.00
C1156  C     0.75647   0.53833   0.95877   0.00000  Uiso   1.00
C1157  C     0.74165   0.96211   0.04112   0.00000  Uiso   1.00
C1158  C     0.96530   0.73253   0.95894   0.00000  Uiso   1.00
C1159  C     0.75000   0.50000   0.14419   0.00000  Uiso   1.00
C1160  C     0.53528   0.76612   0.04124   0.00000  Uiso   1.00
C1161  C     0.50000   0.75000   0.47940   0.00000  Uiso   1.00
C1162  C     0.50000   0.75000   0.52061   0.00000  Uiso   1.00
C1163  C     0.75000   0.50000   0.47940   0.00000  Uiso   1.00
C1164  C     0.75000   0.50000   0.52061   0.00000  Uiso   1.00
C1165  C     0.75001   0.50000   0.97934   0.00000  Uiso   1.00
C1166  C     0.75001   0.50000   0.02053   0.00000  Uiso   1.00
C1167  C     0.50000   0.75000   0.97949   0.00000  Uiso   1.00
C1168  C     0.50000   0.75000   0.02067   0.00000  Uiso   1.00
C1169  C     0.50140   0.67300   0.47977   0.00000  Uiso   1.00
C1170  C     0.66997   0.58002   0.25001   0.00000  Uiso   1.00
C1171  C     0.99504   0.82686   0.52022   0.00000  Uiso   1.00
C1172  C     0.82699   0.50136   0.47977   0.00000  Uiso   1.00
C1173  C     0.67315   0.99508   0.52023   0.00000  Uiso   1.00
C1174  C     0.99860   0.82700   0.47977   0.00000  Uiso   1.00
C1175  C     0.50495   0.67314   0.52022   0.00000  Uiso   1.00
C1176  C     0.67301   0.99864   0.47977   0.00000  Uiso   1.00
C1177  C     0.82685   0.50492   0.52022   0.00000  Uiso   1.00
C1178  C     0.73435   0.92452   0.97974   0.00000  Uiso   1.00
C1179  C     0.76294   0.57589   0.02026   0.00000  Uiso   1.00
C1180  C     0.57015   0.78179   0.97992   0.00000  Uiso   1.00
H1181  H     0.95992   0.84363   0.40674   0.00000  Uiso   1.00
H1182  H     0.62173   0.51986   0.38278   0.00000  Uiso   1.00
H1183  H     0.88304   0.63294   0.05281   0.00000  Uiso   1.00
H1184  H     0.83800   0.59033   0.95222   0.00000  Uiso   1.00
H1185  H     0.83018   0.62436   0.99427   0.00000  Uiso   1.00
H1186  H     0.82964   0.64575   0.94631   0.00000  Uiso   1.00
H1187  H     0.79954   0.88700   0.05142   0.00000  Uiso   1.00
H1188  H     0.78446   0.85910   0.00725   0.00000  Uiso   1.00
H1189  H     0.77403   0.83668   0.05389   0.00000  Uiso   1.00
H1190  H     0.87598   0.76860   0.95128   0.00000  Uiso   1.00
H1191  H     0.85401   0.74440   0.99485   0.00000  Uiso   1.00
H1192  H     0.83501   0.72991   0.94787   0.00000  Uiso   1.00
H1193  H     0.65511   0.50690   0.34235   0.00000  Uiso   1.00
H1194  H     0.56141   0.85747   0.05101   0.00000  Uiso   1.00
H1195  H     0.59214   0.86126   0.00650   0.00000  Uiso   1.00
H1196  H     0.61703   0.86701   0.05281   0.00000  Uiso   1.00
H1197  H     0.67112   0.54705   0.37644   0.00000  Uiso   1.00
H1198  H     0.84647   0.96766   0.59327   0.00000  Uiso   1.00
H1199  H     0.87660   0.52991   0.61706   0.00000  Uiso   1.00
H1200  H     0.84405   0.51503   0.65750   0.00000  Uiso   1.00
H1201  H     0.82540   0.55357   0.62298   0.00000  Uiso   1.00
H1202  H     0.54009   0.65637   0.40675   0.00000  Uiso   1.00
H1203  H     0.98024   0.62167   0.38277   0.00000  Uiso   1.00
H1204  H     0.99321   0.65507   0.34235   0.00000  Uiso   1.00
H1205  H     0.51978   0.87833   0.38277   0.00000  Uiso   1.00
H1206  H     0.95304   0.67102   0.37641   0.00000  Uiso   1.00
H1207  H     0.53230   0.84654   0.59327   0.00000  Uiso   1.00
H1208  H     0.97005   0.87659   0.61705   0.00000  Uiso   1.00
H1209  H     0.98493   0.84405   0.65749   0.00000  Uiso   1.00
H1210  H     0.94641   0.82535   0.62296   0.00000  Uiso   1.00
H1211  H     0.84368   0.54004   0.40673   0.00000  Uiso   1.00
H1212  H     0.87827   0.98014   0.38278   0.00000  Uiso   1.00
H1213  H     0.84489   0.99310   0.34235   0.00000  Uiso   1.00
H1214  H     0.82888   0.95295   0.37644   0.00000  Uiso   1.00
H1215  H     0.65353   0.53234   0.59327   0.00000  Uiso   1.00
H1216  H     0.50682   0.84492   0.34235   0.00000  Uiso   1.00
H1217  H     0.62340   0.97009   0.61706   0.00000  Uiso   1.00
H1218  H     0.65596   0.98497   0.65750   0.00000  Uiso   1.00
H1219  H     0.67460   0.94643   0.62298   0.00000  Uiso   1.00
H1220  H     0.73070   0.59969   0.90655   0.00000  Uiso   1.00
H1221  H     0.79598   0.62239   0.88317   0.00000  Uiso   1.00
H1222  H     0.77867   0.59100   0.84284   0.00000  Uiso   1.00
H1223  H     0.81404   0.56881   0.87847   0.00000  Uiso   1.00
H1224  H     0.69470   0.91410   0.09226   0.00000  Uiso   1.00
H1225  H     0.74753   0.87065   0.11796   0.00000  Uiso   1.00
H1226  H     0.73828   0.90575   0.15803   0.00000  Uiso   1.00
H1227  H     0.54698   0.82897   0.37643   0.00000  Uiso   1.00
H1228  H     0.78179   0.91523   0.12542   0.00000  Uiso   1.00
H1229  H     0.92949   0.67615   0.90672   0.00000  Uiso   1.00
H1230  H     0.87417   0.71875   0.88350   0.00000  Uiso   1.00
H1231  H     0.90939   0.71836   0.84269   0.00000  Uiso   1.00
H1232  H     0.90977   0.76231   0.87596   0.00000  Uiso   1.00
H1233  H     0.60120   0.75400   0.09139   0.00000  Uiso   1.00
H1234  H     0.61084   0.82155   0.11512   0.00000  Uiso   1.00
H1235  H     0.58487   0.79847   0.15615   0.00000  Uiso   1.00
H1236  H     0.55488   0.82849   0.12113   0.00000  Uiso   1.00
H1237  H     0.76930   0.90031   0.90653   0.00000  Uiso   1.00
H1238  H     0.96770   0.65346   0.59327   0.00000  Uiso   1.00
H1239  H     0.70401   0.87761   0.88318   0.00000  Uiso   1.00
H1240  H     0.72131   0.90900   0.84284   0.00000  Uiso   1.00
H1241  H     0.68595   0.93119   0.87849   0.00000  Uiso   1.00
H1242  H     0.80531   0.58589   0.09227   0.00000  Uiso   1.00
H1243  H     0.75248   0.62935   0.11796   0.00000  Uiso   1.00
H1244  H     0.76172   0.59425   0.15803   0.00000  Uiso   1.00
H1245  H     0.71821   0.58477   0.12541   0.00000  Uiso   1.00
H1246  H     0.57051   0.82386   0.90673   0.00000  Uiso   1.00
H1247  H     0.62583   0.78126   0.88348   0.00000  Uiso   1.00
H1248  H     0.59060   0.78167   0.84268   0.00000  Uiso   1.00
H1249  H     0.52995   0.62341   0.61705   0.00000  Uiso   1.00
H1250  H     0.59022   0.73770   0.87594   0.00000  Uiso   1.00
H1251  H     0.89880   0.74598   0.09138   0.00000  Uiso   1.00
H1252  H     0.88918   0.67842   0.11512   0.00000  Uiso   1.00
H1253  H     0.91513   0.70152   0.15615   0.00000  Uiso   1.00
H1254  H     0.94514   0.67150   0.12113   0.00000  Uiso   1.00
H1255  H     0.93359   0.64396   0.45079   0.00000  Uiso   1.00
H1256  H     0.94665   0.61450   0.49461   0.00000  Uiso   1.00
H1257  H     0.95240   0.59082   0.44783   0.00000  Uiso   1.00
H1258  H     0.92512   0.85038   0.54921   0.00000  Uiso   1.00
H1259  H     0.93578   0.88065   0.50531   0.00000  Uiso   1.00
H1260  H     0.51507   0.65595   0.65749   0.00000  Uiso   1.00
H1261  H     0.93964   0.90487   0.55202   0.00000  Uiso   1.00
H1262  H     0.85593   0.93352   0.45079   0.00000  Uiso   1.00
H1263  H     0.88538   0.94658   0.49462   0.00000  Uiso   1.00
H1264  H     0.90908   0.95232   0.44785   0.00000  Uiso   1.00
H1265  H     0.64954   0.92515   0.54923   0.00000  Uiso   1.00
H1266  H     0.61930   0.93582   0.50531   0.00000  Uiso   1.00
H1267  H     0.59508   0.93969   0.55202   0.00000  Uiso   1.00
H1268  H     0.56640   0.85605   0.45078   0.00000  Uiso   1.00
H1269  H     0.55335   0.88549   0.49461   0.00000  Uiso   1.00
H1270  H     0.54760   0.90919   0.44784   0.00000  Uiso   1.00
H1271  H     0.55359   0.67465   0.62297   0.00000  Uiso   1.00
H1272  H     0.57488   0.64962   0.54921   0.00000  Uiso   1.00
H1273  H     0.56421   0.61935   0.50531   0.00000  Uiso   1.00
H1274  H     0.56035   0.59513   0.55202   0.00000  Uiso   1.00
H1275  H     0.64407   0.56648   0.45079   0.00000  Uiso   1.00
H1276  H     0.61462   0.55343   0.49462   0.00000  Uiso   1.00
H1277  H     0.59092   0.54768   0.44785   0.00000  Uiso   1.00
H1278  H     0.85046   0.57485   0.54923   0.00000  Uiso   1.00
H1279  H     0.88069   0.56419   0.50531   0.00000  Uiso   1.00
H1280  H     0.90492   0.56032   0.55201   0.00000  Uiso   1.00
H1281  H     0.66203   0.90959   0.95225   0.00000  Uiso   1.00
H1282  H     0.65632   0.95996   0.40674   0.00000  Uiso   1.00
H1283  H     0.66989   0.87557   0.99429   0.00000  Uiso   1.00
H1284  H     0.67044   0.85418   0.94634   0.00000  Uiso   1.00
H1285  H     0.70051   0.61304   0.05140   0.00000  Uiso   1.00
H1286  H     0.71562   0.64093   0.00723   0.00000  Uiso   1.00
H1287  H     0.72605   0.66334   0.05388   0.00000  Uiso   1.00
H1288  H     0.62398   0.73138   0.95123   0.00000  Uiso   1.00
H1289  H     0.64596   0.75551   0.99482   0.00000  Uiso   1.00
H1290  H     0.66499   0.77003   0.94786   0.00000  Uiso   1.00
H1291  H     0.93866   0.64252   0.05101   0.00000  Uiso   1.00
H1292  H     0.90792   0.63872   0.00650   0.00000  Uiso   1.00
N1293  N     0.98360   0.82472   0.39609   0.00000  Uiso   1.00
N1294  N     0.72068   0.92918   0.10360   0.00000  Uiso   1.00
N1295  N     0.93756   0.70550   0.89634   0.00000  Uiso   1.00
N1296  N     0.57467   0.76741   0.10338   0.00000  Uiso   1.00
N1297  N     0.74974   0.92354   0.89602   0.00000  Uiso   1.00
N1298  N     0.77933   0.57082   0.10360   0.00000  Uiso   1.00
N1299  N     0.56244   0.79451   0.89634   0.00000  Uiso   1.00
N1300  N     0.92533   0.73257   0.10338   0.00000  Uiso   1.00
N1301  N     0.98985   0.67418   0.60392   0.00000  Uiso   1.00
N1302  N     0.67527   0.98364   0.39609   0.00000  Uiso   1.00
N1303  N     0.82579   0.98982   0.60392   0.00000  Uiso   1.00
N1304  N     0.51641   0.67529   0.39609   0.00000  Uiso   1.00
N1305  N     0.51015   0.82582   0.60392   0.00000  Uiso   1.00
N1306  N     0.82473   0.51636   0.39609   0.00000  Uiso   1.00
N1307  N     0.67421   0.51019   0.60392   0.00000  Uiso   1.00
N1308  N     0.75026   0.57646   0.89602   0.00000  Uiso   1.00
O1309  O     0.75000   0.50000   0.25000   0.00000  Uiso   1.00
O1310  O     0.75000   0.96539   0.66251   0.00000  Uiso   1.00
O1311  O     0.96539   0.75000   0.33749   0.00000  Uiso   1.00
O1312  O     0.53462   0.75000   0.66251   0.00000  Uiso   1.00
O1313  O     0.50000   0.71539   0.83749   0.00000  Uiso   1.00
O1314  O     0.50000   0.78462   0.16251   0.00000  Uiso   1.00
O1315  O     0.78462   0.50000   0.83749   0.00000  Uiso   1.00
O1316  O     0.71539   0.50000   0.16251   0.00000  Uiso   1.00
O1317  O     0.50000   0.78462   0.83749   0.00000  Uiso   1.00
O1318  O     0.50000   0.71539   0.16251   0.00000  Uiso   1.00
O1319  O     0.71539   0.50000   0.83749   0.00000  Uiso   1.00
O1320  O     0.75000   0.50000   0.75000   0.00000  Uiso   1.00
O1321  O     0.78462   0.50000   0.16251   0.00000  Uiso   1.00
O1322  O     0.70127   0.58332   0.27298   0.00000  Uiso   1.00
O1323  O     0.79874   0.91668   0.72702   0.00000  Uiso   1.00
O1324  O     0.91668   0.70127   0.27298   0.00000  Uiso   1.00
O1325  O     0.58332   0.79874   0.72702   0.00000  Uiso   1.00
O1326  O     0.79874   0.91668   0.27298   0.00000  Uiso   1.00
O1327  O     0.70127   0.58332   0.72702   0.00000  Uiso   1.00
O1328  O     0.58332   0.79874   0.27298   0.00000  Uiso   1.00
O1329  O     0.91668   0.70127   0.72702   0.00000  Uiso   1.00
O1330  O     0.70127   0.91668   0.72702   0.00000  Uiso   1.00
O1331  O     0.50000   0.75000   0.25000   0.00000  Uiso   1.00
O1332  O     0.79874   0.58332   0.27298   0.00000  Uiso   1.00
O1333  O     0.91668   0.79874   0.72702   0.00000  Uiso   1.00
O1334  O     0.58332   0.70127   0.27298   0.00000  Uiso   1.00
O1335  O     0.79874   0.58332   0.72702   0.00000  Uiso   1.00
O1336  O     0.70127   0.91668   0.27298   0.00000  Uiso   1.00
O1337  O     0.58332   0.70127   0.72702   0.00000  Uiso   1.00
O1338  O     0.91668   0.79874   0.27298   0.00000  Uiso   1.00
O1339  O     0.95127   0.83332   0.77298   0.00000  Uiso   1.00
O1340  O     0.54874   0.66668   0.22702   0.00000  Uiso   1.00
O1341  O     0.66668   0.95127   0.77298   0.00000  Uiso   1.00
O1342  O     0.50000   0.75000   0.75000   0.00000  Uiso   1.00
O1343  O     0.83332   0.54874   0.22702   0.00000  Uiso   1.00
O1344  O     0.54874   0.66668   0.77298   0.00000  Uiso   1.00
O1345  O     0.95127   0.83332   0.22702   0.00000  Uiso   1.00
O1346  O     0.83332   0.54874   0.77298   0.00000  Uiso   1.00
O1347  O     0.66668   0.95127   0.22702   0.00000  Uiso   1.00
O1348  O     0.95127   0.66668   0.22702   0.00000  Uiso   1.00
O1349  O     0.54874   0.83332   0.77298   0.00000  Uiso   1.00
O1350  O     0.66668   0.54874   0.22702   0.00000  Uiso   1.00
O1351  O     0.83332   0.95127   0.77298   0.00000  Uiso   1.00
O1352  O     0.54874   0.83332   0.22702   0.00000  Uiso   1.00
O1353  O     0.75000   0.96539   0.33749   0.00000  Uiso   1.00
O1354  O     0.95127   0.66668   0.77298   0.00000  Uiso   1.00
O1355  O     0.83332   0.95127   0.22702   0.00000  Uiso   1.00
O1356  O     0.66668   0.54874   0.77298   0.00000  Uiso   1.00
O1357  O     0.99779   0.63462   0.46108   0.00000  Uiso   1.00
O1358  O     0.98837   0.86483   0.53890   0.00000  Uiso   1.00
O1359  O     0.86535   0.99774   0.46108   0.00000  Uiso   1.00
O1360  O     0.63519   0.98842   0.53890   0.00000  Uiso   1.00
O1361  O     0.50221   0.86538   0.46108   0.00000  Uiso   1.00
O1362  O     0.51163   0.63518   0.53890   0.00000  Uiso   1.00
O1363  O     0.63465   0.50227   0.46108   0.00000  Uiso   1.00
O1364  O     0.75000   0.53462   0.66251   0.00000  Uiso   1.00
O1365  O     0.86481   0.51159   0.53890   0.00000  Uiso   1.00
O1366  O     0.72346   0.88761   0.96094   0.00000  Uiso   1.00
O1367  O     0.76497   0.61429   0.03910   0.00000  Uiso   1.00
O1368  O     0.60674   0.79399   0.96129   0.00000  Uiso   1.00
O1369  O     0.89939   0.69374   0.03905   0.00000  Uiso   1.00
O1370  O     0.77660   0.61237   0.96094   0.00000  Uiso   1.00
O1371  O     0.73508   0.88570   0.03910   0.00000  Uiso   1.00
O1372  O     0.89327   0.70599   0.96129   0.00000  Uiso   1.00
O1373  O     0.60063   0.80623   0.03905   0.00000  Uiso   1.00
O1374  O     0.53462   0.75000   0.33749   0.00000  Uiso   1.00
O1375  O     0.96539   0.75000   0.66251   0.00000  Uiso   1.00
O1376  O     0.75000   0.53462   0.33749   0.00000  Uiso   1.00
Zn1377 Zn    0.70053   0.50000   0.21730   0.00000  Uiso   1.00
Zn1378 Zn    0.54948   0.75000   0.28270   0.00000  Uiso   1.00
Zn1379 Zn    0.75000   0.95053   0.71730   0.00000  Uiso   1.00
Zn1380 Zn    0.75000   0.54948   0.28270   0.00000  Uiso   1.00
Zn1381 Zn    0.54948   0.75000   0.71730   0.00000  Uiso   1.00
Zn1382 Zn    0.95053   0.75000   0.28270   0.00000  Uiso   1.00
Zn1383 Zn    0.75000   0.54948   0.71730   0.00000  Uiso   1.00
Zn1384 Zn    0.75000   0.95053   0.28270   0.00000  Uiso   1.00
Zn1385 Zn    0.79948   0.50000   0.78270   0.00000  Uiso   1.00
Zn1386 Zn    0.50000   0.70053   0.21730   0.00000  Uiso   1.00
Zn1387 Zn    0.50000   0.79948   0.78270   0.00000  Uiso   1.00
Zn1388 Zn    0.79948   0.50000   0.21730   0.00000  Uiso   1.00
Zn1389 Zn    0.70053   0.50000   0.78270   0.00000  Uiso   1.00
Zn1390 Zn    0.50000   0.79948   0.21730   0.00000  Uiso   1.00
Zn1391 Zn    0.50000   0.70053   0.78270   0.00000  Uiso   1.00
Zn1392 Zn    0.95053   0.75000   0.71730   0.00000  Uiso   1.00
loop_
_geom_bond_atom_site_label_1
_geom_bond_atom_site_label_2
_geom_bond_distance
_geom_bond_site_symmetry_2
_ccdc_geom_bond_type
C1     O1005   1.268   1_545 A
C1     C92     1.456   .     S
C1     O332    1.268   .     S
C2     O307    1.276   .     A
C2     C68     1.422   .     S
C2     O279    1.276   .     A
C3     O325    1.383   .     S
C3     C111    1.412   .     A
C3     C6      1.399   1_554 S
C4     O326    1.384   .     S
C4     C112    1.414   .     A
C4     C135    1.400   1_556 S
C5     C113    1.413   .     A
C5     O327    1.384   .     S
C5     C134    1.400   1_554 S
C6     O328    1.383   .     S
C6     C114    1.414   .     A
C6     C3      1.399   1_556 S
C7     C116    1.412   .     A
C7     O329    1.383   .     S
C7     C136    1.399   1_554 S
C8     H183    1.112   .     S
C8     H172    1.110   .     S
C8     H161    1.110   .     S
C8     N597    1.450   1_455 S
C9     H216    1.110   .     S
C9     H227    1.112   .     S
C9     H205    1.110   .     S
C9     N605    1.450   1_455 S
C10    H138    1.110   .     S
C10    H149    1.110   .     S
C10    H153    1.112   .     S
C10    N954    1.450   1_545 S
C11    H157    1.112   .     S
C11    H155    1.110   .     S
C11    H156    1.110   .     S
C11    N955    1.450   1_545 S
C12    H159    1.110   .     S
C12    H162    1.112   .     S
C12    H160    1.110   .     S
C12    N608    1.450   .     S
C13    O280    1.276   .     A
C13    O304    1.276   .     A
C13    C67     1.422   .     S
C14    H166    1.112   .     S
C14    H164    1.110   .     S
C14    H165    1.110   .     S
C14    N609    1.450   .     S
C15    H170    1.112   .     S
C15    H169    1.110   .     S
C15    H168    1.110   .     S
C15    N958    1.450   .     S
C16    H173    1.110   .     S
C16    H175    1.112   .     S
C16    H174    1.110   .     S
C16    N959    1.450   .     S
C17    H177    1.110   .     S
C17    H179    1.112   .     S
C17    N264    1.450   .     S
C17    H178    1.110   .     S
C18    H181    1.110   .     S
C18    H184    1.112   .     S
C18    H182    1.110   .     S
C18    N250    1.450   .     S
C19    H186    1.109   .     S
C19    N251    1.450   .     S
C19    H187    1.110   .     S
C19    H188    1.112   .     S
C20    H191    1.109   .     S
C20    N252    1.450   .     S
C20    H192    1.112   .     S
C20    H190    1.110   .     S
C21    H197    1.112   .     S
C21    H196    1.110   .     S
C21    H195    1.110   .     S
C21    N253    1.450   .     S
C22    H199    1.110   .     S
C22    H201    1.112   .     S
C22    H200    1.110   .     S
C22    N254    1.450   .     S
C23    H204    1.110   .     S
C23    N255    1.450   .     S
C23    H203    1.109   .     S
C23    H206    1.112   .     S
C24    O281    1.276   .     A
C24    C66     1.422   .     S
C24    O305    1.276   .     A
C25    N256    1.450   .     S
C25    H208    1.110   .     S
C25    H210    1.112   .     S
C25    H209    1.109   .     S
C26    H212    1.112   .     S
C26    H213    1.109   .     S
C26    O313    1.412   .     S
C26    H211    1.114   .     S
C27    O314    1.412   .     S
C27    H214    1.114   .     S
C27    H215    1.112   .     S
C27    H217    1.109   .     S
C28    H220    1.109   .     S
C28    O315    1.412   .     S
C28    H218    1.114   .     S
C28    H219    1.112   .     S
C29    O316    1.412   .     S
C29    H222    1.112   .     S
C29    H221    1.114   .     S
C29    H223    1.109   .     S
C30    H226    1.109   .     S
C30    H225    1.112   .     S
C30    O317    1.412   .     S
C30    H224    1.114   .     S
C31    H229    1.112   .     S
C31    H228    1.114   .     S
C31    O318    1.412   .     S
C31    H230    1.109   .     S
C32    H232    1.112   .     S
C32    O319    1.412   .     S
C32    H233    1.109   .     S
C32    H231    1.114   .     S
C33    O321    1.412   .     S
C33    H235    1.112   .     S
C33    H236    1.109   .     S
C33    H234    1.114   .     S
C34    H240    1.109   .     S
C34    O322    1.411   .     S
C34    H239    1.111   .     S
C34    H237    1.114   .     S
C35    O282    1.276   .     A
C35    O311    1.276   .     A
C35    C65     1.422   .     S
C36    H243    1.109   .     S
C36    O323    1.411   .     S
C36    H241    1.114   .     S
C36    H242    1.112   .     S
C37    O324    1.412   .     S
C37    H245    1.112   .     S
C37    H244    1.114   .     S
C37    H246    1.109   .     S
C38    H248    1.112   .     S
C38    H139    1.109   .     S
C38    O325    1.412   .     S
C38    H247    1.113   .     S
C39    H141    1.111   .     S
C39    H140    1.114   .     S
C39    O326    1.411   .     S
C39    H142    1.109   .     S
C40    H145    1.109   .     S
C40    H143    1.114   .     S
C40    O327    1.411   .     S
C40    H144    1.112   .     S
C41    H146    1.114   .     S
C41    H148    1.109   .     S
C41    O328    1.412   .     S
C41    H147    1.112   .     S
C42    H151    1.112   .     S
C42    O329    1.412   .     S
C42    H152    1.109   .     S
C42    H150    1.113   .     S
C43    O283    1.276   .     A
C43    O312    1.276   .     A
C43    C64     1.422   .     S
C44    C72     1.422   .     S
C44    O284    1.276   .     A
C44    O308    1.276   .     A
C45    O285    1.276   .     A
C45    C70     1.422   .     S
C45    O310    1.276   .     A
C46    O286    1.276   .     A
C46    O297    1.276   .     A
C46    C61     1.422   .     S
C47    O288    1.276   .     A
C47    C59     1.422   .     S
C47    O299    1.276   .     A
C48    O289    1.275   .     A
C48    C58     1.422   .     S
C48    O295    1.276   .     A
C49    C94     1.456   .     S
C49    O320    1.268   .     A
C49    O962    1.268   1_545 S
C50    C57     1.422   .     S
C50    O290    1.276   .     A
C50    O296    1.276   .     A
C51    O291    1.276   .     A
C51    C56     1.422   .     S
C51    O302    1.276   .     A
C52    O303    1.276   .     A
C52    C55     1.422   .     S
C52    O292    1.276   .     A
C53    C63     1.422   .     S
C53    O300    1.276   .     A
C53    O293    1.275   .     A
C54    O294    1.276   .     A
C54    O301    1.276   .     A
C54    C62     1.422   .     S
C55    C72     1.198   .     T
C56    C70     1.198   .     T
C57    C69     1.198   .     T
C58    C68     1.198   .     T
C59    C67     1.198   .     T
C60    O615    1.268   1_455 A
C60    C90     1.457   .     S
C60    O330    1.268   .     S
C61    C66     1.198   .     T
C62    C65     1.198   .     T
C63    C64     1.198   .     T
C69    C126    1.422   .     S
C71    O268    1.268   .     A
C71    C91     1.456   .     S
C71    O679    1.268   1_455 S
C73    C103    1.416   .     A
C73    C438    1.401   .     A
C73    N249    1.429   .     S
C74    N257    1.429   .     S
C74    C439    1.401   .     S
C74    C453    1.416   .     S
C75    N258    1.429   .     S
C75    C788    1.401   .     A
C75    C106    1.416   .     A
C76    N259    1.429   .     S
C76    C790    1.401   .     S
C76    C803    1.416   .     S
C77    N260    1.429   .     S
C77    C99     1.416   .     A
C77    C90     1.401   .     S
C78    N261    1.429   .     S
C78    C91     1.401   .     A
C78    C448    1.416   1_455 S
C79    N262    1.429   .     S
C79    C101    1.416   .     A
C79    C92     1.401   .     S
C80    N263    1.429   .     S
C80    C94     1.401   .     A
C80    C798    1.416   1_545 S
C81    C112    1.416   .     A
C81    N264    1.429   .     S
C81    C95     1.401   .     S
C82    C97     1.459   .     S
C82    O269    1.269   .     S
C82    O273    1.269   .     S
C83    C792    1.402   .     A
C83    C113    1.416   .     A
C83    N250    1.429   .     S
C84    C114    1.415   .     A
C84    N251    1.429   .     S
C84    C445    1.403   .     S
C85    C116    1.415   .     A
C85    N252    1.430   .     S
C85    C98     1.403   .     S
C86    N253    1.429   .     S
C86    C108    1.416   .     A
C86    C791    1.401   .     A
C87    N254    1.429   .     S
C87    C109    1.416   .     A
C87    C96     1.402   .     S
C88    C97     1.403   .     A
C88    N255    1.429   .     S
C88    C110    1.415   .     A
C89    N256    1.430   .     S
C89    C446    1.403   .     A
C89    C111    1.415   .     A
C90    C421    1.401   1_455 A
C91    C422    1.401   1_455 S
C92    C771    1.401   1_545 A
C93    O270    1.268   .     A
C93    O274    1.268   .     A
C93    C98     1.455   .     S
C94    C772    1.401   1_545 S
C95    C782    1.401   1_545 A
C95    C104    1.456   .     S
C96    C779    1.402   1_545 A
C96    C115    1.457   .     S
C97    C432    1.403   1_455 S
C98    C437    1.403   1_455 A
C99    C125    1.413   .     A
C99    C117    1.424   .     S
C100   C127    1.414   .     A
C100   C466    1.424   .     A
C100   C426    1.416   .     S
C101   C128    1.413   .     A
C101   C119    1.424   .     A
C102   C129    1.414   .     A
C102   C776    1.416   .     S
C102   C816    1.424   .     S
C103   C465    1.424   .     A
C103   C130    1.413   .     A
C104   O271    1.268   .     S
C104   O275    1.268   .     S
C105   C131    1.414   .     A
C105   C422    1.416   1_455 S
C105   C118    1.424   .     S
C106   C132    1.413   .     A
C106   C815    1.424   .     S
C107   C120    1.424   .     A
C107   C133    1.414   .     A
C107   C772    1.416   1_545 S
C108   C817    1.424   .     A
C108   C134    1.414   .     A
C109   C135    1.413   .     A
C109   C122    1.422   .     S
C110   C136    1.414   .     A
C110   C123    1.423   .     S
C111   C472    1.422   .     S
C112   C121    1.424   .     S
C113   C818    1.422   .     A
C114   C471    1.423   .     A
C115   O272    1.268   .     S
C115   O277    1.269   .     S
C116   C124    1.422   .     A
C117   C451    1.424   1_455 A
C117   C118    1.421   .     A
C118   C448    1.424   1_455 A
C119   C120    1.421   .     A
C119   C802    1.424   1_545 S
C120   C798    1.424   1_545 S
C121   C804    1.424   1_545 A
C121   C122    1.421   1_556 S
C122   C809    1.422   1_545 A
C122   C121    1.421   1_554 S
C123   C462    1.423   1_455 A
C123   C124    1.420   1_556 S
C124   C459    1.422   1_455 S
C124   C123    1.420   1_554 S
C125   C131    1.400   .     A
C125   O661    1.384   1_455 S
C126   O278    1.276   .     A
C126   O306    1.276   .     A
C127   C130    1.400   .     A
C127   O314    1.384   .     S
C128   C133    1.400   .     A
C128   O1011   1.384   1_545 S
C129   O316    1.384   .     S
C129   C132    1.400   .     A
C130   O665    1.384   .     S
C131   O318    1.384   .     S
C132   O1015   1.384   .     S
C133   O321    1.384   .     S
C134   O322    1.384   .     S
C134   C5      1.400   1_556 S
C135   O323    1.384   .     S
C135   C4      1.400   1_554 S
C136   O324    1.383   .     S
C136   C7      1.399   1_556 S
H137   N249    1.031   .     S
H154   N259    1.031   .     S
H158   N260    1.031   .     S
H163   N261    1.031   .     S
H167   N262    1.031   .     S
H171   N263    1.031   .     S
H176   N264    1.031   .     S
H180   N250    1.031   .     S
H185   N251    1.031   .     S
H189   N252    1.031   .     S
H193   N253    1.031   .     S
H194   N257    1.031   .     S
H198   N254    1.031   .     S
H202   N255    1.031   .     S
H207   N256    1.031   .     S
H238   N258    1.031   .     S
N249   C356    1.450   .     S
N257   C357    1.450   .     S
N258   C706    1.450   .     S
N259   C707    1.450   .     S
N260   C360    1.450   1_455 S
N261   C362    1.450   1_455 S
N262   C711    1.450   1_545 S
N263   C712    1.450   1_545 S
O265   Zn336   1.934   .     S
O265   Zn344   1.935   .     S
O265   Zn333   1.935   .     S
O265   Zn1036  1.934   1_545 S
O266   Zn335   1.948   .     S
O266   C745    1.268   .     S
O267   C408    1.268   .     A
O267   Zn338   1.948   .     S
O268   Zn337   1.948   .     S
O269   Zn347   1.948   .     S
O270   Zn346   1.948   .     S
O271   Zn341   1.948   .     S
O272   Zn333   1.948   .     S
O273   Zn343   1.948   .     S
O274   Zn342   1.948   .     S
O275   Zn345   1.948   .     S
O276   Zn339   1.934   .     S
O276   Zn341   1.935   .     S
O276   Zn345   1.935   .     S
O276   Zn1031  1.934   1_545 S
O277   Zn344   1.948   .     S
O278   Zn336   1.915   .     S
O279   Zn335   1.915   .     S
O280   Zn338   1.914   .     S
O281   Zn337   1.914   .     S
O282   Zn340   1.915   .     S
O283   Zn339   1.915   .     S
O284   Zn334   1.914   .     S
O285   Zn348   1.914   .     S
O286   Zn335   1.914   .     S
O287   Zn334   1.935   .     S
O287   Zn686   1.935   1_455 S
O287   Zn342   1.934   .     S
O287   Zn346   1.934   .     S
O288   Zn336   1.914   .     S
O289   Zn348   1.915   .     S
O290   Zn334   1.915   .     S
O291   Zn339   1.914   .     S
O292   Zn340   1.914   .     S
O293   Zn337   1.915   .     S
O294   Zn338   1.915   .     S
O295   Zn691   1.915   .     S
O296   Zn342   1.915   .     S
O297   Zn1041  1.914   .     S
O298   Zn337   1.935   .     S
O298   Zn343   1.934   .     S
O298   Zn347   1.934   .     S
O298   Zn696   1.935   1_455 S
O299   Zn344   1.914   .     S
O300   Zn347   1.915   .     S
O301   Zn694   1.915   .     S
O302   Zn341   1.914   .     S
O303   Zn1029  1.914   .     S
O304   Zn690   1.914   .     S
O305   Zn343   1.914   .     S
O306   Zn333   1.915   .     S
O307   Zn1037  1.915   .     S
O308   Zn346   1.914   .     S
O309   C697    1.268   .     A
O309   Zn340   1.948   .     S
O310   Zn695   1.914   .     S
O311   Zn1040  1.915   .     S
O312   Zn345   1.915   .     S
O313   C473    1.384   .     S
O315   C824    1.384   .     S
O317   C478    1.384   1_455 S
O319   C828    1.384   1_545 S
O320   Zn339   1.948   .     S
O330   Zn334   1.948   .     S
O331   Zn348   1.948   .     S
O331   C419    1.268   .     S
O332   Zn336   1.948   .     S
Zn333  O999    1.914   1_545 S
Zn335  O972    1.934   .     S
Zn338  O635    1.935   .     S
Zn340  O961    1.934   .     S
Zn341  O1003   1.915   1_545 S
Zn342  O652    1.914   1_455 S
Zn343  O643    1.915   1_455 S
Zn344  O1007   1.915   1_545 S
Zn345  O993    1.914   1_545 S
Zn346  O649    1.915   1_455 S
Zn347  O658    1.914   1_455 S
Zn348  O646    1.935   .     S
C349   O1353   1.268   1_545 A
C349   C440    1.456   .     S
C349   O680    1.268   .     S
C350   O655    1.276   .     A
C350   C416    1.422   .     S
C350   O627    1.276   .     A
C351   O673    1.383   .     S
C351   C459    1.412   .     A
C351   C354    1.399   1_554 S
C352   O674    1.384   .     S
C352   C460    1.414   .     A
C352   C483    1.400   1_556 S
C353   C461    1.413   .     A
C353   O675    1.384   .     S
C353   C482    1.400   1_554 S
C354   O676    1.383   .     S
C354   C462    1.414   .     A
C354   C351    1.399   1_556 S
C355   C464    1.412   .     A
C355   O677    1.383   .     S
C355   C484    1.399   1_554 S
C356   H531    1.112   .     S
C356   H520    1.110   .     S
C356   H509    1.110   .     S
C357   H564    1.110   .     S
C357   H575    1.112   .     S
C357   H553    1.110   .     S
C358   H486    1.110   .     S
C358   H497    1.110   .     S
C358   H501    1.112   .     S
C358   N1302   1.450   1_545 S
C359   H505    1.112   .     S
C359   H503    1.110   .     S
C359   H504    1.110   .     S
C359   N1303   1.450   1_545 S
C360   H507    1.110   .     S
C360   H510    1.112   .     S
C360   H508    1.110   .     S
C360   N260    1.450   1_655 S
C361   O628    1.276   .     A
C361   O652    1.276   .     A
C361   C415    1.422   .     S
C362   H514    1.112   .     S
C362   H512    1.110   .     S
C362   H513    1.110   .     S
C362   N261    1.450   1_655 S
C363   H518    1.112   .     S
C363   H517    1.110   .     S
C363   H516    1.110   .     S
C363   N1306   1.450   .     S
C364   H521    1.110   .     S
C364   H523    1.112   .     S
C364   H522    1.110   .     S
C364   N1307   1.450   .     S
C365   H525    1.110   .     S
C365   H527    1.112   .     S
C365   N612    1.450   .     S
C365   H526    1.110   .     S
C366   H529    1.110   .     S
C366   H532    1.112   .     S
C366   H530    1.110   .     S
C366   N598    1.450   .     S
C367   H534    1.109   .     S
C367   N599    1.450   .     S
C367   H535    1.110   .     S
C367   H536    1.112   .     S
C368   H539    1.109   .     S
C368   N600    1.450   .     S
C368   H540    1.112   .     S
C368   H538    1.110   .     S
C369   H545    1.112   .     S
C369   H544    1.110   .     S
C369   H543    1.110   .     S
C369   N601    1.450   .     S
C370   H547    1.110   .     S
C370   H549    1.112   .     S
C370   H548    1.110   .     S
C370   N602    1.450   .     S
C371   H552    1.110   .     S
C371   N603    1.450   .     S
C371   H551    1.109   .     S
C371   H554    1.112   .     S
C372   O629    1.276   .     A
C372   C414    1.422   .     S
C372   O653    1.276   .     A
C373   N604    1.450   .     S
C373   H556    1.110   .     S
C373   H558    1.112   .     S
C373   H557    1.109   .     S
C374   H560    1.112   .     S
C374   H561    1.109   .     S
C374   O661    1.412   .     S
C374   H559    1.114   .     S
C375   O662    1.412   .     S
C375   H562    1.114   .     S
C375   H563    1.112   .     S
C375   H565    1.109   .     S
C376   H568    1.109   .     S
C376   O663    1.412   .     S
C376   H566    1.114   .     S
C376   H567    1.112   .     S
C377   O664    1.412   .     S
C377   H570    1.112   .     S
C377   H569    1.114   .     S
C377   H571    1.109   .     S
C378   H574    1.109   .     S
C378   H573    1.112   .     S
C378   O665    1.412   .     S
C378   H572    1.114   .     S
C379   H577    1.112   .     S
C379   H576    1.114   .     S
C379   O666    1.412   .     S
C379   H578    1.109   .     S
C380   H580    1.112   .     S
C380   O667    1.412   .     S
C380   H581    1.109   .     S
C380   H579    1.114   .     S
C381   O669    1.412   .     S
C381   H583    1.112   .     S
C381   H584    1.109   .     S
C381   H582    1.114   .     S
C382   H588    1.109   .     S
C382   O670    1.411   .     S
C382   H587    1.111   .     S
C382   H585    1.114   .     S
C383   O630    1.276   .     A
C383   O659    1.276   .     A
C383   C413    1.422   .     S
C384   H591    1.109   .     S
C384   O671    1.411   .     S
C384   H589    1.114   .     S
C384   H590    1.112   .     S
C385   O672    1.412   .     S
C385   H593    1.112   .     S
C385   H592    1.114   .     S
C385   H594    1.109   .     S
C386   H596    1.112   .     S
C386   H487    1.109   .     S
C386   O673    1.412   .     S
C386   H595    1.113   .     S
C387   H489    1.111   .     S
C387   H488    1.114   .     S
C387   O674    1.411   .     S
C387   H490    1.109   .     S
C388   H493    1.109   .     S
C388   H491    1.114   .     S
C388   O675    1.411   .     S
C388   H492    1.112   .     S
C389   H494    1.114   .     S
C389   H496    1.109   .     S
C389   O676    1.412   .     S
C389   H495    1.112   .     S
C390   H499    1.112   .     S
C390   O677    1.412   .     S
C390   H500    1.109   .     S
C390   H498    1.113   .     S
C391   O631    1.276   .     A
C391   O660    1.276   .     A
C391   C412    1.422   .     S
C392   C420    1.422   .     S
C392   O632    1.276   .     A
C392   O656    1.276   .     A
C393   O633    1.276   .     A
C393   C418    1.422   .     S
C393   O658    1.276   .     A
C394   O634    1.276   .     A
C394   O645    1.276   .     A
C394   C409    1.422   .     S
C395   O636    1.276   .     A
C395   C407    1.422   .     S
C395   O647    1.276   .     A
C396   O637    1.275   .     A
C396   C406    1.422   .     S
C396   O643    1.276   .     A
C397   C442    1.456   .     S
C397   O668    1.268   .     A
C397   O1310   1.268   1_545 S
C398   C405    1.422   .     S
C398   O638    1.276   .     A
C398   O644    1.276   .     A
C399   O639    1.276   .     A
C399   C404    1.422   .     S
C399   O650    1.276   .     A
C400   O651    1.276   .     A
C400   C403    1.422   .     S
C400   O640    1.276   .     A
C401   C411    1.422   .     S
C401   O648    1.276   .     A
C401   O641    1.275   .     A
C402   O642    1.276   .     A
C402   O649    1.276   .     A
C402   C410    1.422   .     S
C403   C420    1.198   .     T
C404   C418    1.198   .     T
C405   C417    1.198   .     T
C406   C416    1.198   .     T
C407   C415    1.198   .     T
C408   C438    1.457   .     S
C408   O678    1.268   .     S
C409   C414    1.198   .     T
C410   C413    1.198   .     T
C411   C412    1.198   .     T
C417   C474    1.422   .     S
C419   O616    1.268   .     A
C419   C439    1.456   .     S
C421   C451    1.416   .     A
C421   C90     1.401   1_655 A
C421   N597    1.429   .     S
C422   N605    1.429   .     S
C422   C91     1.401   1_655 S
C422   C105    1.416   1_655 S
C423   N606    1.429   .     S
C423   C1136   1.401   .     A
C423   C454    1.416   .     A
C424   N607    1.429   .     S
C424   C1138   1.401   .     S
C424   C1151   1.416   .     S
C425   N608    1.429   .     S
C425   C447    1.416   .     A
C425   C438    1.401   .     S
C426   N609    1.429   .     S
C426   C439    1.401   .     A
C427   N610    1.429   .     S
C427   C449    1.416   .     A
C427   C440    1.401   .     S
C428   N611    1.429   .     S
C428   C442    1.401   .     A
C428   C1146   1.416   1_545 S
C429   C460    1.416   .     A
C429   N612    1.429   .     S
C429   C443    1.401   .     S
C430   C445    1.459   .     S
C430   O617    1.269   .     S
C430   O621    1.269   .     S
C431   C1140   1.402   .     A
C431   C461    1.416   .     A
C431   N598    1.429   .     S
C432   C462    1.415   .     A
C432   N599    1.429   .     S
C432   C97     1.403   1_655 S
C433   C464    1.415   .     A
C433   N600    1.430   .     S
C433   C446    1.403   .     S
C434   N601    1.429   .     S
C434   C456    1.416   .     A
C434   C1139   1.401   .     A
C435   N602    1.429   .     S
C435   C457    1.416   .     A
C435   C444    1.402   .     S
C436   C445    1.403   .     A
C436   N603    1.429   .     S
C436   C458    1.415   .     A
C437   N604    1.430   .     S
C437   C98     1.403   1_655 A
C437   C459    1.415   .     A
C440   C1119   1.401   1_545 A
C441   O618    1.268   .     A
C441   O622    1.268   .     A
C441   C446    1.455   .     S
C442   C1120   1.401   1_545 S
C443   C1130   1.401   1_545 A
C443   C452    1.456   .     S
C444   C1127   1.402   1_545 A
C444   C463    1.457   .     S
C447   C473    1.413   .     A
C447   C465    1.424   .     S
C448   C475    1.414   .     A
C448   C118    1.424   1_655 A
C448   C78     1.416   1_655 S
C449   C476    1.413   .     A
C449   C467    1.424   .     A
C450   C477    1.414   .     A
C450   C1124   1.416   .     S
C450   C1164   1.424   .     S
C451   C117    1.424   1_655 A
C451   C478    1.413   .     A
C452   O619    1.268   .     S
C452   O623    1.268   .     S
C453   C479    1.414   .     A
C453   C466    1.424   .     S
C454   C480    1.413   .     A
C454   C1163   1.424   .     S
C455   C468    1.424   .     A
C455   C481    1.414   .     A
C455   C1120   1.416   1_545 S
C456   C1165   1.424   .     A
C456   C482    1.414   .     A
C457   C483    1.413   .     A
C457   C470    1.422   .     S
C458   C484    1.414   .     A
C458   C471    1.423   .     S
C459   C124    1.422   1_655 S
C460   C469    1.424   .     S
C461   C1166   1.422   .     A
C462   C123    1.423   1_655 A
C463   O620    1.268   .     S
C463   O625    1.269   .     S
C464   C472    1.422   .     A
C465   C466    1.421   .     A
C467   C468    1.421   .     A
C467   C1150   1.424   1_545 S
C468   C1146   1.424   1_545 S
C469   C1152   1.424   1_545 A
C469   C470    1.421   1_556 S
C470   C1157   1.422   1_545 A
C470   C469    1.421   1_554 S
C471   C472    1.420   1_556 S
C472   C471    1.420   1_554 S
C473   C479    1.400   .     A
C474   O626    1.276   .     A
C474   O654    1.276   .     A
C475   C478    1.400   .     A
C475   O662    1.384   .     S
C476   C481    1.400   .     A
C476   O1359   1.384   1_545 S
C477   O664    1.384   .     S
C477   C480    1.400   .     A
C478   O317    1.384   1_655 S
C479   O666    1.384   .     S
C480   O1363   1.384   .     S
C481   O669    1.384   .     S
C482   O670    1.384   .     S
C482   C353    1.400   1_556 S
C483   O671    1.384   .     S
C483   C352    1.400   1_554 S
C484   O672    1.383   .     S
C484   C355    1.399   1_556 S
H485   N597    1.031   .     S
H502   N607    1.031   .     S
H506   N608    1.031   .     S
H511   N609    1.031   .     S
H515   N610    1.031   .     S
H519   N611    1.031   .     S
H524   N612    1.031   .     S
H528   N598    1.031   .     S
H533   N599    1.031   .     S
H537   N600    1.031   .     S
H541   N601    1.031   .     S
H542   N605    1.031   .     S
H546   N602    1.031   .     S
H550   N603    1.031   .     S
H555   N604    1.031   .     S
H586   N606    1.031   .     S
N597   C8      1.450   1_655 S
N605   C9      1.450   1_655 S
N606   C1054   1.450   .     S
N607   C1055   1.450   .     S
N610   C1059   1.450   1_545 S
N611   C1060   1.450   1_545 S
O613   Zn684   1.934   .     S
O613   Zn692   1.935   .     S
O613   Zn681   1.935   .     S
O613   Zn1384  1.934   1_545 S
O614   Zn683   1.948   .     S
O614   C1093   1.268   .     S
O615   C60     1.268   1_655 A
O615   Zn686   1.948   .     S
O616   Zn685   1.948   .     S
O617   Zn695   1.948   .     S
O618   Zn694   1.948   .     S
O619   Zn689   1.948   .     S
O620   Zn681   1.948   .     S
O621   Zn691   1.948   .     S
O622   Zn690   1.948   .     S
O623   Zn693   1.948   .     S
O624   Zn687   1.934   .     S
O624   Zn689   1.935   .     S
O624   Zn693   1.935   .     S
O624   Zn1379  1.934   1_545 S
O625   Zn692   1.948   .     S
O626   Zn684   1.915   .     S
O627   Zn683   1.915   .     S
O628   Zn686   1.914   .     S
O629   Zn685   1.914   .     S
O630   Zn688   1.915   .     S
O631   Zn687   1.915   .     S
O632   Zn682   1.914   .     S
O633   Zn696   1.914   .     S
O634   Zn683   1.914   .     S
O635   Zn682   1.935   .     S
O635   Zn690   1.934   .     S
O635   Zn694   1.934   .     S
O636   Zn684   1.914   .     S
O637   Zn696   1.915   .     S
O638   Zn682   1.915   .     S
O639   Zn687   1.914   .     S
O640   Zn688   1.914   .     S
O641   Zn685   1.915   .     S
O642   Zn686   1.915   .     S
O643   Zn343   1.915   1_655 S
O644   Zn690   1.915   .     S
O645   Zn1389  1.914   .     S
O646   Zn685   1.935   .     S
O646   Zn691   1.934   .     S
O646   Zn695   1.934   .     S
O647   Zn692   1.914   .     S
O648   Zn695   1.915   .     S
O649   Zn346   1.915   1_655 S
O650   Zn689   1.914   .     S
O651   Zn1377  1.914   .     S
O652   Zn342   1.914   1_655 S
O653   Zn691   1.914   .     S
O654   Zn681   1.915   .     S
O655   Zn1385  1.915   .     S
O656   Zn694   1.914   .     S
O657   C1045   1.268   .     A
O657   Zn688   1.948   .     S
O658   Zn347   1.914   1_655 S
O659   Zn1388  1.915   .     S
O660   Zn693   1.915   .     S
O661   C125    1.384   1_655 S
O663   C1172   1.384   .     S
O667   C1176   1.384   1_545 S
O668   Zn687   1.948   .     S
O678   Zn682   1.948   .     S
O679   Zn696   1.948   .     S
O679   C71     1.268   1_655 S
O680   Zn684   1.948   .     S
Zn681  O1347   1.914   1_545 S
Zn683  O1320   1.934   .     S
Zn686  O287    1.935   1_655 S
Zn688  O1309   1.934   .     S
Zn689  O1351   1.915   1_545 S
Zn692  O1355   1.915   1_545 S
Zn693  O1341   1.914   1_545 S
Zn696  O298    1.935   1_655 S
C697   C788    1.456   .     S
C697   O1028   1.268   .     S
C698   O1003   1.276   .     A
C698   C764    1.422   .     S
C698   O975    1.276   .     A
C699   O1021   1.383   .     S
C699   C807    1.412   .     A
C699   C702    1.399   1_554 S
C700   O1022   1.384   .     S
C700   C808    1.414   .     A
C700   C831    1.400   1_556 S
C701   C809    1.413   .     A
C701   O1023   1.384   .     S
C701   C830    1.400   1_554 S
C702   O1024   1.383   .     S
C702   C810    1.414   .     A
C702   C699    1.399   1_556 S
C703   C812    1.412   .     A
C703   O1025   1.383   .     S
C703   C832    1.399   1_554 S
C704   H879    1.112   .     S
C704   H868    1.110   .     S
C704   H857    1.110   .     S
C704   N1293   1.450   1_455 S
C705   H912    1.110   .     S
C705   H923    1.112   .     S
C705   H901    1.110   .     S
C705   N1301   1.450   1_455 S
C706   H834    1.110   .     S
C706   H845    1.110   .     S
C706   H849    1.112   .     S
C707   H853    1.112   .     S
C707   H851    1.110   .     S
C707   H852    1.110   .     S
C708   H855    1.110   .     S
C708   H858    1.112   .     S
C708   H856    1.110   .     S
C708   N1304   1.450   .     S
C709   O976    1.276   .     A
C709   O1000   1.276   .     A
C709   C763    1.422   .     S
C710   H862    1.112   .     S
C710   H860    1.110   .     S
C710   H861    1.110   .     S
C710   N1305   1.450   .     S
C711   H866    1.112   .     S
C711   H865    1.110   .     S
C711   H864    1.110   .     S
C711   N262    1.450   1_565 S
C712   H869    1.110   .     S
C712   H871    1.112   .     S
C712   H870    1.110   .     S
C712   N263    1.450   1_565 S
C713   H873    1.110   .     S
C713   H875    1.112   .     S
C713   N960    1.450   .     S
C713   H874    1.110   .     S
C714   H877    1.110   .     S
C714   H880    1.112   .     S
C714   H878    1.110   .     S
C714   N946    1.450   .     S
C715   H882    1.109   .     S
C715   N947    1.450   .     S
C715   H883    1.110   .     S
C715   H884    1.112   .     S
C716   H887    1.109   .     S
C716   N948    1.450   .     S
C716   H888    1.112   .     S
C716   H886    1.110   .     S
C717   H893    1.112   .     S
C717   H892    1.110   .     S
C717   H891    1.110   .     S
C717   N949    1.450   .     S
C718   H895    1.110   .     S
C718   H897    1.112   .     S
C718   H896    1.110   .     S
C718   N950    1.450   .     S
C719   H900    1.110   .     S
C719   N951    1.450   .     S
C719   H899    1.109   .     S
C719   H902    1.112   .     S
C720   O977    1.276   .     A
C720   C762    1.422   .     S
C720   O1001   1.276   .     A
C721   N952    1.450   .     S
C721   H904    1.110   .     S
C721   H906    1.112   .     S
C721   H905    1.109   .     S
C722   H908    1.112   .     S
C722   H909    1.109   .     S
C722   O1009   1.412   .     S
C722   H907    1.114   .     S
C723   O1010   1.412   .     S
C723   H910    1.114   .     S
C723   H911    1.112   .     S
C723   H913    1.109   .     S
C724   H916    1.109   .     S
C724   O1011   1.412   .     S
C724   H914    1.114   .     S
C724   H915    1.112   .     S
C725   O1012   1.412   .     S
C725   H918    1.112   .     S
C725   H917    1.114   .     S
C725   H919    1.109   .     S
C726   H922    1.109   .     S
C726   H921    1.112   .     S
C726   O1013   1.412   .     S
C726   H920    1.114   .     S
C727   H925    1.112   .     S
C727   H924    1.114   .     S
C727   O1014   1.412   .     S
C727   H926    1.109   .     S
C728   H928    1.112   .     S
C728   O1015   1.412   .     S
C728   H929    1.109   .     S
C728   H927    1.114   .     S
C729   O1017   1.412   .     S
C729   H931    1.112   .     S
C729   H932    1.109   .     S
C729   H930    1.114   .     S
C730   H936    1.109   .     S
C730   O1018   1.411   .     S
C730   H935    1.111   .     S
C730   H933    1.114   .     S
C731   O978    1.276   .     A
C731   O1007   1.276   .     A
C731   C761    1.422   .     S
C732   H939    1.109   .     S
C732   O1019   1.411   .     S
C732   H937    1.114   .     S
C732   H938    1.112   .     S
C733   O1020   1.412   .     S
C733   H941    1.112   .     S
C733   H940    1.114   .     S
C733   H942    1.109   .     S
C734   H944    1.112   .     S
C734   H835    1.109   .     S
C734   O1021   1.412   .     S
C734   H943    1.113   .     S
C735   H837    1.111   .     S
C735   H836    1.114   .     S
C735   O1022   1.411   .     S
C735   H838    1.109   .     S
C736   H841    1.109   .     S
C736   H839    1.114   .     S
C736   O1023   1.411   .     S
C736   H840    1.112   .     S
C737   H842    1.114   .     S
C737   H844    1.109   .     S
C737   O1024   1.412   .     S
C737   H843    1.112   .     S
C738   H847    1.112   .     S
C738   O1025   1.412   .     S
C738   H848    1.109   .     S
C738   H846    1.113   .     S
C739   O979    1.276   .     A
C739   O1008   1.276   .     A
C739   C760    1.422   .     S
C740   C768    1.422   .     S
C740   O980    1.276   .     A
C740   O1004   1.276   .     A
C741   O981    1.276   .     A
C741   C766    1.422   .     S
C741   O1006   1.276   .     A
C742   O982    1.276   .     A
C742   O993    1.276   .     A
C742   C757    1.422   .     S
C743   O984    1.276   .     A
C743   C755    1.422   .     S
C743   O995    1.276   .     A
C744   O985    1.275   .     A
C744   C754    1.422   .     S
C744   O991    1.276   .     A
C745   C790    1.456   .     S
C745   O1016   1.268   .     A
C746   C753    1.422   .     S
C746   O986    1.276   .     A
C746   O992    1.276   .     A
C747   O987    1.276   .     A
C747   C752    1.422   .     S
C747   O998    1.276   .     A
C748   O999    1.276   .     A
C748   C751    1.422   .     S
C748   O988    1.276   .     A
C749   C759    1.422   .     S
C749   O996    1.276   .     A
C749   O989    1.275   .     A
C750   O990    1.276   .     A
C750   O997    1.276   .     A
C750   C758    1.422   .     S
C751   C768    1.198   .     T
C752   C766    1.198   .     T
C753   C765    1.198   .     T
C754   C764    1.198   .     T
C755   C763    1.198   .     T
C756   O1311   1.268   1_455 A
C756   C786    1.457   .     S
C756   O1026   1.268   .     S
C757   C762    1.198   .     T
C758   C761    1.198   .     T
C759   C760    1.198   .     T
C765   C822    1.422   .     S
C767   O964    1.268   .     A
C767   C787    1.456   .     S
C767   O1375   1.268   1_455 S
C769   C799    1.416   .     A
C769   C1134   1.401   .     A
C769   N945    1.429   .     S
C770   N953    1.429   .     S
C770   C1135   1.401   .     S
C770   C1149   1.416   .     S
C771   N954    1.429   .     S
C771   C92     1.401   1_565 A
C771   C802    1.416   .     A
C772   N955    1.429   .     S
C772   C94     1.401   1_565 S
C772   C107    1.416   1_565 S
C773   N956    1.429   .     S
C773   C795    1.416   .     A
C773   C786    1.401   .     S
C774   N957    1.429   .     S
C774   C787    1.401   .     A
C774   C1144   1.416   1_455 S
C775   N958    1.429   .     S
C775   C797    1.416   .     A
C775   C788    1.401   .     S
C776   N959    1.429   .     S
C776   C790    1.401   .     A
C777   C808    1.416   .     A
C777   N960    1.429   .     S
C777   C791    1.401   .     S
C778   C793    1.459   .     S
C778   O965    1.269   .     S
C778   O969    1.269   .     S
C779   C96     1.402   1_565 A
C779   C809    1.416   .     A
C779   N946    1.429   .     S
C780   C810    1.415   .     A
C780   N947    1.429   .     S
C780   C1141   1.403   .     S
C781   C812    1.415   .     A
C781   N948    1.430   .     S
C781   C794    1.403   .     S
C782   N949    1.429   .     S
C782   C804    1.416   .     A
C782   C95     1.401   1_565 A
C783   N950    1.429   .     S
C783   C805    1.416   .     A
C783   C792    1.402   .     S
C784   C793    1.403   .     A
C784   N951    1.429   .     S
C784   C806    1.415   .     A
C785   N952    1.430   .     S
C785   C1142   1.403   .     A
C785   C807    1.415   .     A
C786   C1117   1.401   1_455 A
C787   C1118   1.401   1_455 S
C789   O966    1.268   .     A
C789   O970    1.268   .     A
C789   C794    1.455   .     S
C791   C800    1.456   .     S
C792   C811    1.457   .     S
C793   C1128   1.403   1_455 S
C794   C1133   1.403   1_455 A
C795   C821    1.413   .     A
C795   C813    1.424   .     S
C796   C823    1.414   .     A
C796   C1162   1.424   .     A
C796   C1122   1.416   .     S
C797   C824    1.413   .     A
C797   C815    1.424   .     A
C798   C825    1.414   .     A
C798   C80     1.416   1_565 S
C798   C120    1.424   1_565 S
C799   C1161   1.424   .     A
C799   C826    1.413   .     A
C800   O967    1.268   .     S
C800   O971    1.268   .     S
C801   C827    1.414   .     A
C801   C1118   1.416   1_455 S
C801   C814    1.424   .     S
C802   C828    1.413   .     A
C802   C119    1.424   1_565 S
C803   C816    1.424   .     A
C803   C829    1.414   .     A
C804   C121    1.424   1_565 A
C804   C830    1.414   .     A
C805   C831    1.413   .     A
C805   C818    1.422   .     S
C806   C832    1.414   .     A
C806   C819    1.423   .     S
C807   C1168   1.422   .     S
C808   C817    1.424   .     S
C809   C122    1.422   1_565 A
C810   C1167   1.423   .     A
C811   O968    1.268   .     S
C811   O973    1.269   .     S
C812   C820    1.422   .     A
C813   C1147   1.424   1_455 A
C813   C814    1.421   .     A
C814   C1144   1.424   1_455 A
C815   C816    1.421   .     A
C817   C818    1.421   1_556 S
C818   C817    1.421   1_554 S
C819   C1158   1.423   1_455 A
C819   C820    1.420   1_556 S
C820   C1155   1.422   1_455 S
C820   C819    1.420   1_554 S
C821   C827    1.400   .     A
C821   O1357   1.384   1_455 S
C822   O974    1.276   .     A
C822   O1002   1.276   .     A
C823   C826    1.400   .     A
C823   O1010   1.384   .     S
C824   C829    1.400   .     A
C825   O1012   1.384   .     S
C825   C828    1.400   .     A
C826   O1361   1.384   .     S
C827   O1014   1.384   .     S
C828   O319    1.384   1_565 S
C829   O1017   1.384   .     S
C830   O1018   1.384   .     S
C830   C701    1.400   1_556 S
C831   O1019   1.384   .     S
C831   C700    1.400   1_554 S
C832   O1020   1.383   .     S
C832   C703    1.399   1_556 S
H833   N945    1.031   .     S
H850   N955    1.031   .     S
H854   N956    1.031   .     S
H859   N957    1.031   .     S
H863   N958    1.031   .     S
H867   N959    1.031   .     S
H872   N960    1.031   .     S
H876   N946    1.031   .     S
H881   N947    1.031   .     S
H885   N948    1.031   .     S
H889   N949    1.031   .     S
H890   N953    1.031   .     S
H894   N950    1.031   .     S
H898   N951    1.031   .     S
H903   N952    1.031   .     S
H934   N954    1.031   .     S
N945   C1052   1.450   .     S
N953   C1053   1.450   .     S
N954   C10     1.450   1_565 S
N955   C11     1.450   1_565 S
N956   C1056   1.450   1_455 S
N957   C1058   1.450   1_455 S
O961   Zn1032  1.934   .     S
O961   Zn1040  1.935   .     S
O961   Zn1029  1.935   .     S
O962   Zn1031  1.948   .     S
O962   C49     1.268   1_565 S
O963   C1104   1.268   .     A
O963   Zn1034  1.948   .     S
O964   Zn1033  1.948   .     S
O965   Zn1043  1.948   .     S
O966   Zn1042  1.948   .     S
O967   Zn1037  1.948   .     S
O968   Zn1029  1.948   .     S
O969   Zn1039  1.948   .     S
O970   Zn1038  1.948   .     S
O971   Zn1041  1.948   .     S
O972   Zn1035  1.934   .     S
O972   Zn1037  1.935   .     S
O972   Zn1041  1.935   .     S
O973   Zn1040  1.948   .     S
O974   Zn1032  1.915   .     S
O975   Zn1031  1.915   .     S
O976   Zn1034  1.914   .     S
O977   Zn1033  1.914   .     S
O978   Zn1036  1.915   .     S
O979   Zn1035  1.915   .     S
O980   Zn1030  1.914   .     S
O981   Zn1044  1.914   .     S
O982   Zn1031  1.914   .     S
O983   Zn1030  1.935   .     S
O983   Zn1382  1.935   1_455 S
O983   Zn1038  1.934   .     S
O983   Zn1042  1.934   .     S
O984   Zn1032  1.914   .     S
O985   Zn1044  1.915   .     S
O986   Zn1030  1.915   .     S
O987   Zn1035  1.914   .     S
O988   Zn1036  1.914   .     S
O989   Zn1033  1.915   .     S
O990   Zn1034  1.915   .     S
O991   Zn1387  1.915   .     S
O992   Zn1038  1.915   .     S
O993   Zn345   1.914   1_565 S
O994   Zn1033  1.935   .     S
O994   Zn1039  1.934   .     S
O994   Zn1043  1.934   .     S
O994   Zn1392  1.935   1_455 S
O995   Zn1040  1.914   .     S
O996   Zn1043  1.915   .     S
O997   Zn1390  1.915   .     S
O998   Zn1037  1.914   .     S
O999   Zn333   1.914   1_565 S
O1000  Zn1386  1.914   .     S
O1001  Zn1039  1.914   .     S
O1002  Zn1029  1.915   .     S
O1003  Zn341   1.915   1_565 S
O1004  Zn1042  1.914   .     S
O1005  C1      1.268   1_565 A
O1005  Zn1036  1.948   .     S
O1006  Zn1391  1.914   .     S
O1007  Zn344   1.915   1_565 S
O1008  Zn1041  1.915   .     S
O1009  C1169   1.384   .     S
O1011  C128    1.384   1_565 S
O1013  C1174   1.384   1_455 S
O1016  Zn1035  1.948   .     S
O1026  Zn1030  1.948   .     S
O1027  Zn1044  1.948   .     S
O1027  C1115   1.268   .     S
O1028  Zn1032  1.948   .     S
Zn1031 O276    1.934   1_565 S
Zn1034 O1331   1.935   .     S
Zn1036 O265    1.934   1_565 S
Zn1038 O1348   1.914   1_455 S
Zn1039 O1339   1.915   1_455 S
Zn1042 O1345   1.915   1_455 S
Zn1043 O1354   1.914   1_455 S
Zn1044 O1342   1.935   .     S
C1045  C1136   1.456   .     S
C1045  O1376   1.268   .     S
C1046  O1351   1.276   .     A
C1046  C1112   1.422   .     S
C1046  O1323   1.276   .     A
C1047  O1369   1.383   .     S
C1047  C1155   1.412   .     A
C1047  C1050   1.399   1_554 S
C1048  O1370   1.384   .     S
C1048  C1156   1.414   .     A
C1048  C1179   1.400   1_556 S
C1049  C1157   1.413   .     A
C1049  O1371   1.384   .     S
C1049  C1178   1.400   1_554 S
C1050  O1372   1.383   .     S
C1050  C1158   1.414   .     A
C1050  C1047   1.399   1_556 S
C1051  C1160   1.412   .     A
C1051  O1373   1.383   .     S
C1051  C1180   1.399   1_554 S
C1052  H1227   1.112   .     S
C1052  H1216   1.110   .     S
C1052  H1205   1.110   .     S
C1053  H1260   1.110   .     S
C1053  H1271   1.112   .     S
C1053  H1249   1.110   .     S
C1054  H1182   1.110   .     S
C1054  H1193   1.110   .     S
C1054  H1197   1.112   .     S
C1055  H1201   1.112   .     S
C1055  H1199   1.110   .     S
C1055  H1200   1.110   .     S
C1056  H1203   1.110   .     S
C1056  H1206   1.112   .     S
C1056  H1204   1.110   .     S
C1056  N956    1.450   1_655 S
C1057  O1324   1.276   .     A
C1057  O1348   1.276   .     A
C1057  C1111   1.422   .     S
C1058  H1210   1.112   .     S
C1058  H1208   1.110   .     S
C1058  H1209   1.110   .     S
C1058  N957    1.450   1_655 S
C1059  H1214   1.112   .     S
C1059  H1213   1.110   .     S
C1059  H1212   1.110   .     S
C1059  N610    1.450   1_565 S
C1060  H1217   1.110   .     S
C1060  H1219   1.112   .     S
C1060  H1218   1.110   .     S
C1060  N611    1.450   1_565 S
C1061  H1221   1.110   .     S
C1061  H1223   1.112   .     S
C1061  N1308   1.450   .     S
C1061  H1222   1.110   .     S
C1062  H1225   1.110   .     S
C1062  H1228   1.112   .     S
C1062  H1226   1.110   .     S
C1062  N1294   1.450   .     S
C1063  H1230   1.109   .     S
C1063  N1295   1.450   .     S
C1063  H1231   1.110   .     S
C1063  H1232   1.112   .     S
C1064  H1235   1.109   .     S
C1064  N1296   1.450   .     S
C1064  H1236   1.112   .     S
C1064  H1234   1.110   .     S
C1065  H1241   1.112   .     S
C1065  H1240   1.110   .     S
C1065  H1239   1.110   .     S
C1065  N1297   1.450   .     S
C1066  H1243   1.110   .     S
C1066  H1245   1.112   .     S
C1066  H1244   1.110   .     S
C1066  N1298   1.450   .     S
C1067  H1248   1.110   .     S
C1067  N1299   1.450   .     S
C1067  H1247   1.109   .     S
C1067  H1250   1.112   .     S
C1068  O1325   1.276   .     A
C1068  C1110   1.422   .     S
C1068  O1349   1.276   .     A
C1069  N1300   1.450   .     S
C1069  H1252   1.110   .     S
C1069  H1254   1.112   .     S
C1069  H1253   1.109   .     S
C1070  H1256   1.112   .     S
C1070  H1257   1.109   .     S
C1070  O1357   1.412   .     S
C1070  H1255   1.114   .     S
C1071  O1358   1.412   .     S
C1071  H1258   1.114   .     S
C1071  H1259   1.112   .     S
C1071  H1261   1.109   .     S
C1072  H1264   1.109   .     S
C1072  O1359   1.412   .     S
C1072  H1262   1.114   .     S
C1072  H1263   1.112   .     S
C1073  O1360   1.412   .     S
C1073  H1266   1.112   .     S
C1073  H1265   1.114   .     S
C1073  H1267   1.109   .     S
C1074  H1270   1.109   .     S
C1074  H1269   1.112   .     S
C1074  O1361   1.412   .     S
C1074  H1268   1.114   .     S
C1075  H1273   1.112   .     S
C1075  H1272   1.114   .     S
C1075  O1362   1.412   .     S
C1075  H1274   1.109   .     S
C1076  H1276   1.112   .     S
C1076  O1363   1.412   .     S
C1076  H1277   1.109   .     S
C1076  H1275   1.114   .     S
C1077  O1365   1.412   .     S
C1077  H1279   1.112   .     S
C1077  H1280   1.109   .     S
C1077  H1278   1.114   .     S
C1078  H1284   1.109   .     S
C1078  O1366   1.411   .     S
C1078  H1283   1.111   .     S
C1078  H1281   1.114   .     S
C1079  O1326   1.276   .     A
C1079  O1355   1.276   .     A
C1079  C1109   1.422   .     S
C1080  H1287   1.109   .     S
C1080  O1367   1.411   .     S
C1080  H1285   1.114   .     S
C1080  H1286   1.112   .     S
C1081  O1368   1.412   .     S
C1081  H1289   1.112   .     S
C1081  H1288   1.114   .     S
C1081  H1290   1.109   .     S
C1082  H1292   1.112   .     S
C1082  H1183   1.109   .     S
C1082  O1369   1.412   .     S
C1082  H1291   1.113   .     S
C1083  H1185   1.111   .     S
C1083  H1184   1.114   .     S
C1083  O1370   1.411   .     S
C1083  H1186   1.109   .     S
C1084  H1189   1.109   .     S
C1084  H1187   1.114   .     S
C1084  O1371   1.411   .     S
C1084  H1188   1.112   .     S
C1085  H1190   1.114   .     S
C1085  H1192   1.109   .     S
C1085  O1372   1.412   .     S
C1085  H1191   1.112   .     S
C1086  H1195   1.112   .     S
C1086  O1373   1.412   .     S
C1086  H1196   1.109   .     S
C1086  H1194   1.113   .     S
C1087  O1327   1.276   .     A
C1087  O1356   1.276   .     A
C1087  C1108   1.422   .     S
C1088  C1116   1.422   .     S
C1088  O1328   1.276   .     A
C1088  O1352   1.276   .     A
C1089  O1329   1.276   .     A
C1089  C1114   1.422   .     S
C1089  O1354   1.276   .     A
C1090  O1330   1.276   .     A
C1090  O1341   1.276   .     A
C1090  C1105   1.422   .     S
C1091  O1332   1.276   .     A
C1091  C1103   1.422   .     S
C1091  O1343   1.276   .     A
C1092  O1333   1.275   .     A
C1092  C1102   1.422   .     S
C1092  O1339   1.276   .     A
C1093  C1138   1.456   .     S
C1093  O1364   1.268   .     A
C1094  C1101   1.422   .     S
C1094  O1334   1.276   .     A
C1094  O1340   1.276   .     A
C1095  O1335   1.276   .     A
C1095  C1100   1.422   .     S
C1095  O1346   1.276   .     A
C1096  O1347   1.276   .     A
C1096  C1099   1.422   .     S
C1096  O1336   1.276   .     A
C1097  C1107   1.422   .     S
C1097  O1344   1.276   .     A
C1097  O1337   1.275   .     A
C1098  O1338   1.276   .     A
C1098  O1345   1.276   .     A
C1098  C1106   1.422   .     S
C1099  C1116   1.198   .     T
C1100  C1114   1.198   .     T
C1101  C1113   1.198   .     T
C1102  C1112   1.198   .     T
C1103  C1111   1.198   .     T
C1104  C1134   1.457   .     S
C1104  O1374   1.268   .     S
C1105  C1110   1.198   .     T
C1106  C1109   1.198   .     T
C1107  C1108   1.198   .     T
C1113  C1170   1.422   .     S
C1115  O1312   1.268   .     A
C1115  C1135   1.456   .     S
C1117  C1147   1.416   .     A
C1117  C786    1.401   1_655 A
C1117  N1293   1.429   .     S
C1118  N1301   1.429   .     S
C1118  C787    1.401   1_655 S
C1118  C801    1.416   1_655 S
C1119  N1302   1.429   .     S
C1119  C440    1.401   1_565 A
C1119  C1150   1.416   .     A
C1120  N1303   1.429   .     S
C1120  C442    1.401   1_565 S
C1120  C455    1.416   1_565 S
C1121  N1304   1.429   .     S
C1121  C1143   1.416   .     A
C1121  C1134   1.401   .     S
C1122  N1305   1.429   .     S
C1122  C1135   1.401   .     A
C1123  N1306   1.429   .     S
C1123  C1145   1.416   .     A
C1123  C1136   1.401   .     S
C1124  N1307   1.429   .     S
C1124  C1138   1.401   .     A
C1125  C1156   1.416   .     A
C1125  N1308   1.429   .     S
C1125  C1139   1.401   .     S
C1126  C1141   1.459   .     S
C1126  O1313   1.269   .     S
C1126  O1317   1.269   .     S
C1127  C444    1.402   1_565 A
C1127  C1157   1.416   .     A
C1127  N1294   1.429   .     S
C1128  C1158   1.415   .     A
C1128  N1295   1.429   .     S
C1128  C793    1.403   1_655 S
C1129  C1160   1.415   .     A
C1129  N1296   1.430   .     S
C1129  C1142   1.403   .     S
C1130  N1297   1.429   .     S
C1130  C1152   1.416   .     A
C1130  C443    1.401   1_565 A
C1131  N1298   1.429   .     S
C1131  C1153   1.416   .     A
C1131  C1140   1.402   .     S
C1132  C1141   1.403   .     A
C1132  N1299   1.429   .     S
C1132  C1154   1.415   .     A
C1133  N1300   1.430   .     S
C1133  C794    1.403   1_655 A
C1133  C1155   1.415   .     A
C1137  O1314   1.268   .     A
C1137  O1318   1.268   .     A
C1137  C1142   1.455   .     S
C1139  C1148   1.456   .     S
C1140  C1159   1.457   .     S
C1143  C1169   1.413   .     A
C1143  C1161   1.424   .     S
C1144  C1171   1.414   .     A
C1144  C814    1.424   1_655 A
C1144  C774    1.416   1_655 S
C1145  C1172   1.413   .     A
C1145  C1163   1.424   .     A
C1146  C1173   1.414   .     A
C1146  C428    1.416   1_565 S
C1146  C468    1.424   1_565 S
C1147  C813    1.424   1_655 A
C1147  C1174   1.413   .     A
C1148  O1315   1.268   .     S
C1148  O1319   1.268   .     S
C1149  C1175   1.414   .     A
C1149  C1162   1.424   .     S
C1150  C1176   1.413   .     A
C1150  C467    1.424   1_565 S
C1151  C1164   1.424   .     A
C1151  C1177   1.414   .     A
C1152  C469    1.424   1_565 A
C1152  C1178   1.414   .     A
C1153  C1179   1.413   .     A
C1153  C1166   1.422   .     S
C1154  C1180   1.414   .     A
C1154  C1167   1.423   .     S
C1155  C820    1.422   1_655 S
C1156  C1165   1.424   .     S
C1157  C470    1.422   1_565 A
C1158  C819    1.423   1_655 A
C1159  O1316   1.268   .     S
C1159  O1321   1.269   .     S
C1160  C1168   1.422   .     A
C1161  C1162   1.421   .     A
C1163  C1164   1.421   .     A
C1165  C1166   1.421   1_556 S
C1166  C1165   1.421   1_554 S
C1167  C1168   1.420   1_556 S
C1168  C1167   1.420   1_554 S
C1169  C1175   1.400   .     A
C1170  O1322   1.276   .     A
C1170  O1350   1.276   .     A
C1171  C1174   1.400   .     A
C1171  O1358   1.384   .     S
C1172  C1177   1.400   .     A
C1173  O1360   1.384   .     S
C1173  C1176   1.400   .     A
C1174  O1013   1.384   1_655 S
C1175  O1362   1.384   .     S
C1176  O667    1.384   1_565 S
C1177  O1365   1.384   .     S
C1178  O1366   1.384   .     S
C1178  C1049   1.400   1_556 S
C1179  O1367   1.384   .     S
C1179  C1048   1.400   1_554 S
C1180  O1368   1.383   .     S
C1180  C1051   1.399   1_556 S
H1181  N1293   1.031   .     S
H1198  N1303   1.031   .     S
H1202  N1304   1.031   .     S
H1207  N1305   1.031   .     S
H1211  N1306   1.031   .     S
H1215  N1307   1.031   .     S
H1220  N1308   1.031   .     S
H1224  N1294   1.031   .     S
H1229  N1295   1.031   .     S
H1233  N1296   1.031   .     S
H1237  N1297   1.031   .     S
H1238  N1301   1.031   .     S
H1242  N1298   1.031   .     S
H1246  N1299   1.031   .     S
H1251  N1300   1.031   .     S
H1282  N1302   1.031   .     S
N1293  C704    1.450   1_655 S
N1301  C705    1.450   1_655 S
N1302  C358    1.450   1_565 S
N1303  C359    1.450   1_565 S
O1309  Zn1380  1.934   .     S
O1309  Zn1388  1.935   .     S
O1309  Zn1377  1.935   .     S
O1310  Zn1379  1.948   .     S
O1310  C397    1.268   1_565 S
O1311  C756    1.268   1_655 A
O1311  Zn1382  1.948   .     S
O1312  Zn1381  1.948   .     S
O1313  Zn1391  1.948   .     S
O1314  Zn1390  1.948   .     S
O1315  Zn1385  1.948   .     S
O1316  Zn1377  1.948   .     S
O1317  Zn1387  1.948   .     S
O1318  Zn1386  1.948   .     S
O1319  Zn1389  1.948   .     S
O1320  Zn1383  1.934   .     S
O1320  Zn1385  1.935   .     S
O1320  Zn1389  1.935   .     S
O1321  Zn1388  1.948   .     S
O1322  Zn1380  1.915   .     S
O1323  Zn1379  1.915   .     S
O1324  Zn1382  1.914   .     S
O1325  Zn1381  1.914   .     S
O1326  Zn1384  1.915   .     S
O1327  Zn1383  1.915   .     S
O1328  Zn1378  1.914   .     S
O1329  Zn1392  1.914   .     S
O1330  Zn1379  1.914   .     S
O1331  Zn1378  1.935   .     S
O1331  Zn1386  1.934   .     S
O1331  Zn1390  1.934   .     S
O1332  Zn1380  1.914   .     S
O1333  Zn1392  1.915   .     S
O1334  Zn1378  1.915   .     S
O1335  Zn1383  1.914   .     S
O1336  Zn1384  1.914   .     S
O1337  Zn1381  1.915   .     S
O1338  Zn1382  1.915   .     S
O1339  Zn1039  1.915   1_655 S
O1340  Zn1386  1.915   .     S
O1341  Zn693   1.914   1_565 S
O1342  Zn1381  1.935   .     S
O1342  Zn1387  1.934   .     S
O1342  Zn1391  1.934   .     S
O1343  Zn1388  1.914   .     S
O1344  Zn1391  1.915   .     S
O1345  Zn1042  1.915   1_655 S
O1346  Zn1385  1.914   .     S
O1347  Zn681   1.914   1_565 S
O1348  Zn1038  1.914   1_655 S
O1349  Zn1387  1.914   .     S
O1350  Zn1377  1.915   .     S
O1351  Zn689   1.915   1_565 S
O1352  Zn1390  1.914   .     S
O1353  C349    1.268   1_565 A
O1353  Zn1384  1.948   .     S
O1354  Zn1043  1.914   1_655 S
O1355  Zn692   1.915   1_565 S
O1356  Zn1389  1.915   .     S
O1357  C821    1.384   1_655 S
O1359  C476    1.384   1_565 S
O1364  Zn1383  1.948   .     S
O1374  Zn1378  1.948   .     S
O1375  Zn1392  1.948   .     S
O1375  C767    1.268   1_655 S
O1376  Zn1380  1.948   .     S
Zn1379 O624    1.934   1_565 S
Zn1382 O983    1.935   1_655 S
Zn1384 O613    1.934   1_565 S
Zn1392 O994    1.935   1_655 S
