data_str_m3_o2_o10_pcu_sym.31
_audit_creation_date              2020-01-03
_audit_creation_method            'Materials Studio'
_symmetry_space_group_name_H-M    'P1'
_symmetry_Int_Tables_number       1
_symmetry_cell_setting            triclinic
loop_
_symmetry_equiv_pos_as_xyz
  x,y,z
_cell_length_a                    25.8840
_cell_length_b                    29.8198
_cell_length_c                    28.2677
_cell_angle_alpha                 89.8042
_cell_angle_beta                  97.8654
_cell_angle_gamma                 90.0454
loop_
_atom_site_label
_atom_site_type_symbol
_atom_site_fract_x
_atom_site_fract_y
_atom_site_fract_z
_atom_site_U_iso_or_equiv
_atom_site_adp_type
_atom_site_occupancy
C1     C     0.16580   0.16378   0.24999   0.00000  Uiso   1.00
C2     C     0.20615   0.22585   0.45229   0.00000  Uiso   1.00
C3     C     0.16733   0.25050   0.02672   0.00000  Uiso   1.00
C4     C     0.16772   0.24939   0.47355   0.00000  Uiso   1.00
C5     C     0.06728   0.25085   0.23804   0.00000  Uiso   1.00
C6     C     0.26607   0.24908   0.26198   0.00000  Uiso   1.00
C7     C     0.01350   0.25924   0.23353   0.00000  Uiso   1.00
C8     C     0.31989   0.24072   0.26655   0.00000  Uiso   1.00
C9     C     0.12092   0.04976   0.28008   0.00000  Uiso   1.00
C10    C     0.12302   0.45046   0.20701   0.00000  Uiso   1.00
C11    C     0.12911   0.09593   0.28101   0.00000  Uiso   1.00
C12    C     0.16573   0.33625   0.24978   0.00000  Uiso   1.00
C13    C     0.13109   0.40429   0.20841   0.00000  Uiso   1.00
C14    C     0.15943   0.11597   0.24945   0.00000  Uiso   1.00
C15    C     0.15925   0.38410   0.24866   0.00000  Uiso   1.00
C16    C     0.18192   0.09059   0.21644   0.00000  Uiso   1.00
C17    C     0.17949   0.40939   0.28820   0.00000  Uiso   1.00
C18    C     0.17514   0.04478   0.21563   0.00000  Uiso   1.00
C19    C     0.17269   0.45520   0.28717   0.00000  Uiso   1.00
C20    C     0.14434   0.02428   0.24656   0.00000  Uiso   1.00
C21    C     0.14417   0.47583   0.24733   0.00000  Uiso   1.00
C22    C     0.32587   0.29477   0.19700   0.00000  Uiso   1.00
C23    C     0.13829   0.21861   0.04860   0.00000  Uiso   1.00
C24    C     0.00759   0.20509   0.30301   0.00000  Uiso   1.00
C25    C     0.08911   0.02924   0.31609   0.00000  Uiso   1.00
C26    C     0.03726   0.01010   0.29260   0.00000  Uiso   1.00
C27    C     0.09389   0.47113   0.16181   0.00000  Uiso   1.00
C28    C     0.04123   0.49056   0.16956   0.00000  Uiso   1.00
C29    C     0.22815   0.31771   0.03505   0.00000  Uiso   1.00
C30    C     0.24926   0.19970   0.48119   0.00000  Uiso   1.00
C31    C     0.12920   0.27280   0.44332   0.00000  Uiso   1.00
C32    C     0.13852   0.21888   0.09840   0.00000  Uiso   1.00
C33    C     0.12940   0.27278   0.39358   0.00000  Uiso   1.00
C34    C     0.19485   0.28163   0.10600   0.00000  Uiso   1.00
C35    C     0.20441   0.22678   0.40209   0.00000  Uiso   1.00
C36    C     0.19616   0.28266   0.05614   0.00000  Uiso   1.00
H37    H     0.11146   0.11648   0.30601   0.00000  Uiso   1.00
H38    H     0.09964   0.29110   0.37076   0.00000  Uiso   1.00
H39    H     0.21645   0.30621   0.12884   0.00000  Uiso   1.00
H40    H     0.23352   0.20881   0.38554   0.00000  Uiso   1.00
H41    H     0.02461   0.31405   0.18401   0.00000  Uiso   1.00
H42    H     0.30317   0.27859   0.16548   0.00000  Uiso   1.00
H43    H     0.30139   0.31957   0.21301   0.00000  Uiso   1.00
H44    H     0.30888   0.18644   0.31681   0.00000  Uiso   1.00
H45    H     0.03103   0.17983   0.28647   0.00000  Uiso   1.00
H46    H     0.03147   0.22089   0.33415   0.00000  Uiso   1.00
H47    H     0.01526   0.03572   0.26938   0.00000  Uiso   1.00
H48    H     0.11509   0.38387   0.17825   0.00000  Uiso   1.00
H49    H     0.04375   0.47991   0.27144   0.00000  Uiso   1.00
H50    H     0.01339   0.49996   0.32062   0.00000  Uiso   1.00
H51    H     0.11162   0.00275   0.33739   0.00000  Uiso   1.00
H52    H     0.08027   0.05493   0.34225   0.00000  Uiso   1.00
H53    H     0.01781   0.46505   0.18593   0.00000  Uiso   1.00
H54    H     0.04658   0.02071   0.19249   0.00000  Uiso   1.00
H55    H     0.01940   0.00081   0.13464   0.00000  Uiso   1.00
H56    H     0.11770   0.49749   0.14749   0.00000  Uiso   1.00
H57    H     0.08654   0.44548   0.13322   0.00000  Uiso   1.00
H58    H     0.25833   0.30125   0.01674   0.00000  Uiso   1.00
H59    H     0.20573   0.10608   0.19223   0.00000  Uiso   1.00
H60    H     0.20252   0.33839   0.00884   0.00000  Uiso   1.00
H61    H     0.24811   0.34031   0.06294   0.00000  Uiso   1.00
H62    H     0.24723   0.20078   0.02008   0.00000  Uiso   1.00
H63    H     0.24703   0.16405   0.46988   0.00000  Uiso   1.00
H64    H     0.28757   0.21361   0.47496   0.00000  Uiso   1.00
H65    H     0.20162   0.39386   0.31928   0.00000  Uiso   1.00
H66    H     0.19512   0.02501   0.19161   0.00000  Uiso   1.00
H67    H     0.19100   0.47488   0.31704   0.00000  Uiso   1.00
H68    H     0.11577   0.19346   0.02725   0.00000  Uiso   1.00
H69    H     0.09923   0.29125   0.45820   0.00000  Uiso   1.00
H70    H     0.11610   0.19408   0.11484   0.00000  Uiso   1.00
N71    N     0.16667   0.24999   0.12623   0.00000  Uiso   1.00
N72    N     0.16667   0.25001   0.37376   0.00000  Uiso   1.00
O73    O     0.16667   0.18454   0.28974   0.00000  Uiso   1.00
O74    O     0.16666   0.31547   0.21026   0.00000  Uiso   1.00
O75    O     0.16667   0.18453   0.21026   0.00000  Uiso   1.00
O76    O     0.16666   0.31547   0.28974   0.00000  Uiso   1.00
O77    O     0.09058   0.25000   0.28044   0.00000  Uiso   1.00
O78    O     0.24275   0.25000   0.21955   0.00000  Uiso   1.00
O79    O     0.09058   0.25000   0.20096   0.00000  Uiso   1.00
O80    O     0.24275   0.25001   0.29903   0.00000  Uiso   1.00
Zn81   Zn    0.16667   0.25001   0.30307   0.00000  Uiso   1.00
Zn82   Zn    0.16667   0.25000   0.19693   0.00000  Uiso   1.00
C83    C     0.49913   0.16378   0.24999   0.00000  Uiso   1.00
C84    C     0.53949   0.22585   0.45229   0.00000  Uiso   1.00
C85    C     0.50066   0.25050   0.02672   0.00000  Uiso   1.00
C86    C     0.50106   0.24939   0.47355   0.00000  Uiso   1.00
C87    C     0.40061   0.25085   0.23804   0.00000  Uiso   1.00
C88    C     0.59940   0.24908   0.26198   0.00000  Uiso   1.00
C89    C     0.34684   0.25924   0.23353   0.00000  Uiso   1.00
C90    C     0.65322   0.24072   0.26655   0.00000  Uiso   1.00
C91    C     0.45425   0.04976   0.28008   0.00000  Uiso   1.00
C92    C     0.45635   0.45046   0.20701   0.00000  Uiso   1.00
C93    C     0.46244   0.09593   0.28101   0.00000  Uiso   1.00
C94    C     0.49906   0.33625   0.24978   0.00000  Uiso   1.00
C95    C     0.46443   0.40429   0.20841   0.00000  Uiso   1.00
C96    C     0.49276   0.11597   0.24945   0.00000  Uiso   1.00
C97    C     0.49259   0.38410   0.24866   0.00000  Uiso   1.00
C98    C     0.51525   0.09059   0.21644   0.00000  Uiso   1.00
C99    C     0.51282   0.40939   0.28820   0.00000  Uiso   1.00
C100   C     0.50848   0.04478   0.21563   0.00000  Uiso   1.00
C101   C     0.50602   0.45520   0.28717   0.00000  Uiso   1.00
C102   C     0.47767   0.02428   0.24656   0.00000  Uiso   1.00
C103   C     0.47750   0.47583   0.24733   0.00000  Uiso   1.00
C104   C     0.65920   0.29477   0.19700   0.00000  Uiso   1.00
C105   C     0.47162   0.21861   0.04860   0.00000  Uiso   1.00
C106   C     0.34093   0.20509   0.30301   0.00000  Uiso   1.00
C107   C     0.42245   0.02924   0.31609   0.00000  Uiso   1.00
C108   C     0.37060   0.01010   0.29260   0.00000  Uiso   1.00
C109   C     0.42722   0.47113   0.16181   0.00000  Uiso   1.00
C110   C     0.37457   0.49056   0.16956   0.00000  Uiso   1.00
C111   C     0.56148   0.31771   0.03505   0.00000  Uiso   1.00
C112   C     0.58259   0.19970   0.48119   0.00000  Uiso   1.00
C113   C     0.46254   0.27280   0.44332   0.00000  Uiso   1.00
C114   C     0.47185   0.21888   0.09840   0.00000  Uiso   1.00
C115   C     0.46273   0.27278   0.39358   0.00000  Uiso   1.00
C116   C     0.52819   0.28163   0.10600   0.00000  Uiso   1.00
C117   C     0.53775   0.22678   0.40209   0.00000  Uiso   1.00
C118   C     0.52949   0.28266   0.05614   0.00000  Uiso   1.00
H119   H     0.44479   0.11648   0.30601   0.00000  Uiso   1.00
H120   H     0.43297   0.29110   0.37076   0.00000  Uiso   1.00
H121   H     0.54978   0.30621   0.12884   0.00000  Uiso   1.00
H122   H     0.56685   0.20881   0.38554   0.00000  Uiso   1.00
H123   H     0.35795   0.31405   0.18401   0.00000  Uiso   1.00
H124   H     0.63651   0.27859   0.16548   0.00000  Uiso   1.00
H125   H     0.63472   0.31957   0.21301   0.00000  Uiso   1.00
H126   H     0.64222   0.18644   0.31681   0.00000  Uiso   1.00
H127   H     0.36437   0.17983   0.28647   0.00000  Uiso   1.00
H128   H     0.36480   0.22089   0.33415   0.00000  Uiso   1.00
H129   H     0.34859   0.03572   0.26938   0.00000  Uiso   1.00
H130   H     0.44842   0.38387   0.17825   0.00000  Uiso   1.00
H131   H     0.37709   0.47991   0.27144   0.00000  Uiso   1.00
H132   H     0.34672   0.49996   0.32062   0.00000  Uiso   1.00
H133   H     0.44496   0.00275   0.33739   0.00000  Uiso   1.00
H134   H     0.41360   0.05493   0.34225   0.00000  Uiso   1.00
H135   H     0.35114   0.46505   0.18593   0.00000  Uiso   1.00
H136   H     0.37991   0.02071   0.19249   0.00000  Uiso   1.00
H137   H     0.35273   0.00081   0.13464   0.00000  Uiso   1.00
H138   H     0.45104   0.49749   0.14749   0.00000  Uiso   1.00
H139   H     0.41987   0.44548   0.13322   0.00000  Uiso   1.00
H140   H     0.59167   0.30125   0.01674   0.00000  Uiso   1.00
H141   H     0.53906   0.10608   0.19223   0.00000  Uiso   1.00
H142   H     0.53586   0.33839   0.00884   0.00000  Uiso   1.00
H143   H     0.58144   0.34031   0.06294   0.00000  Uiso   1.00
H144   H     0.58057   0.20078   0.02008   0.00000  Uiso   1.00
H145   H     0.58036   0.16405   0.46988   0.00000  Uiso   1.00
H146   H     0.62091   0.21361   0.47496   0.00000  Uiso   1.00
H147   H     0.53496   0.39386   0.31928   0.00000  Uiso   1.00
H148   H     0.52846   0.02501   0.19161   0.00000  Uiso   1.00
H149   H     0.52433   0.47488   0.31704   0.00000  Uiso   1.00
H150   H     0.44910   0.19346   0.02725   0.00000  Uiso   1.00
H151   H     0.43257   0.29125   0.45820   0.00000  Uiso   1.00
H152   H     0.44943   0.19408   0.11484   0.00000  Uiso   1.00
N153   N     0.50000   0.24999   0.12623   0.00000  Uiso   1.00
N154   N     0.50000   0.25001   0.37376   0.00000  Uiso   1.00
O155   O     0.50000   0.18454   0.28974   0.00000  Uiso   1.00
O156   O     0.50000   0.31547   0.21026   0.00000  Uiso   1.00
O157   O     0.50000   0.18453   0.21026   0.00000  Uiso   1.00
O158   O     0.50000   0.31547   0.28974   0.00000  Uiso   1.00
O159   O     0.42392   0.25000   0.28044   0.00000  Uiso   1.00
O160   O     0.57608   0.25000   0.21955   0.00000  Uiso   1.00
O161   O     0.42392   0.25000   0.20096   0.00000  Uiso   1.00
O162   O     0.57608   0.25001   0.29903   0.00000  Uiso   1.00
Zn163  Zn    0.50000   0.25001   0.30307   0.00000  Uiso   1.00
Zn164  Zn    0.50000   0.25000   0.19693   0.00000  Uiso   1.00
C165   C     0.83247   0.16378   0.24999   0.00000  Uiso   1.00
C166   C     0.87282   0.22585   0.45229   0.00000  Uiso   1.00
C167   C     0.83399   0.25050   0.02672   0.00000  Uiso   1.00
C168   C     0.83439   0.24939   0.47355   0.00000  Uiso   1.00
C169   C     0.73395   0.25085   0.23804   0.00000  Uiso   1.00
C170   C     0.93273   0.24908   0.26198   0.00000  Uiso   1.00
C171   C     0.68017   0.25924   0.23353   0.00000  Uiso   1.00
C172   C     0.98655   0.24072   0.26655   0.00000  Uiso   1.00
C173   C     0.78758   0.04976   0.28008   0.00000  Uiso   1.00
C174   C     0.78969   0.45046   0.20701   0.00000  Uiso   1.00
C175   C     0.79578   0.09593   0.28101   0.00000  Uiso   1.00
C176   C     0.83239   0.33625   0.24978   0.00000  Uiso   1.00
C177   C     0.79776   0.40429   0.20841   0.00000  Uiso   1.00
C178   C     0.82610   0.11597   0.24945   0.00000  Uiso   1.00
C179   C     0.82592   0.38410   0.24866   0.00000  Uiso   1.00
C180   C     0.84858   0.09059   0.21644   0.00000  Uiso   1.00
C181   C     0.84616   0.40939   0.28820   0.00000  Uiso   1.00
C182   C     0.84181   0.04478   0.21563   0.00000  Uiso   1.00
C183   C     0.83936   0.45520   0.28717   0.00000  Uiso   1.00
C184   C     0.81100   0.02428   0.24656   0.00000  Uiso   1.00
C185   C     0.81084   0.47583   0.24733   0.00000  Uiso   1.00
C186   C     0.99254   0.29477   0.19700   0.00000  Uiso   1.00
C187   C     0.80495   0.21861   0.04860   0.00000  Uiso   1.00
C188   C     0.67426   0.20509   0.30301   0.00000  Uiso   1.00
C189   C     0.75578   0.02924   0.31609   0.00000  Uiso   1.00
C190   C     0.70393   0.01010   0.29260   0.00000  Uiso   1.00
C191   C     0.76056   0.47113   0.16181   0.00000  Uiso   1.00
C192   C     0.70790   0.49056   0.16956   0.00000  Uiso   1.00
C193   C     0.89481   0.31771   0.03505   0.00000  Uiso   1.00
C194   C     0.91593   0.19970   0.48119   0.00000  Uiso   1.00
C195   C     0.79587   0.27280   0.44332   0.00000  Uiso   1.00
C196   C     0.80518   0.21888   0.09840   0.00000  Uiso   1.00
C197   C     0.79606   0.27278   0.39358   0.00000  Uiso   1.00
C198   C     0.86152   0.28163   0.10600   0.00000  Uiso   1.00
C199   C     0.87108   0.22678   0.40209   0.00000  Uiso   1.00
C200   C     0.86282   0.28266   0.05614   0.00000  Uiso   1.00
H201   H     0.77813   0.11648   0.30601   0.00000  Uiso   1.00
H202   H     0.76630   0.29110   0.37076   0.00000  Uiso   1.00
H203   H     0.88311   0.30621   0.12884   0.00000  Uiso   1.00
H204   H     0.90019   0.20881   0.38554   0.00000  Uiso   1.00
H205   H     0.69128   0.31405   0.18401   0.00000  Uiso   1.00
H206   H     0.96984   0.27859   0.16548   0.00000  Uiso   1.00
H207   H     0.96805   0.31957   0.21301   0.00000  Uiso   1.00
H208   H     0.97555   0.18644   0.31681   0.00000  Uiso   1.00
H209   H     0.69770   0.17983   0.28647   0.00000  Uiso   1.00
H210   H     0.69813   0.22089   0.33415   0.00000  Uiso   1.00
H211   H     0.68193   0.03572   0.26938   0.00000  Uiso   1.00
H212   H     0.78176   0.38387   0.17825   0.00000  Uiso   1.00
H213   H     0.71042   0.47991   0.27144   0.00000  Uiso   1.00
H214   H     0.68005   0.49996   0.32062   0.00000  Uiso   1.00
H215   H     0.77829   0.00275   0.33739   0.00000  Uiso   1.00
H216   H     0.74693   0.05493   0.34225   0.00000  Uiso   1.00
H217   H     0.68448   0.46505   0.18593   0.00000  Uiso   1.00
H218   H     0.71325   0.02071   0.19249   0.00000  Uiso   1.00
H219   H     0.68606   0.00081   0.13464   0.00000  Uiso   1.00
H220   H     0.78437   0.49749   0.14749   0.00000  Uiso   1.00
H221   H     0.75320   0.44548   0.13322   0.00000  Uiso   1.00
H222   H     0.92500   0.30125   0.01674   0.00000  Uiso   1.00
H223   H     0.87239   0.10608   0.19223   0.00000  Uiso   1.00
H224   H     0.86919   0.33839   0.00884   0.00000  Uiso   1.00
H225   H     0.91477   0.34031   0.06294   0.00000  Uiso   1.00
H226   H     0.91390   0.20078   0.02008   0.00000  Uiso   1.00
H227   H     0.91370   0.16405   0.46988   0.00000  Uiso   1.00
H228   H     0.95424   0.21361   0.47496   0.00000  Uiso   1.00
H229   H     0.86829   0.39386   0.31928   0.00000  Uiso   1.00
H230   H     0.86179   0.02501   0.19161   0.00000  Uiso   1.00
H231   H     0.85767   0.47488   0.31704   0.00000  Uiso   1.00
H232   H     0.78244   0.19346   0.02725   0.00000  Uiso   1.00
H233   H     0.76590   0.29125   0.45820   0.00000  Uiso   1.00
H234   H     0.78276   0.19408   0.11484   0.00000  Uiso   1.00
N235   N     0.83333   0.24999   0.12623   0.00000  Uiso   1.00
N236   N     0.83333   0.25001   0.37376   0.00000  Uiso   1.00
O237   O     0.83334   0.18454   0.28974   0.00000  Uiso   1.00
O238   O     0.83333   0.31547   0.21026   0.00000  Uiso   1.00
O239   O     0.83334   0.18453   0.21026   0.00000  Uiso   1.00
O240   O     0.83333   0.31547   0.28974   0.00000  Uiso   1.00
O241   O     0.75725   0.25000   0.28044   0.00000  Uiso   1.00
O242   O     0.90942   0.25000   0.21955   0.00000  Uiso   1.00
O243   O     0.75725   0.25000   0.20096   0.00000  Uiso   1.00
O244   O     0.90942   0.25001   0.29903   0.00000  Uiso   1.00
Zn245  Zn    0.83333   0.25001   0.30307   0.00000  Uiso   1.00
Zn246  Zn    0.83333   0.25000   0.19693   0.00000  Uiso   1.00
C247   C     0.16580   0.66378   0.24999   0.00000  Uiso   1.00
C248   C     0.20615   0.72585   0.45229   0.00000  Uiso   1.00
C249   C     0.16733   0.75050   0.02672   0.00000  Uiso   1.00
C250   C     0.16772   0.74939   0.47355   0.00000  Uiso   1.00
C251   C     0.06728   0.75085   0.23804   0.00000  Uiso   1.00
C252   C     0.26607   0.74908   0.26198   0.00000  Uiso   1.00
C253   C     0.01350   0.75924   0.23353   0.00000  Uiso   1.00
C254   C     0.31989   0.74072   0.26655   0.00000  Uiso   1.00
C255   C     0.12092   0.54976   0.28008   0.00000  Uiso   1.00
C256   C     0.12302   0.95046   0.20701   0.00000  Uiso   1.00
C257   C     0.12911   0.59593   0.28101   0.00000  Uiso   1.00
C258   C     0.16573   0.83625   0.24978   0.00000  Uiso   1.00
C259   C     0.13109   0.90429   0.20841   0.00000  Uiso   1.00
C260   C     0.15943   0.61597   0.24945   0.00000  Uiso   1.00
C261   C     0.15925   0.88410   0.24866   0.00000  Uiso   1.00
C262   C     0.18192   0.59059   0.21644   0.00000  Uiso   1.00
C263   C     0.17949   0.90939   0.28820   0.00000  Uiso   1.00
C264   C     0.17514   0.54478   0.21563   0.00000  Uiso   1.00
C265   C     0.17269   0.95520   0.28717   0.00000  Uiso   1.00
C266   C     0.14434   0.52428   0.24656   0.00000  Uiso   1.00
C267   C     0.14417   0.97583   0.24733   0.00000  Uiso   1.00
C268   C     0.32587   0.79477   0.19700   0.00000  Uiso   1.00
C269   C     0.13829   0.71861   0.04860   0.00000  Uiso   1.00
C270   C     0.00759   0.70509   0.30301   0.00000  Uiso   1.00
C271   C     0.08911   0.52924   0.31609   0.00000  Uiso   1.00
C272   C     0.03726   0.51010   0.29260   0.00000  Uiso   1.00
C273   C     0.09389   0.97113   0.16181   0.00000  Uiso   1.00
C274   C     0.04123   0.99056   0.16956   0.00000  Uiso   1.00
C275   C     0.22815   0.81771   0.03505   0.00000  Uiso   1.00
C276   C     0.24926   0.69970   0.48119   0.00000  Uiso   1.00
C277   C     0.12920   0.77280   0.44332   0.00000  Uiso   1.00
C278   C     0.13852   0.71888   0.09840   0.00000  Uiso   1.00
C279   C     0.12940   0.77278   0.39358   0.00000  Uiso   1.00
C280   C     0.19485   0.78163   0.10600   0.00000  Uiso   1.00
C281   C     0.20441   0.72678   0.40209   0.00000  Uiso   1.00
C282   C     0.19616   0.78266   0.05614   0.00000  Uiso   1.00
H283   H     0.11146   0.61648   0.30601   0.00000  Uiso   1.00
H284   H     0.09964   0.79110   0.37076   0.00000  Uiso   1.00
H285   H     0.21645   0.80621   0.12884   0.00000  Uiso   1.00
H286   H     0.23352   0.70881   0.38554   0.00000  Uiso   1.00
H287   H     0.02461   0.81405   0.18401   0.00000  Uiso   1.00
H288   H     0.30317   0.77859   0.16548   0.00000  Uiso   1.00
H289   H     0.30139   0.81957   0.21301   0.00000  Uiso   1.00
H290   H     0.30888   0.68644   0.31681   0.00000  Uiso   1.00
H291   H     0.03103   0.67983   0.28647   0.00000  Uiso   1.00
H292   H     0.03147   0.72089   0.33415   0.00000  Uiso   1.00
H293   H     0.01526   0.53572   0.26938   0.00000  Uiso   1.00
H294   H     0.11509   0.88387   0.17825   0.00000  Uiso   1.00
H295   H     0.04375   0.97991   0.27144   0.00000  Uiso   1.00
H296   H     0.01339   0.99996   0.32062   0.00000  Uiso   1.00
H297   H     0.11162   0.50275   0.33739   0.00000  Uiso   1.00
H298   H     0.08027   0.55493   0.34225   0.00000  Uiso   1.00
H299   H     0.01781   0.96505   0.18593   0.00000  Uiso   1.00
H300   H     0.04658   0.52071   0.19249   0.00000  Uiso   1.00
H301   H     0.01940   0.50081   0.13464   0.00000  Uiso   1.00
H302   H     0.11770   0.99749   0.14749   0.00000  Uiso   1.00
H303   H     0.08654   0.94548   0.13322   0.00000  Uiso   1.00
H304   H     0.25833   0.80125   0.01674   0.00000  Uiso   1.00
H305   H     0.20573   0.60608   0.19223   0.00000  Uiso   1.00
H306   H     0.20252   0.83839   0.00884   0.00000  Uiso   1.00
H307   H     0.24811   0.84031   0.06294   0.00000  Uiso   1.00
H308   H     0.24723   0.70078   0.02008   0.00000  Uiso   1.00
H309   H     0.24703   0.66405   0.46988   0.00000  Uiso   1.00
H310   H     0.28757   0.71361   0.47496   0.00000  Uiso   1.00
H311   H     0.20162   0.89386   0.31928   0.00000  Uiso   1.00
H312   H     0.19512   0.52501   0.19161   0.00000  Uiso   1.00
H313   H     0.19100   0.97488   0.31704   0.00000  Uiso   1.00
H314   H     0.11577   0.69346   0.02725   0.00000  Uiso   1.00
H315   H     0.09923   0.79125   0.45820   0.00000  Uiso   1.00
H316   H     0.11610   0.69408   0.11484   0.00000  Uiso   1.00
N317   N     0.16667   0.74999   0.12623   0.00000  Uiso   1.00
N318   N     0.16667   0.75001   0.37376   0.00000  Uiso   1.00
O319   O     0.16667   0.68454   0.28974   0.00000  Uiso   1.00
O320   O     0.16666   0.81547   0.21026   0.00000  Uiso   1.00
O321   O     0.16667   0.68453   0.21026   0.00000  Uiso   1.00
O322   O     0.16666   0.81547   0.28974   0.00000  Uiso   1.00
O323   O     0.09058   0.75000   0.28044   0.00000  Uiso   1.00
O324   O     0.24275   0.75000   0.21955   0.00000  Uiso   1.00
O325   O     0.09058   0.75000   0.20096   0.00000  Uiso   1.00
O326   O     0.24275   0.75001   0.29903   0.00000  Uiso   1.00
Zn327  Zn    0.16667   0.75001   0.30307   0.00000  Uiso   1.00
Zn328  Zn    0.16667   0.75000   0.19693   0.00000  Uiso   1.00
C329   C     0.49913   0.66378   0.24999   0.00000  Uiso   1.00
C330   C     0.53949   0.72585   0.45229   0.00000  Uiso   1.00
C331   C     0.50066   0.75050   0.02672   0.00000  Uiso   1.00
C332   C     0.50106   0.74939   0.47355   0.00000  Uiso   1.00
C333   C     0.40061   0.75085   0.23804   0.00000  Uiso   1.00
C334   C     0.59940   0.74908   0.26198   0.00000  Uiso   1.00
C335   C     0.34684   0.75924   0.23353   0.00000  Uiso   1.00
C336   C     0.65322   0.74072   0.26655   0.00000  Uiso   1.00
C337   C     0.45425   0.54976   0.28008   0.00000  Uiso   1.00
C338   C     0.45635   0.95046   0.20701   0.00000  Uiso   1.00
C339   C     0.46244   0.59593   0.28101   0.00000  Uiso   1.00
C340   C     0.49906   0.83625   0.24978   0.00000  Uiso   1.00
C341   C     0.46443   0.90429   0.20841   0.00000  Uiso   1.00
C342   C     0.49276   0.61597   0.24945   0.00000  Uiso   1.00
C343   C     0.49259   0.88410   0.24866   0.00000  Uiso   1.00
C344   C     0.51525   0.59059   0.21644   0.00000  Uiso   1.00
C345   C     0.51282   0.90939   0.28820   0.00000  Uiso   1.00
C346   C     0.50848   0.54478   0.21563   0.00000  Uiso   1.00
C347   C     0.50602   0.95520   0.28717   0.00000  Uiso   1.00
C348   C     0.47767   0.52428   0.24656   0.00000  Uiso   1.00
C349   C     0.47750   0.97583   0.24733   0.00000  Uiso   1.00
C350   C     0.65920   0.79477   0.19700   0.00000  Uiso   1.00
C351   C     0.47162   0.71861   0.04860   0.00000  Uiso   1.00
C352   C     0.34093   0.70509   0.30301   0.00000  Uiso   1.00
C353   C     0.42245   0.52924   0.31609   0.00000  Uiso   1.00
C354   C     0.37060   0.51010   0.29260   0.00000  Uiso   1.00
C355   C     0.42722   0.97113   0.16181   0.00000  Uiso   1.00
C356   C     0.37457   0.99056   0.16956   0.00000  Uiso   1.00
C357   C     0.56148   0.81771   0.03505   0.00000  Uiso   1.00
C358   C     0.58259   0.69970   0.48119   0.00000  Uiso   1.00
C359   C     0.46254   0.77280   0.44332   0.00000  Uiso   1.00
C360   C     0.47185   0.71888   0.09840   0.00000  Uiso   1.00
C361   C     0.46273   0.77278   0.39358   0.00000  Uiso   1.00
C362   C     0.52819   0.78163   0.10600   0.00000  Uiso   1.00
C363   C     0.53775   0.72678   0.40209   0.00000  Uiso   1.00
C364   C     0.52949   0.78266   0.05614   0.00000  Uiso   1.00
H365   H     0.44479   0.61648   0.30601   0.00000  Uiso   1.00
H366   H     0.43297   0.79110   0.37076   0.00000  Uiso   1.00
H367   H     0.54978   0.80621   0.12884   0.00000  Uiso   1.00
H368   H     0.56685   0.70881   0.38554   0.00000  Uiso   1.00
H369   H     0.35795   0.81405   0.18401   0.00000  Uiso   1.00
H370   H     0.63651   0.77859   0.16548   0.00000  Uiso   1.00
H371   H     0.63472   0.81957   0.21301   0.00000  Uiso   1.00
H372   H     0.64222   0.68644   0.31681   0.00000  Uiso   1.00
H373   H     0.36437   0.67983   0.28647   0.00000  Uiso   1.00
H374   H     0.36480   0.72089   0.33415   0.00000  Uiso   1.00
H375   H     0.34859   0.53572   0.26938   0.00000  Uiso   1.00
H376   H     0.44842   0.88387   0.17825   0.00000  Uiso   1.00
H377   H     0.37709   0.97991   0.27144   0.00000  Uiso   1.00
H378   H     0.34672   0.99996   0.32062   0.00000  Uiso   1.00
H379   H     0.44496   0.50275   0.33739   0.00000  Uiso   1.00
H380   H     0.41360   0.55493   0.34225   0.00000  Uiso   1.00
H381   H     0.35114   0.96505   0.18593   0.00000  Uiso   1.00
H382   H     0.37991   0.52071   0.19249   0.00000  Uiso   1.00
H383   H     0.35273   0.50081   0.13464   0.00000  Uiso   1.00
H384   H     0.45104   0.99749   0.14749   0.00000  Uiso   1.00
H385   H     0.41987   0.94548   0.13322   0.00000  Uiso   1.00
H386   H     0.59167   0.80125   0.01674   0.00000  Uiso   1.00
H387   H     0.53906   0.60608   0.19223   0.00000  Uiso   1.00
H388   H     0.53586   0.83839   0.00884   0.00000  Uiso   1.00
H389   H     0.58144   0.84031   0.06294   0.00000  Uiso   1.00
H390   H     0.58057   0.70078   0.02008   0.00000  Uiso   1.00
H391   H     0.58036   0.66405   0.46988   0.00000  Uiso   1.00
H392   H     0.62091   0.71361   0.47496   0.00000  Uiso   1.00
H393   H     0.53496   0.89386   0.31928   0.00000  Uiso   1.00
H394   H     0.52846   0.52501   0.19161   0.00000  Uiso   1.00
H395   H     0.52433   0.97488   0.31704   0.00000  Uiso   1.00
H396   H     0.44910   0.69346   0.02725   0.00000  Uiso   1.00
H397   H     0.43257   0.79125   0.45820   0.00000  Uiso   1.00
H398   H     0.44943   0.69408   0.11484   0.00000  Uiso   1.00
N399   N     0.50000   0.74999   0.12623   0.00000  Uiso   1.00
N400   N     0.50000   0.75001   0.37376   0.00000  Uiso   1.00
O401   O     0.50000   0.68454   0.28974   0.00000  Uiso   1.00
O402   O     0.50000   0.81547   0.21026   0.00000  Uiso   1.00
O403   O     0.50000   0.68453   0.21026   0.00000  Uiso   1.00
O404   O     0.50000   0.81547   0.28974   0.00000  Uiso   1.00
O405   O     0.42392   0.75000   0.28044   0.00000  Uiso   1.00
O406   O     0.57608   0.75000   0.21955   0.00000  Uiso   1.00
O407   O     0.42392   0.75000   0.20096   0.00000  Uiso   1.00
O408   O     0.57608   0.75001   0.29903   0.00000  Uiso   1.00
Zn409  Zn    0.50000   0.75001   0.30307   0.00000  Uiso   1.00
Zn410  Zn    0.50000   0.75000   0.19693   0.00000  Uiso   1.00
C411   C     0.83247   0.66378   0.24999   0.00000  Uiso   1.00
C412   C     0.87282   0.72585   0.45229   0.00000  Uiso   1.00
C413   C     0.83399   0.75050   0.02672   0.00000  Uiso   1.00
C414   C     0.83439   0.74939   0.47355   0.00000  Uiso   1.00
C415   C     0.73395   0.75085   0.23804   0.00000  Uiso   1.00
C416   C     0.93273   0.74908   0.26198   0.00000  Uiso   1.00
C417   C     0.68017   0.75924   0.23353   0.00000  Uiso   1.00
C418   C     0.98655   0.74072   0.26655   0.00000  Uiso   1.00
C419   C     0.78758   0.54976   0.28008   0.00000  Uiso   1.00
C420   C     0.78969   0.95046   0.20701   0.00000  Uiso   1.00
C421   C     0.79578   0.59593   0.28101   0.00000  Uiso   1.00
C422   C     0.83239   0.83625   0.24978   0.00000  Uiso   1.00
C423   C     0.79776   0.90429   0.20841   0.00000  Uiso   1.00
C424   C     0.82610   0.61597   0.24945   0.00000  Uiso   1.00
C425   C     0.82592   0.88410   0.24866   0.00000  Uiso   1.00
C426   C     0.84858   0.59059   0.21644   0.00000  Uiso   1.00
C427   C     0.84616   0.90939   0.28820   0.00000  Uiso   1.00
C428   C     0.84181   0.54478   0.21563   0.00000  Uiso   1.00
C429   C     0.83936   0.95520   0.28717   0.00000  Uiso   1.00
C430   C     0.81100   0.52428   0.24656   0.00000  Uiso   1.00
C431   C     0.81084   0.97583   0.24733   0.00000  Uiso   1.00
C432   C     0.99254   0.79477   0.19700   0.00000  Uiso   1.00
C433   C     0.80495   0.71861   0.04860   0.00000  Uiso   1.00
C434   C     0.67426   0.70509   0.30301   0.00000  Uiso   1.00
C435   C     0.75578   0.52924   0.31609   0.00000  Uiso   1.00
C436   C     0.70393   0.51010   0.29260   0.00000  Uiso   1.00
C437   C     0.76056   0.97113   0.16181   0.00000  Uiso   1.00
C438   C     0.70790   0.99056   0.16956   0.00000  Uiso   1.00
C439   C     0.89481   0.81771   0.03505   0.00000  Uiso   1.00
C440   C     0.91593   0.69970   0.48119   0.00000  Uiso   1.00
C441   C     0.79587   0.77280   0.44332   0.00000  Uiso   1.00
C442   C     0.80518   0.71888   0.09840   0.00000  Uiso   1.00
C443   C     0.79606   0.77278   0.39358   0.00000  Uiso   1.00
C444   C     0.86152   0.78163   0.10600   0.00000  Uiso   1.00
C445   C     0.87108   0.72678   0.40209   0.00000  Uiso   1.00
C446   C     0.86282   0.78266   0.05614   0.00000  Uiso   1.00
H447   H     0.77813   0.61648   0.30601   0.00000  Uiso   1.00
H448   H     0.76630   0.79110   0.37076   0.00000  Uiso   1.00
H449   H     0.88311   0.80621   0.12884   0.00000  Uiso   1.00
H450   H     0.90019   0.70881   0.38554   0.00000  Uiso   1.00
H451   H     0.69128   0.81405   0.18401   0.00000  Uiso   1.00
H452   H     0.96984   0.77859   0.16548   0.00000  Uiso   1.00
H453   H     0.96805   0.81957   0.21301   0.00000  Uiso   1.00
H454   H     0.97555   0.68644   0.31681   0.00000  Uiso   1.00
H455   H     0.69770   0.67983   0.28647   0.00000  Uiso   1.00
H456   H     0.69813   0.72089   0.33415   0.00000  Uiso   1.00
H457   H     0.68193   0.53572   0.26938   0.00000  Uiso   1.00
H458   H     0.78176   0.88387   0.17825   0.00000  Uiso   1.00
H459   H     0.71042   0.97991   0.27144   0.00000  Uiso   1.00
H460   H     0.68005   0.99996   0.32062   0.00000  Uiso   1.00
H461   H     0.77829   0.50275   0.33739   0.00000  Uiso   1.00
H462   H     0.74693   0.55493   0.34225   0.00000  Uiso   1.00
H463   H     0.68448   0.96505   0.18593   0.00000  Uiso   1.00
H464   H     0.71325   0.52071   0.19249   0.00000  Uiso   1.00
H465   H     0.68606   0.50081   0.13464   0.00000  Uiso   1.00
H466   H     0.78437   0.99749   0.14749   0.00000  Uiso   1.00
H467   H     0.75320   0.94548   0.13322   0.00000  Uiso   1.00
H468   H     0.92500   0.80125   0.01674   0.00000  Uiso   1.00
H469   H     0.87239   0.60608   0.19223   0.00000  Uiso   1.00
H470   H     0.86919   0.83839   0.00884   0.00000  Uiso   1.00
H471   H     0.91477   0.84031   0.06294   0.00000  Uiso   1.00
H472   H     0.91390   0.70078   0.02008   0.00000  Uiso   1.00
H473   H     0.91370   0.66405   0.46988   0.00000  Uiso   1.00
H474   H     0.95424   0.71361   0.47496   0.00000  Uiso   1.00
H475   H     0.86829   0.89386   0.31928   0.00000  Uiso   1.00
H476   H     0.86179   0.52501   0.19161   0.00000  Uiso   1.00
H477   H     0.85767   0.97488   0.31704   0.00000  Uiso   1.00
H478   H     0.78244   0.69346   0.02725   0.00000  Uiso   1.00
H479   H     0.76590   0.79125   0.45820   0.00000  Uiso   1.00
H480   H     0.78276   0.69408   0.11484   0.00000  Uiso   1.00
N481   N     0.83333   0.74999   0.12623   0.00000  Uiso   1.00
N482   N     0.83333   0.75001   0.37376   0.00000  Uiso   1.00
O483   O     0.83334   0.68454   0.28974   0.00000  Uiso   1.00
O484   O     0.83333   0.81547   0.21026   0.00000  Uiso   1.00
O485   O     0.83334   0.68453   0.21026   0.00000  Uiso   1.00
O486   O     0.83333   0.81547   0.28974   0.00000  Uiso   1.00
O487   O     0.75725   0.75000   0.28044   0.00000  Uiso   1.00
O488   O     0.90942   0.75000   0.21955   0.00000  Uiso   1.00
O489   O     0.75725   0.75000   0.20096   0.00000  Uiso   1.00
O490   O     0.90942   0.75001   0.29903   0.00000  Uiso   1.00
Zn491  Zn    0.83333   0.75001   0.30307   0.00000  Uiso   1.00
Zn492  Zn    0.83333   0.75000   0.19693   0.00000  Uiso   1.00
C493   C     0.16580   0.16378   0.74999   0.00000  Uiso   1.00
C494   C     0.20615   0.22585   0.95229   0.00000  Uiso   1.00
C495   C     0.16733   0.25050   0.52672   0.00000  Uiso   1.00
C496   C     0.16772   0.24939   0.97355   0.00000  Uiso   1.00
C497   C     0.06728   0.25085   0.73804   0.00000  Uiso   1.00
C498   C     0.26607   0.24908   0.76198   0.00000  Uiso   1.00
C499   C     0.01350   0.25924   0.73353   0.00000  Uiso   1.00
C500   C     0.31989   0.24072   0.76655   0.00000  Uiso   1.00
C501   C     0.12092   0.04976   0.78008   0.00000  Uiso   1.00
C502   C     0.12302   0.45046   0.70701   0.00000  Uiso   1.00
C503   C     0.12911   0.09593   0.78101   0.00000  Uiso   1.00
C504   C     0.16573   0.33625   0.74978   0.00000  Uiso   1.00
C505   C     0.13109   0.40429   0.70841   0.00000  Uiso   1.00
C506   C     0.15943   0.11597   0.74945   0.00000  Uiso   1.00
C507   C     0.15925   0.38410   0.74866   0.00000  Uiso   1.00
C508   C     0.18192   0.09059   0.71644   0.00000  Uiso   1.00
C509   C     0.17949   0.40939   0.78820   0.00000  Uiso   1.00
C510   C     0.17514   0.04478   0.71563   0.00000  Uiso   1.00
C511   C     0.17269   0.45520   0.78717   0.00000  Uiso   1.00
C512   C     0.14434   0.02428   0.74656   0.00000  Uiso   1.00
C513   C     0.14417   0.47583   0.74733   0.00000  Uiso   1.00
C514   C     0.32587   0.29477   0.69700   0.00000  Uiso   1.00
C515   C     0.13829   0.21861   0.54860   0.00000  Uiso   1.00
C516   C     0.00759   0.20509   0.80301   0.00000  Uiso   1.00
C517   C     0.08911   0.02924   0.81609   0.00000  Uiso   1.00
C518   C     0.03726   0.01010   0.79260   0.00000  Uiso   1.00
C519   C     0.09389   0.47113   0.66181   0.00000  Uiso   1.00
C520   C     0.04123   0.49056   0.66956   0.00000  Uiso   1.00
C521   C     0.22815   0.31771   0.53505   0.00000  Uiso   1.00
C522   C     0.24926   0.19970   0.98119   0.00000  Uiso   1.00
C523   C     0.12920   0.27280   0.94332   0.00000  Uiso   1.00
C524   C     0.13852   0.21888   0.59840   0.00000  Uiso   1.00
C525   C     0.12940   0.27278   0.89358   0.00000  Uiso   1.00
C526   C     0.19485   0.28163   0.60600   0.00000  Uiso   1.00
C527   C     0.20441   0.22678   0.90209   0.00000  Uiso   1.00
C528   C     0.19616   0.28266   0.55614   0.00000  Uiso   1.00
H529   H     0.11146   0.11648   0.80601   0.00000  Uiso   1.00
H530   H     0.09964   0.29110   0.87076   0.00000  Uiso   1.00
H531   H     0.21645   0.30621   0.62884   0.00000  Uiso   1.00
H532   H     0.23352   0.20881   0.88554   0.00000  Uiso   1.00
H533   H     0.02461   0.31405   0.68401   0.00000  Uiso   1.00
H534   H     0.30317   0.27859   0.66548   0.00000  Uiso   1.00
H535   H     0.30139   0.31957   0.71301   0.00000  Uiso   1.00
H536   H     0.30888   0.18644   0.81681   0.00000  Uiso   1.00
H537   H     0.03103   0.17983   0.78647   0.00000  Uiso   1.00
H538   H     0.03147   0.22089   0.83415   0.00000  Uiso   1.00
H539   H     0.01526   0.03572   0.76938   0.00000  Uiso   1.00
H540   H     0.11509   0.38387   0.67825   0.00000  Uiso   1.00
H541   H     0.04375   0.47991   0.77144   0.00000  Uiso   1.00
H542   H     0.01339   0.49996   0.82062   0.00000  Uiso   1.00
H543   H     0.11162   0.00275   0.83739   0.00000  Uiso   1.00
H544   H     0.08027   0.05493   0.84225   0.00000  Uiso   1.00
H545   H     0.01781   0.46505   0.68593   0.00000  Uiso   1.00
H546   H     0.04658   0.02071   0.69249   0.00000  Uiso   1.00
H547   H     0.01940   0.00081   0.63464   0.00000  Uiso   1.00
H548   H     0.11770   0.49749   0.64749   0.00000  Uiso   1.00
H549   H     0.08654   0.44548   0.63322   0.00000  Uiso   1.00
H550   H     0.25833   0.30125   0.51674   0.00000  Uiso   1.00
H551   H     0.20573   0.10608   0.69223   0.00000  Uiso   1.00
H552   H     0.20252   0.33839   0.50884   0.00000  Uiso   1.00
H553   H     0.24811   0.34031   0.56294   0.00000  Uiso   1.00
H554   H     0.24723   0.20078   0.52008   0.00000  Uiso   1.00
H555   H     0.24703   0.16405   0.96988   0.00000  Uiso   1.00
H556   H     0.28757   0.21361   0.97496   0.00000  Uiso   1.00
H557   H     0.20162   0.39386   0.81928   0.00000  Uiso   1.00
H558   H     0.19512   0.02501   0.69161   0.00000  Uiso   1.00
H559   H     0.19100   0.47488   0.81704   0.00000  Uiso   1.00
H560   H     0.11577   0.19346   0.52725   0.00000  Uiso   1.00
H561   H     0.09923   0.29125   0.95820   0.00000  Uiso   1.00
H562   H     0.11610   0.19408   0.61484   0.00000  Uiso   1.00
N563   N     0.16667   0.24999   0.62623   0.00000  Uiso   1.00
N564   N     0.16667   0.25001   0.87376   0.00000  Uiso   1.00
O565   O     0.16667   0.18454   0.78974   0.00000  Uiso   1.00
O566   O     0.16666   0.31547   0.71026   0.00000  Uiso   1.00
O567   O     0.16667   0.18453   0.71026   0.00000  Uiso   1.00
O568   O     0.16666   0.31547   0.78974   0.00000  Uiso   1.00
O569   O     0.09058   0.25000   0.78044   0.00000  Uiso   1.00
O570   O     0.24275   0.25000   0.71955   0.00000  Uiso   1.00
O571   O     0.09058   0.25000   0.70096   0.00000  Uiso   1.00
O572   O     0.24275   0.25001   0.79903   0.00000  Uiso   1.00
Zn573  Zn    0.16667   0.25001   0.80307   0.00000  Uiso   1.00
Zn574  Zn    0.16667   0.25000   0.69693   0.00000  Uiso   1.00
C575   C     0.49913   0.16378   0.74999   0.00000  Uiso   1.00
C576   C     0.53949   0.22585   0.95229   0.00000  Uiso   1.00
C577   C     0.50066   0.25050   0.52672   0.00000  Uiso   1.00
C578   C     0.50106   0.24939   0.97355   0.00000  Uiso   1.00
C579   C     0.40061   0.25085   0.73804   0.00000  Uiso   1.00
C580   C     0.59940   0.24908   0.76198   0.00000  Uiso   1.00
C581   C     0.34684   0.25924   0.73353   0.00000  Uiso   1.00
C582   C     0.65322   0.24072   0.76655   0.00000  Uiso   1.00
C583   C     0.45425   0.04976   0.78008   0.00000  Uiso   1.00
C584   C     0.45635   0.45046   0.70701   0.00000  Uiso   1.00
C585   C     0.46244   0.09593   0.78101   0.00000  Uiso   1.00
C586   C     0.49906   0.33625   0.74978   0.00000  Uiso   1.00
C587   C     0.46443   0.40429   0.70841   0.00000  Uiso   1.00
C588   C     0.49276   0.11597   0.74945   0.00000  Uiso   1.00
C589   C     0.49259   0.38410   0.74866   0.00000  Uiso   1.00
C590   C     0.51525   0.09059   0.71644   0.00000  Uiso   1.00
C591   C     0.51282   0.40939   0.78820   0.00000  Uiso   1.00
C592   C     0.50848   0.04478   0.71563   0.00000  Uiso   1.00
C593   C     0.50602   0.45520   0.78717   0.00000  Uiso   1.00
C594   C     0.47767   0.02428   0.74656   0.00000  Uiso   1.00
C595   C     0.47750   0.47583   0.74733   0.00000  Uiso   1.00
C596   C     0.65920   0.29477   0.69700   0.00000  Uiso   1.00
C597   C     0.47162   0.21861   0.54860   0.00000  Uiso   1.00
C598   C     0.34093   0.20509   0.80301   0.00000  Uiso   1.00
C599   C     0.42245   0.02924   0.81609   0.00000  Uiso   1.00
C600   C     0.37060   0.01010   0.79260   0.00000  Uiso   1.00
C601   C     0.42722   0.47113   0.66181   0.00000  Uiso   1.00
C602   C     0.37457   0.49056   0.66956   0.00000  Uiso   1.00
C603   C     0.56148   0.31771   0.53505   0.00000  Uiso   1.00
C604   C     0.58259   0.19970   0.98119   0.00000  Uiso   1.00
C605   C     0.46254   0.27280   0.94332   0.00000  Uiso   1.00
C606   C     0.47185   0.21888   0.59840   0.00000  Uiso   1.00
C607   C     0.46273   0.27278   0.89358   0.00000  Uiso   1.00
C608   C     0.52819   0.28163   0.60600   0.00000  Uiso   1.00
C609   C     0.53775   0.22678   0.90209   0.00000  Uiso   1.00
C610   C     0.52949   0.28266   0.55614   0.00000  Uiso   1.00
H611   H     0.44479   0.11648   0.80601   0.00000  Uiso   1.00
H612   H     0.43297   0.29110   0.87076   0.00000  Uiso   1.00
H613   H     0.54978   0.30621   0.62884   0.00000  Uiso   1.00
H614   H     0.56685   0.20881   0.88554   0.00000  Uiso   1.00
H615   H     0.35795   0.31405   0.68401   0.00000  Uiso   1.00
H616   H     0.63651   0.27859   0.66548   0.00000  Uiso   1.00
H617   H     0.63472   0.31957   0.71301   0.00000  Uiso   1.00
H618   H     0.64222   0.18644   0.81681   0.00000  Uiso   1.00
H619   H     0.36437   0.17983   0.78647   0.00000  Uiso   1.00
H620   H     0.36480   0.22089   0.83415   0.00000  Uiso   1.00
H621   H     0.34859   0.03572   0.76938   0.00000  Uiso   1.00
H622   H     0.44842   0.38387   0.67825   0.00000  Uiso   1.00
H623   H     0.37709   0.47991   0.77144   0.00000  Uiso   1.00
H624   H     0.34672   0.49996   0.82062   0.00000  Uiso   1.00
H625   H     0.44496   0.00275   0.83739   0.00000  Uiso   1.00
H626   H     0.41360   0.05493   0.84225   0.00000  Uiso   1.00
H627   H     0.35114   0.46505   0.68593   0.00000  Uiso   1.00
H628   H     0.37991   0.02071   0.69249   0.00000  Uiso   1.00
H629   H     0.35273   0.00081   0.63464   0.00000  Uiso   1.00
H630   H     0.45104   0.49749   0.64749   0.00000  Uiso   1.00
H631   H     0.41987   0.44548   0.63322   0.00000  Uiso   1.00
H632   H     0.59167   0.30125   0.51674   0.00000  Uiso   1.00
H633   H     0.53906   0.10608   0.69223   0.00000  Uiso   1.00
H634   H     0.53586   0.33839   0.50884   0.00000  Uiso   1.00
H635   H     0.58144   0.34031   0.56294   0.00000  Uiso   1.00
H636   H     0.58057   0.20078   0.52008   0.00000  Uiso   1.00
H637   H     0.58036   0.16405   0.96988   0.00000  Uiso   1.00
H638   H     0.62091   0.21361   0.97496   0.00000  Uiso   1.00
H639   H     0.53496   0.39386   0.81928   0.00000  Uiso   1.00
H640   H     0.52846   0.02501   0.69161   0.00000  Uiso   1.00
H641   H     0.52433   0.47488   0.81704   0.00000  Uiso   1.00
H642   H     0.44910   0.19346   0.52725   0.00000  Uiso   1.00
H643   H     0.43257   0.29125   0.95820   0.00000  Uiso   1.00
H644   H     0.44943   0.19408   0.61484   0.00000  Uiso   1.00
N645   N     0.50000   0.24999   0.62623   0.00000  Uiso   1.00
N646   N     0.50000   0.25001   0.87376   0.00000  Uiso   1.00
O647   O     0.50000   0.18454   0.78974   0.00000  Uiso   1.00
O648   O     0.50000   0.31547   0.71026   0.00000  Uiso   1.00
O649   O     0.50000   0.18453   0.71026   0.00000  Uiso   1.00
O650   O     0.50000   0.31547   0.78974   0.00000  Uiso   1.00
O651   O     0.42392   0.25000   0.78044   0.00000  Uiso   1.00
O652   O     0.57608   0.25000   0.71955   0.00000  Uiso   1.00
O653   O     0.42392   0.25000   0.70096   0.00000  Uiso   1.00
O654   O     0.57608   0.25001   0.79903   0.00000  Uiso   1.00
Zn655  Zn    0.50000   0.25001   0.80307   0.00000  Uiso   1.00
Zn656  Zn    0.50000   0.25000   0.69693   0.00000  Uiso   1.00
C657   C     0.83247   0.16378   0.74999   0.00000  Uiso   1.00
C658   C     0.87282   0.22585   0.95229   0.00000  Uiso   1.00
C659   C     0.83399   0.25050   0.52672   0.00000  Uiso   1.00
C660   C     0.83439   0.24939   0.97355   0.00000  Uiso   1.00
C661   C     0.73395   0.25085   0.73804   0.00000  Uiso   1.00
C662   C     0.93273   0.24908   0.76198   0.00000  Uiso   1.00
C663   C     0.68017   0.25924   0.73353   0.00000  Uiso   1.00
C664   C     0.98655   0.24072   0.76655   0.00000  Uiso   1.00
C665   C     0.78758   0.04976   0.78008   0.00000  Uiso   1.00
C666   C     0.78969   0.45046   0.70701   0.00000  Uiso   1.00
C667   C     0.79578   0.09593   0.78101   0.00000  Uiso   1.00
C668   C     0.83239   0.33625   0.74978   0.00000  Uiso   1.00
C669   C     0.79776   0.40429   0.70841   0.00000  Uiso   1.00
C670   C     0.82610   0.11597   0.74945   0.00000  Uiso   1.00
C671   C     0.82592   0.38410   0.74866   0.00000  Uiso   1.00
C672   C     0.84858   0.09059   0.71644   0.00000  Uiso   1.00
C673   C     0.84616   0.40939   0.78820   0.00000  Uiso   1.00
C674   C     0.84181   0.04478   0.71563   0.00000  Uiso   1.00
C675   C     0.83936   0.45520   0.78717   0.00000  Uiso   1.00
C676   C     0.81100   0.02428   0.74656   0.00000  Uiso   1.00
C677   C     0.81084   0.47583   0.74733   0.00000  Uiso   1.00
C678   C     0.99254   0.29477   0.69700   0.00000  Uiso   1.00
C679   C     0.80495   0.21861   0.54860   0.00000  Uiso   1.00
C680   C     0.67426   0.20509   0.80301   0.00000  Uiso   1.00
C681   C     0.75578   0.02924   0.81609   0.00000  Uiso   1.00
C682   C     0.70393   0.01010   0.79260   0.00000  Uiso   1.00
C683   C     0.76056   0.47113   0.66181   0.00000  Uiso   1.00
C684   C     0.70790   0.49056   0.66956   0.00000  Uiso   1.00
C685   C     0.89481   0.31771   0.53505   0.00000  Uiso   1.00
C686   C     0.91593   0.19970   0.98119   0.00000  Uiso   1.00
C687   C     0.79587   0.27280   0.94332   0.00000  Uiso   1.00
C688   C     0.80518   0.21888   0.59840   0.00000  Uiso   1.00
C689   C     0.79606   0.27278   0.89358   0.00000  Uiso   1.00
C690   C     0.86152   0.28163   0.60600   0.00000  Uiso   1.00
C691   C     0.87108   0.22678   0.90209   0.00000  Uiso   1.00
C692   C     0.86282   0.28266   0.55614   0.00000  Uiso   1.00
H693   H     0.77813   0.11648   0.80601   0.00000  Uiso   1.00
H694   H     0.76630   0.29110   0.87076   0.00000  Uiso   1.00
H695   H     0.88311   0.30621   0.62884   0.00000  Uiso   1.00
H696   H     0.90019   0.20881   0.88554   0.00000  Uiso   1.00
H697   H     0.69128   0.31405   0.68401   0.00000  Uiso   1.00
H698   H     0.96984   0.27859   0.66548   0.00000  Uiso   1.00
H699   H     0.96805   0.31957   0.71301   0.00000  Uiso   1.00
H700   H     0.97555   0.18644   0.81681   0.00000  Uiso   1.00
H701   H     0.69770   0.17983   0.78647   0.00000  Uiso   1.00
H702   H     0.69813   0.22089   0.83415   0.00000  Uiso   1.00
H703   H     0.68193   0.03572   0.76938   0.00000  Uiso   1.00
H704   H     0.78176   0.38387   0.67825   0.00000  Uiso   1.00
H705   H     0.71042   0.47991   0.77144   0.00000  Uiso   1.00
H706   H     0.68005   0.49996   0.82062   0.00000  Uiso   1.00
H707   H     0.77829   0.00275   0.83739   0.00000  Uiso   1.00
H708   H     0.74693   0.05493   0.84225   0.00000  Uiso   1.00
H709   H     0.68448   0.46505   0.68593   0.00000  Uiso   1.00
H710   H     0.71325   0.02071   0.69249   0.00000  Uiso   1.00
H711   H     0.68606   0.00081   0.63464   0.00000  Uiso   1.00
H712   H     0.78437   0.49749   0.64749   0.00000  Uiso   1.00
H713   H     0.75320   0.44548   0.63322   0.00000  Uiso   1.00
H714   H     0.92500   0.30125   0.51674   0.00000  Uiso   1.00
H715   H     0.87239   0.10608   0.69223   0.00000  Uiso   1.00
H716   H     0.86919   0.33839   0.50884   0.00000  Uiso   1.00
H717   H     0.91477   0.34031   0.56294   0.00000  Uiso   1.00
H718   H     0.91390   0.20078   0.52008   0.00000  Uiso   1.00
H719   H     0.91370   0.16405   0.96988   0.00000  Uiso   1.00
H720   H     0.95424   0.21361   0.97496   0.00000  Uiso   1.00
H721   H     0.86829   0.39386   0.81928   0.00000  Uiso   1.00
H722   H     0.86179   0.02501   0.69161   0.00000  Uiso   1.00
H723   H     0.85767   0.47488   0.81704   0.00000  Uiso   1.00
H724   H     0.78244   0.19346   0.52725   0.00000  Uiso   1.00
H725   H     0.76590   0.29125   0.95820   0.00000  Uiso   1.00
H726   H     0.78276   0.19408   0.61484   0.00000  Uiso   1.00
N727   N     0.83333   0.24999   0.62623   0.00000  Uiso   1.00
N728   N     0.83333   0.25001   0.87376   0.00000  Uiso   1.00
O729   O     0.83334   0.18454   0.78974   0.00000  Uiso   1.00
O730   O     0.83333   0.31547   0.71026   0.00000  Uiso   1.00
O731   O     0.83334   0.18453   0.71026   0.00000  Uiso   1.00
O732   O     0.83333   0.31547   0.78974   0.00000  Uiso   1.00
O733   O     0.75725   0.25000   0.78044   0.00000  Uiso   1.00
O734   O     0.90942   0.25000   0.71955   0.00000  Uiso   1.00
O735   O     0.75725   0.25000   0.70096   0.00000  Uiso   1.00
O736   O     0.90942   0.25001   0.79903   0.00000  Uiso   1.00
Zn737  Zn    0.83333   0.25001   0.80307   0.00000  Uiso   1.00
Zn738  Zn    0.83333   0.25000   0.69693   0.00000  Uiso   1.00
C739   C     0.16580   0.66378   0.74999   0.00000  Uiso   1.00
C740   C     0.20615   0.72585   0.95229   0.00000  Uiso   1.00
C741   C     0.16733   0.75050   0.52672   0.00000  Uiso   1.00
C742   C     0.16772   0.74939   0.97355   0.00000  Uiso   1.00
C743   C     0.06728   0.75085   0.73804   0.00000  Uiso   1.00
C744   C     0.26607   0.74908   0.76198   0.00000  Uiso   1.00
C745   C     0.01350   0.75924   0.73353   0.00000  Uiso   1.00
C746   C     0.31989   0.74072   0.76655   0.00000  Uiso   1.00
C747   C     0.12092   0.54976   0.78008   0.00000  Uiso   1.00
C748   C     0.12302   0.95046   0.70701   0.00000  Uiso   1.00
C749   C     0.12911   0.59593   0.78101   0.00000  Uiso   1.00
C750   C     0.16573   0.83625   0.74978   0.00000  Uiso   1.00
C751   C     0.13109   0.90429   0.70841   0.00000  Uiso   1.00
C752   C     0.15943   0.61597   0.74945   0.00000  Uiso   1.00
C753   C     0.15925   0.88410   0.74866   0.00000  Uiso   1.00
C754   C     0.18192   0.59059   0.71644   0.00000  Uiso   1.00
C755   C     0.17949   0.90939   0.78820   0.00000  Uiso   1.00
C756   C     0.17514   0.54478   0.71563   0.00000  Uiso   1.00
C757   C     0.17269   0.95520   0.78717   0.00000  Uiso   1.00
C758   C     0.14434   0.52428   0.74656   0.00000  Uiso   1.00
C759   C     0.14417   0.97583   0.74733   0.00000  Uiso   1.00
C760   C     0.32587   0.79477   0.69700   0.00000  Uiso   1.00
C761   C     0.13829   0.71861   0.54860   0.00000  Uiso   1.00
C762   C     0.00759   0.70509   0.80301   0.00000  Uiso   1.00
C763   C     0.08911   0.52924   0.81609   0.00000  Uiso   1.00
C764   C     0.03726   0.51010   0.79260   0.00000  Uiso   1.00
C765   C     0.09389   0.97113   0.66181   0.00000  Uiso   1.00
C766   C     0.04123   0.99056   0.66956   0.00000  Uiso   1.00
C767   C     0.22815   0.81771   0.53505   0.00000  Uiso   1.00
C768   C     0.24926   0.69970   0.98119   0.00000  Uiso   1.00
C769   C     0.12920   0.77280   0.94332   0.00000  Uiso   1.00
C770   C     0.13852   0.71888   0.59840   0.00000  Uiso   1.00
C771   C     0.12940   0.77278   0.89358   0.00000  Uiso   1.00
C772   C     0.19485   0.78163   0.60600   0.00000  Uiso   1.00
C773   C     0.20441   0.72678   0.90209   0.00000  Uiso   1.00
C774   C     0.19616   0.78266   0.55614   0.00000  Uiso   1.00
H775   H     0.11146   0.61648   0.80601   0.00000  Uiso   1.00
H776   H     0.09964   0.79110   0.87076   0.00000  Uiso   1.00
H777   H     0.21645   0.80621   0.62884   0.00000  Uiso   1.00
H778   H     0.23352   0.70881   0.88554   0.00000  Uiso   1.00
H779   H     0.02461   0.81405   0.68401   0.00000  Uiso   1.00
H780   H     0.30317   0.77859   0.66548   0.00000  Uiso   1.00
H781   H     0.30139   0.81957   0.71301   0.00000  Uiso   1.00
H782   H     0.30888   0.68644   0.81681   0.00000  Uiso   1.00
H783   H     0.03103   0.67983   0.78647   0.00000  Uiso   1.00
H784   H     0.03147   0.72089   0.83415   0.00000  Uiso   1.00
H785   H     0.01526   0.53572   0.76938   0.00000  Uiso   1.00
H786   H     0.11509   0.88387   0.67825   0.00000  Uiso   1.00
H787   H     0.04375   0.97991   0.77144   0.00000  Uiso   1.00
H788   H     0.01339   0.99996   0.82062   0.00000  Uiso   1.00
H789   H     0.11162   0.50275   0.83739   0.00000  Uiso   1.00
H790   H     0.08027   0.55493   0.84225   0.00000  Uiso   1.00
H791   H     0.01781   0.96505   0.68593   0.00000  Uiso   1.00
H792   H     0.04658   0.52071   0.69249   0.00000  Uiso   1.00
H793   H     0.01940   0.50081   0.63464   0.00000  Uiso   1.00
H794   H     0.11770   0.99749   0.64749   0.00000  Uiso   1.00
H795   H     0.08654   0.94548   0.63322   0.00000  Uiso   1.00
H796   H     0.25833   0.80125   0.51674   0.00000  Uiso   1.00
H797   H     0.20573   0.60608   0.69223   0.00000  Uiso   1.00
H798   H     0.20252   0.83839   0.50884   0.00000  Uiso   1.00
H799   H     0.24811   0.84031   0.56294   0.00000  Uiso   1.00
H800   H     0.24723   0.70078   0.52008   0.00000  Uiso   1.00
H801   H     0.24703   0.66405   0.96988   0.00000  Uiso   1.00
H802   H     0.28757   0.71361   0.97496   0.00000  Uiso   1.00
H803   H     0.20162   0.89386   0.81928   0.00000  Uiso   1.00
H804   H     0.19512   0.52501   0.69161   0.00000  Uiso   1.00
H805   H     0.19100   0.97488   0.81704   0.00000  Uiso   1.00
H806   H     0.11577   0.69346   0.52725   0.00000  Uiso   1.00
H807   H     0.09923   0.79125   0.95820   0.00000  Uiso   1.00
H808   H     0.11610   0.69408   0.61484   0.00000  Uiso   1.00
N809   N     0.16667   0.74999   0.62623   0.00000  Uiso   1.00
N810   N     0.16667   0.75001   0.87376   0.00000  Uiso   1.00
O811   O     0.16667   0.68454   0.78974   0.00000  Uiso   1.00
O812   O     0.16666   0.81547   0.71026   0.00000  Uiso   1.00
O813   O     0.16667   0.68453   0.71026   0.00000  Uiso   1.00
O814   O     0.16666   0.81547   0.78974   0.00000  Uiso   1.00
O815   O     0.09058   0.75000   0.78044   0.00000  Uiso   1.00
O816   O     0.24275   0.75000   0.71955   0.00000  Uiso   1.00
O817   O     0.09058   0.75000   0.70096   0.00000  Uiso   1.00
O818   O     0.24275   0.75001   0.79903   0.00000  Uiso   1.00
Zn819  Zn    0.16667   0.75001   0.80307   0.00000  Uiso   1.00
Zn820  Zn    0.16667   0.75000   0.69693   0.00000  Uiso   1.00
C821   C     0.49913   0.66378   0.74999   0.00000  Uiso   1.00
C822   C     0.53949   0.72585   0.95229   0.00000  Uiso   1.00
C823   C     0.50066   0.75050   0.52672   0.00000  Uiso   1.00
C824   C     0.50106   0.74939   0.97355   0.00000  Uiso   1.00
C825   C     0.40061   0.75085   0.73804   0.00000  Uiso   1.00
C826   C     0.59940   0.74908   0.76198   0.00000  Uiso   1.00
C827   C     0.34684   0.75924   0.73353   0.00000  Uiso   1.00
C828   C     0.65322   0.74072   0.76655   0.00000  Uiso   1.00
C829   C     0.45425   0.54976   0.78008   0.00000  Uiso   1.00
C830   C     0.45635   0.95046   0.70701   0.00000  Uiso   1.00
C831   C     0.46244   0.59593   0.78101   0.00000  Uiso   1.00
C832   C     0.49906   0.83625   0.74978   0.00000  Uiso   1.00
C833   C     0.46443   0.90429   0.70841   0.00000  Uiso   1.00
C834   C     0.49276   0.61597   0.74945   0.00000  Uiso   1.00
C835   C     0.49259   0.88410   0.74866   0.00000  Uiso   1.00
C836   C     0.51525   0.59059   0.71644   0.00000  Uiso   1.00
C837   C     0.51282   0.90939   0.78820   0.00000  Uiso   1.00
C838   C     0.50848   0.54478   0.71563   0.00000  Uiso   1.00
C839   C     0.50602   0.95520   0.78717   0.00000  Uiso   1.00
C840   C     0.47767   0.52428   0.74656   0.00000  Uiso   1.00
C841   C     0.47750   0.97583   0.74733   0.00000  Uiso   1.00
C842   C     0.65920   0.79477   0.69700   0.00000  Uiso   1.00
C843   C     0.47162   0.71861   0.54860   0.00000  Uiso   1.00
C844   C     0.34093   0.70509   0.80301   0.00000  Uiso   1.00
C845   C     0.42245   0.52924   0.81609   0.00000  Uiso   1.00
C846   C     0.37060   0.51010   0.79260   0.00000  Uiso   1.00
C847   C     0.42722   0.97113   0.66181   0.00000  Uiso   1.00
C848   C     0.37457   0.99056   0.66956   0.00000  Uiso   1.00
C849   C     0.56148   0.81771   0.53505   0.00000  Uiso   1.00
C850   C     0.58259   0.69970   0.98119   0.00000  Uiso   1.00
C851   C     0.46254   0.77280   0.94332   0.00000  Uiso   1.00
C852   C     0.47185   0.71888   0.59840   0.00000  Uiso   1.00
C853   C     0.46273   0.77278   0.89358   0.00000  Uiso   1.00
C854   C     0.52819   0.78163   0.60600   0.00000  Uiso   1.00
C855   C     0.53775   0.72678   0.90209   0.00000  Uiso   1.00
C856   C     0.52949   0.78266   0.55614   0.00000  Uiso   1.00
H857   H     0.44479   0.61648   0.80601   0.00000  Uiso   1.00
H858   H     0.43297   0.79110   0.87076   0.00000  Uiso   1.00
H859   H     0.54978   0.80621   0.62884   0.00000  Uiso   1.00
H860   H     0.56685   0.70881   0.88554   0.00000  Uiso   1.00
H861   H     0.35795   0.81405   0.68401   0.00000  Uiso   1.00
H862   H     0.63651   0.77859   0.66548   0.00000  Uiso   1.00
H863   H     0.63472   0.81957   0.71301   0.00000  Uiso   1.00
H864   H     0.64222   0.68644   0.81681   0.00000  Uiso   1.00
H865   H     0.36437   0.67983   0.78647   0.00000  Uiso   1.00
H866   H     0.36480   0.72089   0.83415   0.00000  Uiso   1.00
H867   H     0.34859   0.53572   0.76938   0.00000  Uiso   1.00
H868   H     0.44842   0.88387   0.67825   0.00000  Uiso   1.00
H869   H     0.37709   0.97991   0.77144   0.00000  Uiso   1.00
H870   H     0.34672   0.99996   0.82062   0.00000  Uiso   1.00
H871   H     0.44496   0.50275   0.83739   0.00000  Uiso   1.00
H872   H     0.41360   0.55493   0.84225   0.00000  Uiso   1.00
H873   H     0.35114   0.96505   0.68593   0.00000  Uiso   1.00
H874   H     0.37991   0.52071   0.69249   0.00000  Uiso   1.00
H875   H     0.35273   0.50081   0.63464   0.00000  Uiso   1.00
H876   H     0.45104   0.99749   0.64749   0.00000  Uiso   1.00
H877   H     0.41987   0.94548   0.63322   0.00000  Uiso   1.00
H878   H     0.59167   0.80125   0.51674   0.00000  Uiso   1.00
H879   H     0.53906   0.60608   0.69223   0.00000  Uiso   1.00
H880   H     0.53586   0.83839   0.50884   0.00000  Uiso   1.00
H881   H     0.58144   0.84031   0.56294   0.00000  Uiso   1.00
H882   H     0.58057   0.70078   0.52008   0.00000  Uiso   1.00
H883   H     0.58036   0.66405   0.96988   0.00000  Uiso   1.00
H884   H     0.62091   0.71361   0.97496   0.00000  Uiso   1.00
H885   H     0.53496   0.89386   0.81928   0.00000  Uiso   1.00
H886   H     0.52846   0.52501   0.69161   0.00000  Uiso   1.00
H887   H     0.52433   0.97488   0.81704   0.00000  Uiso   1.00
H888   H     0.44910   0.69346   0.52725   0.00000  Uiso   1.00
H889   H     0.43257   0.79125   0.95820   0.00000  Uiso   1.00
H890   H     0.44943   0.69408   0.61484   0.00000  Uiso   1.00
N891   N     0.50000   0.74999   0.62623   0.00000  Uiso   1.00
N892   N     0.50000   0.75001   0.87376   0.00000  Uiso   1.00
O893   O     0.50000   0.68454   0.78974   0.00000  Uiso   1.00
O894   O     0.50000   0.81547   0.71026   0.00000  Uiso   1.00
O895   O     0.50000   0.68453   0.71026   0.00000  Uiso   1.00
O896   O     0.50000   0.81547   0.78974   0.00000  Uiso   1.00
O897   O     0.42392   0.75000   0.78044   0.00000  Uiso   1.00
O898   O     0.57608   0.75000   0.71955   0.00000  Uiso   1.00
O899   O     0.42392   0.75000   0.70096   0.00000  Uiso   1.00
O900   O     0.57608   0.75001   0.79903   0.00000  Uiso   1.00
Zn901  Zn    0.50000   0.75001   0.80307   0.00000  Uiso   1.00
Zn902  Zn    0.50000   0.75000   0.69693   0.00000  Uiso   1.00
C903   C     0.83247   0.66378   0.74999   0.00000  Uiso   1.00
C904   C     0.87282   0.72585   0.95229   0.00000  Uiso   1.00
C905   C     0.83399   0.75050   0.52672   0.00000  Uiso   1.00
C906   C     0.83439   0.74939   0.97355   0.00000  Uiso   1.00
C907   C     0.73395   0.75085   0.73804   0.00000  Uiso   1.00
C908   C     0.93273   0.74908   0.76198   0.00000  Uiso   1.00
C909   C     0.68017   0.75924   0.73353   0.00000  Uiso   1.00
C910   C     0.98655   0.74072   0.76655   0.00000  Uiso   1.00
C911   C     0.78758   0.54976   0.78008   0.00000  Uiso   1.00
C912   C     0.78969   0.95046   0.70701   0.00000  Uiso   1.00
C913   C     0.79578   0.59593   0.78101   0.00000  Uiso   1.00
C914   C     0.83239   0.83625   0.74978   0.00000  Uiso   1.00
C915   C     0.79776   0.90429   0.70841   0.00000  Uiso   1.00
C916   C     0.82610   0.61597   0.74945   0.00000  Uiso   1.00
C917   C     0.82592   0.88410   0.74866   0.00000  Uiso   1.00
C918   C     0.84858   0.59059   0.71644   0.00000  Uiso   1.00
C919   C     0.84616   0.90939   0.78820   0.00000  Uiso   1.00
C920   C     0.84181   0.54478   0.71563   0.00000  Uiso   1.00
C921   C     0.83936   0.95520   0.78717   0.00000  Uiso   1.00
C922   C     0.81100   0.52428   0.74656   0.00000  Uiso   1.00
C923   C     0.81084   0.97583   0.74733   0.00000  Uiso   1.00
C924   C     0.99254   0.79477   0.69700   0.00000  Uiso   1.00
C925   C     0.80495   0.71861   0.54860   0.00000  Uiso   1.00
C926   C     0.67426   0.70509   0.80301   0.00000  Uiso   1.00
C927   C     0.75578   0.52924   0.81609   0.00000  Uiso   1.00
C928   C     0.70393   0.51010   0.79260   0.00000  Uiso   1.00
C929   C     0.76056   0.97113   0.66181   0.00000  Uiso   1.00
C930   C     0.70790   0.99056   0.66956   0.00000  Uiso   1.00
C931   C     0.89481   0.81771   0.53505   0.00000  Uiso   1.00
C932   C     0.91593   0.69970   0.98119   0.00000  Uiso   1.00
C933   C     0.79587   0.77280   0.94332   0.00000  Uiso   1.00
C934   C     0.80518   0.71888   0.59840   0.00000  Uiso   1.00
C935   C     0.79606   0.77278   0.89358   0.00000  Uiso   1.00
C936   C     0.86152   0.78163   0.60600   0.00000  Uiso   1.00
C937   C     0.87108   0.72678   0.90209   0.00000  Uiso   1.00
C938   C     0.86282   0.78266   0.55614   0.00000  Uiso   1.00
H939   H     0.77813   0.61648   0.80601   0.00000  Uiso   1.00
H940   H     0.76630   0.79110   0.87076   0.00000  Uiso   1.00
H941   H     0.88311   0.80621   0.62884   0.00000  Uiso   1.00
H942   H     0.90019   0.70881   0.88554   0.00000  Uiso   1.00
H943   H     0.69128   0.81405   0.68401   0.00000  Uiso   1.00
H944   H     0.96984   0.77859   0.66548   0.00000  Uiso   1.00
H945   H     0.96805   0.81957   0.71301   0.00000  Uiso   1.00
H946   H     0.97555   0.68644   0.81681   0.00000  Uiso   1.00
H947   H     0.69770   0.67983   0.78647   0.00000  Uiso   1.00
H948   H     0.69813   0.72089   0.83415   0.00000  Uiso   1.00
H949   H     0.68193   0.53572   0.76938   0.00000  Uiso   1.00
H950   H     0.78176   0.88387   0.67825   0.00000  Uiso   1.00
H951   H     0.71042   0.97991   0.77144   0.00000  Uiso   1.00
H952   H     0.68005   0.99996   0.82062   0.00000  Uiso   1.00
H953   H     0.77829   0.50275   0.83739   0.00000  Uiso   1.00
H954   H     0.74693   0.55493   0.84225   0.00000  Uiso   1.00
H955   H     0.68448   0.96505   0.68593   0.00000  Uiso   1.00
H956   H     0.71325   0.52071   0.69249   0.00000  Uiso   1.00
H957   H     0.68606   0.50081   0.63464   0.00000  Uiso   1.00
H958   H     0.78437   0.99749   0.64749   0.00000  Uiso   1.00
H959   H     0.75320   0.94548   0.63322   0.00000  Uiso   1.00
H960   H     0.92500   0.80125   0.51674   0.00000  Uiso   1.00
H961   H     0.87239   0.60608   0.69223   0.00000  Uiso   1.00
H962   H     0.86919   0.83839   0.50884   0.00000  Uiso   1.00
H963   H     0.91477   0.84031   0.56294   0.00000  Uiso   1.00
H964   H     0.91390   0.70078   0.52008   0.00000  Uiso   1.00
H965   H     0.91370   0.66405   0.96988   0.00000  Uiso   1.00
H966   H     0.95424   0.71361   0.97496   0.00000  Uiso   1.00
H967   H     0.86829   0.89386   0.81928   0.00000  Uiso   1.00
H968   H     0.86179   0.52501   0.69161   0.00000  Uiso   1.00
H969   H     0.85767   0.97488   0.81704   0.00000  Uiso   1.00
H970   H     0.78244   0.69346   0.52725   0.00000  Uiso   1.00
H971   H     0.76590   0.79125   0.95820   0.00000  Uiso   1.00
H972   H     0.78276   0.69408   0.61484   0.00000  Uiso   1.00
N973   N     0.83333   0.74999   0.62623   0.00000  Uiso   1.00
N974   N     0.83333   0.75001   0.87376   0.00000  Uiso   1.00
O975   O     0.83334   0.68454   0.78974   0.00000  Uiso   1.00
O976   O     0.83333   0.81547   0.71026   0.00000  Uiso   1.00
O977   O     0.83334   0.68453   0.71026   0.00000  Uiso   1.00
O978   O     0.83333   0.81547   0.78974   0.00000  Uiso   1.00
O979   O     0.75725   0.75000   0.78044   0.00000  Uiso   1.00
O980   O     0.90942   0.75000   0.71955   0.00000  Uiso   1.00
O981   O     0.75725   0.75000   0.70096   0.00000  Uiso   1.00
O982   O     0.90942   0.75001   0.79903   0.00000  Uiso   1.00
Zn983  Zn    0.83333   0.75001   0.80307   0.00000  Uiso   1.00
Zn984  Zn    0.83333   0.75000   0.69693   0.00000  Uiso   1.00
loop_
_geom_bond_atom_site_label_1
_geom_bond_atom_site_label_2
_geom_bond_distance
_geom_bond_site_symmetry_2
_ccdc_geom_bond_type
C1     O75     1.283   .     A
C1     O73     1.282   .     A
C1     C14     1.435   .     S
C2     C35     1.414   .     A
C2     C4      1.418   .     A
C2     C30     1.506   .     S
C3     C23     1.405   .     A
C3     C36     1.415   .     A
C3     C496    1.505   1_554 S
C4     C31     1.406   .     A
C4     C495    1.505   .     S
C5     O79     1.279   .     A
C5     C7      1.403   .     S
C5     O77     1.266   .     A
C6     O78     1.267   .     A
C6     O80     1.279   .     A
C6     C8      1.404   .     S
C7     C172    1.355   1_455 S
C7     C186    1.524   1_455 S
C8     C89     1.355   .     S
C8     C106    1.525   .     S
C9     C25     1.521   .     S
C9     C20     1.416   .     A
C9     C11     1.392   .     A
C10    C27     1.521   .     S
C10    C21     1.416   .     A
C10    C13     1.392   .     A
C11    C14     1.399   .     A
C11    H37     1.084   .     S
C12    O74     1.282   .     A
C12    C15     1.437   .     S
C12    O76     1.284   .     A
C13    C15     1.399   .     A
C13    H48     1.084   .     S
C14    C16     1.391   .     A
C15    C17     1.392   .     A
C16    H59     1.084   .     S
C16    C18     1.377   .     A
C17    C19     1.377   .     A
C17    H65     1.084   .     S
C18    C20     1.400   .     A
C18    H66     1.084   .     S
C19    C21     1.400   .     A
C19    H67     1.084   .     S
C20    C267    1.445   1_545 S
C21    C266    1.445   .     S
C22    H43     1.111   .     S
C22    H42     1.109   .     S
C22    C89     1.524   .     S
C22    H123    1.112   .     S
C23    H68     1.083   .     S
C23    C32     1.407   .     A
C24    H45     1.111   .     S
C24    H46     1.110   .     S
C24    C172    1.525   1_455 S
C24    H208    1.112   1_455 S
C25    C26     1.525   .     S
C25    H51     1.108   .     S
C25    H52     1.112   .     S
C26    H47     1.111   .     S
C26    H295    1.108   1_545 S
C26    H296    1.110   1_545 S
C27    H57     1.112   .     S
C27    H56     1.108   .     S
C27    C28     1.525   .     S
C28    H53     1.111   .     S
C28    H300    1.108   .     S
C28    H301    1.110   .     S
C29    C36     1.504   .     S
C29    H61     1.111   .     S
C29    H60     1.110   .     S
C29    H58     1.110   .     S
C30    H64     1.111   .     S
C30    H63     1.110   .     S
C30    H554    1.108   .     S
C31    C33     1.407   .     A
C31    H69     1.083   .     S
C32    N71     1.363   .     A
C32    H70     1.082   .     S
C33    N72     1.363   .     A
C33    H38     1.082   .     S
C34    H39     1.082   .     S
C34    C36     1.415   .     A
C34    N71     1.364   .     A
C35    N72     1.363   .     A
C35    H40     1.083   .     S
H41    C186    1.112   1_455 S
H44    C106    1.112   .     S
H49    C272    1.108   .     S
H50    C272    1.110   .     S
H54    C274    1.108   1_545 S
H55    C274    1.110   1_545 S
H62    C522    1.108   1_554 S
N71    Zn82    1.998   .     S
N72    Zn81    1.998   .     S
O73    Zn81    1.990   .     S
O74    Zn82    1.990   .     S
O75    Zn82    1.987   .     S
O76    Zn81    1.987   .     S
O77    Zn81    1.986   .     S
O78    Zn82    1.986   .     S
O79    Zn82    1.988   .     S
O80    Zn81    1.988   .     S
C83    O157    1.283   .     A
C83    O155    1.282   .     A
C83    C96     1.435   .     S
C84    C117    1.414   .     A
C84    C86     1.418   .     A
C84    C112    1.506   .     S
C85    C105    1.405   .     A
C85    C118    1.415   .     A
C85    C578    1.505   1_554 S
C86    C113    1.406   .     A
C86    C577    1.505   .     S
C87    O161    1.279   .     A
C87    C89     1.403   .     S
C87    O159    1.266   .     A
C88    O160    1.267   .     A
C88    O162    1.279   .     A
C88    C90     1.404   .     S
C90    C171    1.355   .     S
C90    C188    1.525   .     S
C91    C107    1.521   .     S
C91    C102    1.416   .     A
C91    C93     1.392   .     A
C92    C109    1.521   .     S
C92    C103    1.416   .     A
C92    C95     1.392   .     A
C93    C96     1.399   .     A
C93    H119    1.084   .     S
C94    O156    1.282   .     A
C94    C97     1.437   .     S
C94    O158    1.284   .     A
C95    C97     1.399   .     A
C95    H130    1.084   .     S
C96    C98     1.391   .     A
C97    C99     1.392   .     A
C98    H141    1.084   .     S
C98    C100    1.377   .     A
C99    C101    1.377   .     A
C99    H147    1.084   .     S
C100   C102    1.400   .     A
C100   H148    1.084   .     S
C101   C103    1.400   .     A
C101   H149    1.084   .     S
C102   C349    1.445   1_545 S
C103   C348    1.445   .     S
C104   H125    1.111   .     S
C104   H124    1.109   .     S
C104   C171    1.524   .     S
C104   H205    1.112   .     S
C105   H150    1.083   .     S
C105   C114    1.407   .     A
C106   H127    1.111   .     S
C106   H128    1.110   .     S
C107   C108    1.525   .     S
C107   H133    1.108   .     S
C107   H134    1.112   .     S
C108   H129    1.111   .     S
C108   H377    1.108   1_545 S
C108   H378    1.110   1_545 S
C109   H139    1.112   .     S
C109   H138    1.108   .     S
C109   C110    1.525   .     S
C110   H135    1.111   .     S
C110   H382    1.108   .     S
C110   H383    1.110   .     S
C111   C118    1.504   .     S
C111   H143    1.111   .     S
C111   H142    1.110   .     S
C111   H140    1.110   .     S
C112   H146    1.111   .     S
C112   H145    1.110   .     S
C112   H636    1.108   .     S
C113   C115    1.407   .     A
C113   H151    1.083   .     S
C114   N153    1.363   .     A
C114   H152    1.082   .     S
C115   N154    1.363   .     A
C115   H120    1.082   .     S
C116   H121    1.082   .     S
C116   C118    1.415   .     A
C116   N153    1.364   .     A
C117   N154    1.363   .     A
C117   H122    1.083   .     S
H126   C188    1.112   .     S
H131   C354    1.108   .     S
H132   C354    1.110   .     S
H136   C356    1.108   1_545 S
H137   C356    1.110   1_545 S
H144   C604    1.108   1_554 S
N153   Zn164   1.998   .     S
N154   Zn163   1.998   .     S
O155   Zn163   1.990   .     S
O156   Zn164   1.990   .     S
O157   Zn164   1.987   .     S
O158   Zn163   1.987   .     S
O159   Zn163   1.986   .     S
O160   Zn164   1.986   .     S
O161   Zn164   1.988   .     S
O162   Zn163   1.988   .     S
C165   O239    1.283   .     A
C165   O237    1.282   .     A
C165   C178    1.435   .     S
C166   C199    1.414   .     A
C166   C168    1.418   .     A
C166   C194    1.506   .     S
C167   C187    1.405   .     A
C167   C200    1.415   .     A
C167   C660    1.505   1_554 S
C168   C195    1.406   .     A
C168   C659    1.505   .     S
C169   O243    1.279   .     A
C169   C171    1.403   .     S
C169   O241    1.266   .     A
C170   O242    1.267   .     A
C170   O244    1.279   .     A
C170   C172    1.404   .     S
C172   C7      1.355   1_655 S
C172   C24     1.525   1_655 S
C173   C189    1.521   .     S
C173   C184    1.416   .     A
C173   C175    1.392   .     A
C174   C191    1.521   .     S
C174   C185    1.416   .     A
C174   C177    1.392   .     A
C175   C178    1.399   .     A
C175   H201    1.084   .     S
C176   O238    1.282   .     A
C176   C179    1.437   .     S
C176   O240    1.284   .     A
C177   C179    1.399   .     A
C177   H212    1.084   .     S
C178   C180    1.391   .     A
C179   C181    1.392   .     A
C180   H223    1.084   .     S
C180   C182    1.377   .     A
C181   C183    1.377   .     A
C181   H229    1.084   .     S
C182   C184    1.400   .     A
C182   H230    1.084   .     S
C183   C185    1.400   .     A
C183   H231    1.084   .     S
C184   C431    1.445   1_545 S
C185   C430    1.445   .     S
C186   H207    1.111   .     S
C186   H206    1.109   .     S
C186   C7      1.524   1_655 S
C186   H41     1.112   1_655 S
C187   H232    1.083   .     S
C187   C196    1.407   .     A
C188   H209    1.111   .     S
C188   H210    1.110   .     S
C189   C190    1.525   .     S
C189   H215    1.108   .     S
C189   H216    1.112   .     S
C190   H211    1.111   .     S
C190   H459    1.108   1_545 S
C190   H460    1.110   1_545 S
C191   H221    1.112   .     S
C191   H220    1.108   .     S
C191   C192    1.525   .     S
C192   H217    1.111   .     S
C192   H464    1.108   .     S
C192   H465    1.110   .     S
C193   C200    1.504   .     S
C193   H225    1.111   .     S
C193   H224    1.110   .     S
C193   H222    1.110   .     S
C194   H228    1.111   .     S
C194   H227    1.110   .     S
C194   H718    1.108   .     S
C195   C197    1.407   .     A
C195   H233    1.083   .     S
C196   N235    1.363   .     A
C196   H234    1.082   .     S
C197   N236    1.363   .     A
C197   H202    1.082   .     S
C198   H203    1.082   .     S
C198   C200    1.415   .     A
C198   N235    1.364   .     A
C199   N236    1.363   .     A
C199   H204    1.083   .     S
H208   C24     1.112   1_655 S
H213   C436    1.108   .     S
H214   C436    1.110   .     S
H218   C438    1.108   1_545 S
H219   C438    1.110   1_545 S
H226   C686    1.108   1_554 S
N235   Zn246   1.998   .     S
N236   Zn245   1.998   .     S
O237   Zn245   1.990   .     S
O238   Zn246   1.990   .     S
O239   Zn246   1.987   .     S
O240   Zn245   1.987   .     S
O241   Zn245   1.986   .     S
O242   Zn246   1.986   .     S
O243   Zn246   1.988   .     S
O244   Zn245   1.988   .     S
C247   O321    1.283   .     A
C247   O319    1.282   .     A
C247   C260    1.435   .     S
C248   C281    1.414   .     A
C248   C250    1.418   .     A
C248   C276    1.506   .     S
C249   C269    1.405   .     A
C249   C282    1.415   .     A
C249   C742    1.505   1_554 S
C250   C277    1.406   .     A
C250   C741    1.505   .     S
C251   O325    1.279   .     A
C251   C253    1.403   .     S
C251   O323    1.266   .     A
C252   O324    1.267   .     A
C252   O326    1.279   .     A
C252   C254    1.404   .     S
C253   C418    1.355   1_455 S
C253   C432    1.524   1_455 S
C254   C335    1.355   .     S
C254   C352    1.525   .     S
C255   C271    1.521   .     S
C255   C266    1.416   .     A
C255   C257    1.392   .     A
C256   C273    1.521   .     S
C256   C267    1.416   .     A
C256   C259    1.392   .     A
C257   C260    1.399   .     A
C257   H283    1.084   .     S
C258   O320    1.282   .     A
C258   C261    1.437   .     S
C258   O322    1.284   .     A
C259   C261    1.399   .     A
C259   H294    1.084   .     S
C260   C262    1.391   .     A
C261   C263    1.392   .     A
C262   H305    1.084   .     S
C262   C264    1.377   .     A
C263   C265    1.377   .     A
C263   H311    1.084   .     S
C264   C266    1.400   .     A
C264   H312    1.084   .     S
C265   C267    1.400   .     A
C265   H313    1.084   .     S
C267   C20     1.445   1_565 S
C268   H289    1.111   .     S
C268   H288    1.109   .     S
C268   C335    1.524   .     S
C268   H369    1.112   .     S
C269   H314    1.083   .     S
C269   C278    1.407   .     A
C270   H291    1.111   .     S
C270   H292    1.110   .     S
C270   C418    1.525   1_455 S
C270   H454    1.112   1_455 S
C271   C272    1.525   .     S
C271   H297    1.108   .     S
C271   H298    1.112   .     S
C272   H293    1.111   .     S
C273   H303    1.112   .     S
C273   H302    1.108   .     S
C273   C274    1.525   .     S
C274   H299    1.111   .     S
C274   H54     1.108   1_565 S
C274   H55     1.110   1_565 S
C275   C282    1.504   .     S
C275   H307    1.111   .     S
C275   H306    1.110   .     S
C275   H304    1.110   .     S
C276   H310    1.111   .     S
C276   H309    1.110   .     S
C276   H800    1.108   .     S
C277   C279    1.407   .     A
C277   H315    1.083   .     S
C278   N317    1.363   .     A
C278   H316    1.082   .     S
C279   N318    1.363   .     A
C279   H284    1.082   .     S
C280   H285    1.082   .     S
C280   C282    1.415   .     A
C280   N317    1.364   .     A
C281   N318    1.363   .     A
C281   H286    1.083   .     S
H287   C432    1.112   1_455 S
H290   C352    1.112   .     S
H295   C26     1.108   1_565 S
H296   C26     1.110   1_565 S
H308   C768    1.108   1_554 S
N317   Zn328   1.998   .     S
N318   Zn327   1.998   .     S
O319   Zn327   1.990   .     S
O320   Zn328   1.990   .     S
O321   Zn328   1.987   .     S
O322   Zn327   1.987   .     S
O323   Zn327   1.986   .     S
O324   Zn328   1.986   .     S
O325   Zn328   1.988   .     S
O326   Zn327   1.988   .     S
C329   O403    1.283   .     A
C329   O401    1.282   .     A
C329   C342    1.435   .     S
C330   C363    1.414   .     A
C330   C332    1.418   .     A
C330   C358    1.506   .     S
C331   C351    1.405   .     A
C331   C364    1.415   .     A
C331   C824    1.505   1_554 S
C332   C359    1.406   .     A
C332   C823    1.505   .     S
C333   O407    1.279   .     A
C333   C335    1.403   .     S
C333   O405    1.266   .     A
C334   O406    1.267   .     A
C334   O408    1.279   .     A
C334   C336    1.404   .     S
C336   C417    1.355   .     S
C336   C434    1.525   .     S
C337   C353    1.521   .     S
C337   C348    1.416   .     A
C337   C339    1.392   .     A
C338   C355    1.521   .     S
C338   C349    1.416   .     A
C338   C341    1.392   .     A
C339   C342    1.399   .     A
C339   H365    1.084   .     S
C340   O402    1.282   .     A
C340   C343    1.437   .     S
C340   O404    1.284   .     A
C341   C343    1.399   .     A
C341   H376    1.084   .     S
C342   C344    1.391   .     A
C343   C345    1.392   .     A
C344   H387    1.084   .     S
C344   C346    1.377   .     A
C345   C347    1.377   .     A
C345   H393    1.084   .     S
C346   C348    1.400   .     A
C346   H394    1.084   .     S
C347   C349    1.400   .     A
C347   H395    1.084   .     S
C349   C102    1.445   1_565 S
C350   H371    1.111   .     S
C350   H370    1.109   .     S
C350   C417    1.524   .     S
C350   H451    1.112   .     S
C351   H396    1.083   .     S
C351   C360    1.407   .     A
C352   H373    1.111   .     S
C352   H374    1.110   .     S
C353   C354    1.525   .     S
C353   H379    1.108   .     S
C353   H380    1.112   .     S
C354   H375    1.111   .     S
C355   H385    1.112   .     S
C355   H384    1.108   .     S
C355   C356    1.525   .     S
C356   H381    1.111   .     S
C356   H136    1.108   1_565 S
C356   H137    1.110   1_565 S
C357   C364    1.504   .     S
C357   H389    1.111   .     S
C357   H388    1.110   .     S
C357   H386    1.110   .     S
C358   H392    1.111   .     S
C358   H391    1.110   .     S
C358   H882    1.108   .     S
C359   C361    1.407   .     A
C359   H397    1.083   .     S
C360   N399    1.363   .     A
C360   H398    1.082   .     S
C361   N400    1.363   .     A
C361   H366    1.082   .     S
C362   H367    1.082   .     S
C362   C364    1.415   .     A
C362   N399    1.364   .     A
C363   N400    1.363   .     A
C363   H368    1.083   .     S
H372   C434    1.112   .     S
H377   C108    1.108   1_565 S
H378   C108    1.110   1_565 S
H390   C850    1.108   1_554 S
N399   Zn410   1.998   .     S
N400   Zn409   1.998   .     S
O401   Zn409   1.990   .     S
O402   Zn410   1.990   .     S
O403   Zn410   1.987   .     S
O404   Zn409   1.987   .     S
O405   Zn409   1.986   .     S
O406   Zn410   1.986   .     S
O407   Zn410   1.988   .     S
O408   Zn409   1.988   .     S
C411   O485    1.283   .     A
C411   O483    1.282   .     A
C411   C424    1.435   .     S
C412   C445    1.414   .     A
C412   C414    1.418   .     A
C412   C440    1.506   .     S
C413   C433    1.405   .     A
C413   C446    1.415   .     A
C413   C906    1.505   1_554 S
C414   C441    1.406   .     A
C414   C905    1.505   .     S
C415   O489    1.279   .     A
C415   C417    1.403   .     S
C415   O487    1.266   .     A
C416   O488    1.267   .     A
C416   O490    1.279   .     A
C416   C418    1.404   .     S
C418   C253    1.355   1_655 S
C418   C270    1.525   1_655 S
C419   C435    1.521   .     S
C419   C430    1.416   .     A
C419   C421    1.392   .     A
C420   C437    1.521   .     S
C420   C431    1.416   .     A
C420   C423    1.392   .     A
C421   C424    1.399   .     A
C421   H447    1.084   .     S
C422   O484    1.282   .     A
C422   C425    1.437   .     S
C422   O486    1.284   .     A
C423   C425    1.399   .     A
C423   H458    1.084   .     S
C424   C426    1.391   .     A
C425   C427    1.392   .     A
C426   H469    1.084   .     S
C426   C428    1.377   .     A
C427   C429    1.377   .     A
C427   H475    1.084   .     S
C428   C430    1.400   .     A
C428   H476    1.084   .     S
C429   C431    1.400   .     A
C429   H477    1.084   .     S
C431   C184    1.445   1_565 S
C432   H453    1.111   .     S
C432   H452    1.109   .     S
C432   C253    1.524   1_655 S
C432   H287    1.112   1_655 S
C433   H478    1.083   .     S
C433   C442    1.407   .     A
C434   H455    1.111   .     S
C434   H456    1.110   .     S
C435   C436    1.525   .     S
C435   H461    1.108   .     S
C435   H462    1.112   .     S
C436   H457    1.111   .     S
C437   H467    1.112   .     S
C437   H466    1.108   .     S
C437   C438    1.525   .     S
C438   H463    1.111   .     S
C438   H218    1.108   1_565 S
C438   H219    1.110   1_565 S
C439   C446    1.504   .     S
C439   H471    1.111   .     S
C439   H470    1.110   .     S
C439   H468    1.110   .     S
C440   H474    1.111   .     S
C440   H473    1.110   .     S
C440   H964    1.108   .     S
C441   C443    1.407   .     A
C441   H479    1.083   .     S
C442   N481    1.363   .     A
C442   H480    1.082   .     S
C443   N482    1.363   .     A
C443   H448    1.082   .     S
C444   H449    1.082   .     S
C444   C446    1.415   .     A
C444   N481    1.364   .     A
C445   N482    1.363   .     A
C445   H450    1.083   .     S
H454   C270    1.112   1_655 S
H459   C190    1.108   1_565 S
H460   C190    1.110   1_565 S
H472   C932    1.108   1_554 S
N481   Zn492   1.998   .     S
N482   Zn491   1.998   .     S
O483   Zn491   1.990   .     S
O484   Zn492   1.990   .     S
O485   Zn492   1.987   .     S
O486   Zn491   1.987   .     S
O487   Zn491   1.986   .     S
O488   Zn492   1.986   .     S
O489   Zn492   1.988   .     S
O490   Zn491   1.988   .     S
C493   O567    1.283   .     A
C493   O565    1.282   .     A
C493   C506    1.435   .     S
C494   C527    1.414   .     A
C494   C496    1.418   .     A
C494   C522    1.506   .     S
C495   C515    1.405   .     A
C495   C528    1.415   .     A
C496   C523    1.406   .     A
C496   C3      1.505   1_556 S
C497   O571    1.279   .     A
C497   C499    1.403   .     S
C497   O569    1.266   .     A
C498   O570    1.267   .     A
C498   O572    1.279   .     A
C498   C500    1.404   .     S
C499   C664    1.355   1_455 S
C499   C678    1.524   1_455 S
C500   C581    1.355   .     S
C500   C598    1.525   .     S
C501   C517    1.521   .     S
C501   C512    1.416   .     A
C501   C503    1.392   .     A
C502   C519    1.521   .     S
C502   C513    1.416   .     A
C502   C505    1.392   .     A
C503   C506    1.399   .     A
C503   H529    1.084   .     S
C504   O566    1.282   .     A
C504   C507    1.437   .     S
C504   O568    1.284   .     A
C505   C507    1.399   .     A
C505   H540    1.084   .     S
C506   C508    1.391   .     A
C507   C509    1.392   .     A
C508   H551    1.084   .     S
C508   C510    1.377   .     A
C509   C511    1.377   .     A
C509   H557    1.084   .     S
C510   C512    1.400   .     A
C510   H558    1.084   .     S
C511   C513    1.400   .     A
C511   H559    1.084   .     S
C512   C759    1.445   1_545 S
C513   C758    1.445   .     S
C514   H535    1.111   .     S
C514   H534    1.109   .     S
C514   C581    1.524   .     S
C514   H615    1.112   .     S
C515   H560    1.083   .     S
C515   C524    1.407   .     A
C516   H537    1.111   .     S
C516   H538    1.110   .     S
C516   C664    1.525   1_455 S
C516   H700    1.112   1_455 S
C517   C518    1.525   .     S
C517   H543    1.108   .     S
C517   H544    1.112   .     S
C518   H539    1.111   .     S
C518   H787    1.108   1_545 S
C518   H788    1.110   1_545 S
C519   H549    1.112   .     S
C519   H548    1.108   .     S
C519   C520    1.525   .     S
C520   H545    1.111   .     S
C520   H792    1.108   .     S
C520   H793    1.110   .     S
C521   C528    1.504   .     S
C521   H553    1.111   .     S
C521   H552    1.110   .     S
C521   H550    1.110   .     S
C522   H556    1.111   .     S
C522   H555    1.110   .     S
C522   H62     1.108   1_556 S
C523   C525    1.407   .     A
C523   H561    1.083   .     S
C524   N563    1.363   .     A
C524   H562    1.082   .     S
C525   N564    1.363   .     A
C525   H530    1.082   .     S
C526   H531    1.082   .     S
C526   C528    1.415   .     A
C526   N563    1.364   .     A
C527   N564    1.363   .     A
C527   H532    1.083   .     S
H533   C678    1.112   1_455 S
H536   C598    1.112   .     S
H541   C764    1.108   .     S
H542   C764    1.110   .     S
H546   C766    1.108   1_545 S
H547   C766    1.110   1_545 S
N563   Zn574   1.998   .     S
N564   Zn573   1.998   .     S
O565   Zn573   1.990   .     S
O566   Zn574   1.990   .     S
O567   Zn574   1.987   .     S
O568   Zn573   1.987   .     S
O569   Zn573   1.986   .     S
O570   Zn574   1.986   .     S
O571   Zn574   1.988   .     S
O572   Zn573   1.988   .     S
C575   O649    1.283   .     A
C575   O647    1.282   .     A
C575   C588    1.435   .     S
C576   C609    1.414   .     A
C576   C578    1.418   .     A
C576   C604    1.506   .     S
C577   C597    1.405   .     A
C577   C610    1.415   .     A
C578   C605    1.406   .     A
C578   C85     1.505   1_556 S
C579   O653    1.279   .     A
C579   C581    1.403   .     S
C579   O651    1.266   .     A
C580   O652    1.267   .     A
C580   O654    1.279   .     A
C580   C582    1.404   .     S
C582   C663    1.355   .     S
C582   C680    1.525   .     S
C583   C599    1.521   .     S
C583   C594    1.416   .     A
C583   C585    1.392   .     A
C584   C601    1.521   .     S
C584   C595    1.416   .     A
C584   C587    1.392   .     A
C585   C588    1.399   .     A
C585   H611    1.084   .     S
C586   O648    1.282   .     A
C586   C589    1.437   .     S
C586   O650    1.284   .     A
C587   C589    1.399   .     A
C587   H622    1.084   .     S
C588   C590    1.391   .     A
C589   C591    1.392   .     A
C590   H633    1.084   .     S
C590   C592    1.377   .     A
C591   C593    1.377   .     A
C591   H639    1.084   .     S
C592   C594    1.400   .     A
C592   H640    1.084   .     S
C593   C595    1.400   .     A
C593   H641    1.084   .     S
C594   C841    1.445   1_545 S
C595   C840    1.445   .     S
C596   H617    1.111   .     S
C596   H616    1.109   .     S
C596   C663    1.524   .     S
C596   H697    1.112   .     S
C597   H642    1.083   .     S
C597   C606    1.407   .     A
C598   H619    1.111   .     S
C598   H620    1.110   .     S
C599   C600    1.525   .     S
C599   H625    1.108   .     S
C599   H626    1.112   .     S
C600   H621    1.111   .     S
C600   H869    1.108   1_545 S
C600   H870    1.110   1_545 S
C601   H631    1.112   .     S
C601   H630    1.108   .     S
C601   C602    1.525   .     S
C602   H627    1.111   .     S
C602   H874    1.108   .     S
C602   H875    1.110   .     S
C603   C610    1.504   .     S
C603   H635    1.111   .     S
C603   H634    1.110   .     S
C603   H632    1.110   .     S
C604   H638    1.111   .     S
C604   H637    1.110   .     S
C604   H144    1.108   1_556 S
C605   C607    1.407   .     A
C605   H643    1.083   .     S
C606   N645    1.363   .     A
C606   H644    1.082   .     S
C607   N646    1.363   .     A
C607   H612    1.082   .     S
C608   H613    1.082   .     S
C608   C610    1.415   .     A
C608   N645    1.364   .     A
C609   N646    1.363   .     A
C609   H614    1.083   .     S
H618   C680    1.112   .     S
H623   C846    1.108   .     S
H624   C846    1.110   .     S
H628   C848    1.108   1_545 S
H629   C848    1.110   1_545 S
N645   Zn656   1.998   .     S
N646   Zn655   1.998   .     S
O647   Zn655   1.990   .     S
O648   Zn656   1.990   .     S
O649   Zn656   1.987   .     S
O650   Zn655   1.987   .     S
O651   Zn655   1.986   .     S
O652   Zn656   1.986   .     S
O653   Zn656   1.988   .     S
O654   Zn655   1.988   .     S
C657   O731    1.283   .     A
C657   O729    1.282   .     A
C657   C670    1.435   .     S
C658   C691    1.414   .     A
C658   C660    1.418   .     A
C658   C686    1.506   .     S
C659   C679    1.405   .     A
C659   C692    1.415   .     A
C660   C687    1.406   .     A
C660   C167    1.505   1_556 S
C661   O735    1.279   .     A
C661   C663    1.403   .     S
C661   O733    1.266   .     A
C662   O734    1.267   .     A
C662   O736    1.279   .     A
C662   C664    1.404   .     S
C664   C499    1.355   1_655 S
C664   C516    1.525   1_655 S
C665   C681    1.521   .     S
C665   C676    1.416   .     A
C665   C667    1.392   .     A
C666   C683    1.521   .     S
C666   C677    1.416   .     A
C666   C669    1.392   .     A
C667   C670    1.399   .     A
C667   H693    1.084   .     S
C668   O730    1.282   .     A
C668   C671    1.437   .     S
C668   O732    1.284   .     A
C669   C671    1.399   .     A
C669   H704    1.084   .     S
C670   C672    1.391   .     A
C671   C673    1.392   .     A
C672   H715    1.084   .     S
C672   C674    1.377   .     A
C673   C675    1.377   .     A
C673   H721    1.084   .     S
C674   C676    1.400   .     A
C674   H722    1.084   .     S
C675   C677    1.400   .     A
C675   H723    1.084   .     S
C676   C923    1.445   1_545 S
C677   C922    1.445   .     S
C678   H699    1.111   .     S
C678   H698    1.109   .     S
C678   C499    1.524   1_655 S
C678   H533    1.112   1_655 S
C679   H724    1.083   .     S
C679   C688    1.407   .     A
C680   H701    1.111   .     S
C680   H702    1.110   .     S
C681   C682    1.525   .     S
C681   H707    1.108   .     S
C681   H708    1.112   .     S
C682   H703    1.111   .     S
C682   H951    1.108   1_545 S
C682   H952    1.110   1_545 S
C683   H713    1.112   .     S
C683   H712    1.108   .     S
C683   C684    1.525   .     S
C684   H709    1.111   .     S
C684   H956    1.108   .     S
C684   H957    1.110   .     S
C685   C692    1.504   .     S
C685   H717    1.111   .     S
C685   H716    1.110   .     S
C685   H714    1.110   .     S
C686   H720    1.111   .     S
C686   H719    1.110   .     S
C686   H226    1.108   1_556 S
C687   C689    1.407   .     A
C687   H725    1.083   .     S
C688   N727    1.363   .     A
C688   H726    1.082   .     S
C689   N728    1.363   .     A
C689   H694    1.082   .     S
C690   H695    1.082   .     S
C690   C692    1.415   .     A
C690   N727    1.364   .     A
C691   N728    1.363   .     A
C691   H696    1.083   .     S
H700   C516    1.112   1_655 S
H705   C928    1.108   .     S
H706   C928    1.110   .     S
H710   C930    1.108   1_545 S
H711   C930    1.110   1_545 S
N727   Zn738   1.998   .     S
N728   Zn737   1.998   .     S
O729   Zn737   1.990   .     S
O730   Zn738   1.990   .     S
O731   Zn738   1.987   .     S
O732   Zn737   1.987   .     S
O733   Zn737   1.986   .     S
O734   Zn738   1.986   .     S
O735   Zn738   1.988   .     S
O736   Zn737   1.988   .     S
C739   O813    1.283   .     A
C739   O811    1.282   .     A
C739   C752    1.435   .     S
C740   C773    1.414   .     A
C740   C742    1.418   .     A
C740   C768    1.506   .     S
C741   C761    1.405   .     A
C741   C774    1.415   .     A
C742   C769    1.406   .     A
C742   C249    1.505   1_556 S
C743   O817    1.279   .     A
C743   C745    1.403   .     S
C743   O815    1.266   .     A
C744   O816    1.267   .     A
C744   O818    1.279   .     A
C744   C746    1.404   .     S
C745   C910    1.355   1_455 S
C745   C924    1.524   1_455 S
C746   C827    1.355   .     S
C746   C844    1.525   .     S
C747   C763    1.521   .     S
C747   C758    1.416   .     A
C747   C749    1.392   .     A
C748   C765    1.521   .     S
C748   C759    1.416   .     A
C748   C751    1.392   .     A
C749   C752    1.399   .     A
C749   H775    1.084   .     S
C750   O812    1.282   .     A
C750   C753    1.437   .     S
C750   O814    1.284   .     A
C751   C753    1.399   .     A
C751   H786    1.084   .     S
C752   C754    1.391   .     A
C753   C755    1.392   .     A
C754   H797    1.084   .     S
C754   C756    1.377   .     A
C755   C757    1.377   .     A
C755   H803    1.084   .     S
C756   C758    1.400   .     A
C756   H804    1.084   .     S
C757   C759    1.400   .     A
C757   H805    1.084   .     S
C759   C512    1.445   1_565 S
C760   H781    1.111   .     S
C760   H780    1.109   .     S
C760   C827    1.524   .     S
C760   H861    1.112   .     S
C761   H806    1.083   .     S
C761   C770    1.407   .     A
C762   H783    1.111   .     S
C762   H784    1.110   .     S
C762   C910    1.525   1_455 S
C762   H946    1.112   1_455 S
C763   C764    1.525   .     S
C763   H789    1.108   .     S
C763   H790    1.112   .     S
C764   H785    1.111   .     S
C765   H795    1.112   .     S
C765   H794    1.108   .     S
C765   C766    1.525   .     S
C766   H791    1.111   .     S
C766   H546    1.108   1_565 S
C766   H547    1.110   1_565 S
C767   C774    1.504   .     S
C767   H799    1.111   .     S
C767   H798    1.110   .     S
C767   H796    1.110   .     S
C768   H802    1.111   .     S
C768   H801    1.110   .     S
C768   H308    1.108   1_556 S
C769   C771    1.407   .     A
C769   H807    1.083   .     S
C770   N809    1.363   .     A
C770   H808    1.082   .     S
C771   N810    1.363   .     A
C771   H776    1.082   .     S
C772   H777    1.082   .     S
C772   C774    1.415   .     A
C772   N809    1.364   .     A
C773   N810    1.363   .     A
C773   H778    1.083   .     S
H779   C924    1.112   1_455 S
H782   C844    1.112   .     S
H787   C518    1.108   1_565 S
H788   C518    1.110   1_565 S
N809   Zn820   1.998   .     S
N810   Zn819   1.998   .     S
O811   Zn819   1.990   .     S
O812   Zn820   1.990   .     S
O813   Zn820   1.987   .     S
O814   Zn819   1.987   .     S
O815   Zn819   1.986   .     S
O816   Zn820   1.986   .     S
O817   Zn820   1.988   .     S
O818   Zn819   1.988   .     S
C821   O895    1.283   .     A
C821   O893    1.282   .     A
C821   C834    1.435   .     S
C822   C855    1.414   .     A
C822   C824    1.418   .     A
C822   C850    1.506   .     S
C823   C843    1.405   .     A
C823   C856    1.415   .     A
C824   C851    1.406   .     A
C824   C331    1.505   1_556 S
C825   O899    1.279   .     A
C825   C827    1.403   .     S
C825   O897    1.266   .     A
C826   O898    1.267   .     A
C826   O900    1.279   .     A
C826   C828    1.404   .     S
C828   C909    1.355   .     S
C828   C926    1.525   .     S
C829   C845    1.521   .     S
C829   C840    1.416   .     A
C829   C831    1.392   .     A
C830   C847    1.521   .     S
C830   C841    1.416   .     A
C830   C833    1.392   .     A
C831   C834    1.399   .     A
C831   H857    1.084   .     S
C832   O894    1.282   .     A
C832   C835    1.437   .     S
C832   O896    1.284   .     A
C833   C835    1.399   .     A
C833   H868    1.084   .     S
C834   C836    1.391   .     A
C835   C837    1.392   .     A
C836   H879    1.084   .     S
C836   C838    1.377   .     A
C837   C839    1.377   .     A
C837   H885    1.084   .     S
C838   C840    1.400   .     A
C838   H886    1.084   .     S
C839   C841    1.400   .     A
C839   H887    1.084   .     S
C841   C594    1.445   1_565 S
C842   H863    1.111   .     S
C842   H862    1.109   .     S
C842   C909    1.524   .     S
C842   H943    1.112   .     S
C843   H888    1.083   .     S
C843   C852    1.407   .     A
C844   H865    1.111   .     S
C844   H866    1.110   .     S
C845   C846    1.525   .     S
C845   H871    1.108   .     S
C845   H872    1.112   .     S
C846   H867    1.111   .     S
C847   H877    1.112   .     S
C847   H876    1.108   .     S
C847   C848    1.525   .     S
C848   H873    1.111   .     S
C848   H628    1.108   1_565 S
C848   H629    1.110   1_565 S
C849   C856    1.504   .     S
C849   H881    1.111   .     S
C849   H880    1.110   .     S
C849   H878    1.110   .     S
C850   H884    1.111   .     S
C850   H883    1.110   .     S
C850   H390    1.108   1_556 S
C851   C853    1.407   .     A
C851   H889    1.083   .     S
C852   N891    1.363   .     A
C852   H890    1.082   .     S
C853   N892    1.363   .     A
C853   H858    1.082   .     S
C854   H859    1.082   .     S
C854   C856    1.415   .     A
C854   N891    1.364   .     A
C855   N892    1.363   .     A
C855   H860    1.083   .     S
H864   C926    1.112   .     S
H869   C600    1.108   1_565 S
H870   C600    1.110   1_565 S
N891   Zn902   1.998   .     S
N892   Zn901   1.998   .     S
O893   Zn901   1.990   .     S
O894   Zn902   1.990   .     S
O895   Zn902   1.987   .     S
O896   Zn901   1.987   .     S
O897   Zn901   1.986   .     S
O898   Zn902   1.986   .     S
O899   Zn902   1.988   .     S
O900   Zn901   1.988   .     S
C903   O977    1.283   .     A
C903   O975    1.282   .     A
C903   C916    1.435   .     S
C904   C937    1.414   .     A
C904   C906    1.418   .     A
C904   C932    1.506   .     S
C905   C925    1.405   .     A
C905   C938    1.415   .     A
C906   C933    1.406   .     A
C906   C413    1.505   1_556 S
C907   O981    1.279   .     A
C907   C909    1.403   .     S
C907   O979    1.266   .     A
C908   O980    1.267   .     A
C908   O982    1.279   .     A
C908   C910    1.404   .     S
C910   C745    1.355   1_655 S
C910   C762    1.525   1_655 S
C911   C927    1.521   .     S
C911   C922    1.416   .     A
C911   C913    1.392   .     A
C912   C929    1.521   .     S
C912   C923    1.416   .     A
C912   C915    1.392   .     A
C913   C916    1.399   .     A
C913   H939    1.084   .     S
C914   O976    1.282   .     A
C914   C917    1.437   .     S
C914   O978    1.284   .     A
C915   C917    1.399   .     A
C915   H950    1.084   .     S
C916   C918    1.391   .     A
C917   C919    1.392   .     A
C918   H961    1.084   .     S
C918   C920    1.377   .     A
C919   C921    1.377   .     A
C919   H967    1.084   .     S
C920   C922    1.400   .     A
C920   H968    1.084   .     S
C921   C923    1.400   .     A
C921   H969    1.084   .     S
C923   C676    1.445   1_565 S
C924   H945    1.111   .     S
C924   H944    1.109   .     S
C924   C745    1.524   1_655 S
C924   H779    1.112   1_655 S
C925   H970    1.083   .     S
C925   C934    1.407   .     A
C926   H947    1.111   .     S
C926   H948    1.110   .     S
C927   C928    1.525   .     S
C927   H953    1.108   .     S
C927   H954    1.112   .     S
C928   H949    1.111   .     S
C929   H959    1.112   .     S
C929   H958    1.108   .     S
C929   C930    1.525   .     S
C930   H955    1.111   .     S
C930   H710    1.108   1_565 S
C930   H711    1.110   1_565 S
C931   C938    1.504   .     S
C931   H963    1.111   .     S
C931   H962    1.110   .     S
C931   H960    1.110   .     S
C932   H966    1.111   .     S
C932   H965    1.110   .     S
C932   H472    1.108   1_556 S
C933   C935    1.407   .     A
C933   H971    1.083   .     S
C934   N973    1.363   .     A
C934   H972    1.082   .     S
C935   N974    1.363   .     A
C935   H940    1.082   .     S
C936   H941    1.082   .     S
C936   C938    1.415   .     A
C936   N973    1.364   .     A
C937   N974    1.363   .     A
C937   H942    1.083   .     S
H946   C762    1.112   1_655 S
H951   C682    1.108   1_565 S
H952   C682    1.110   1_565 S
N973   Zn984   1.998   .     S
N974   Zn983   1.998   .     S
O975   Zn983   1.990   .     S
O976   Zn984   1.990   .     S
O977   Zn984   1.987   .     S
O978   Zn983   1.987   .     S
O979   Zn983   1.986   .     S
O980   Zn984   1.986   .     S
O981   Zn984   1.988   .     S
O982   Zn983   1.988   .     S
