data_str_m1_o10_o16_pcu_sym.58
_audit_creation_date              2020-01-03
_audit_creation_method            'Materials Studio'
_symmetry_space_group_name_H-M    'P1'
_symmetry_Int_Tables_number       1
_symmetry_cell_setting            triclinic
loop_
_symmetry_equiv_pos_as_xyz
  x,y,z
_cell_length_a                    32.7337
_cell_length_b                    32.4623
_cell_length_c                    31.0112
_cell_angle_alpha                 95.8630
_cell_angle_beta                  74.8255
_cell_angle_gamma                 98.2768
loop_
_atom_site_label
_atom_site_type_symbol
_atom_site_fract_x
_atom_site_fract_y
_atom_site_fract_z
_atom_site_U_iso_or_equiv
_atom_site_adp_type
_atom_site_occupancy
C1     C     0.05326   0.16019   0.25918   0.00000  Uiso   1.00
C2     C     0.16638   0.15334   0.05920   0.00000  Uiso   1.00
C3     C     0.23672   0.13752   0.05723   0.00000  Uiso   1.00
C4     C     0.28069   0.17361   0.24045   0.00000  Uiso   1.00
C5     C     0.13743   0.18824   0.42006   0.00000  Uiso   1.00
C6     C     0.32599   0.17608   0.23855   0.00000  Uiso   1.00
C7     C     0.00782   0.15527   0.26567   0.00000  Uiso   1.00
C8     C     0.18058   0.32257   0.23634   0.00000  Uiso   1.00
C9     C     0.15244   0.01176   0.26410   0.00000  Uiso   1.00
C10    C     0.15637   0.05589   0.26021   0.00000  Uiso   1.00
C11    C     0.17667   0.27791   0.24013   0.00000  Uiso   1.00
C12    C     0.08060   0.18868   0.48802   0.00000  Uiso   1.00
C13    C     0.18567   0.14829   0.12943   0.00000  Uiso   1.00
C14    C     0.14885   0.18475   0.37082   0.00000  Uiso   1.00
C15    C     0.25057   0.14553   0.01236   0.00000  Uiso   1.00
C16    C     0.19518   0.14292   0.08097   0.00000  Uiso   1.00
C17    C     0.09502   0.19290   0.44232   0.00000  Uiso   1.00
C18    C     0.31414   0.12522   0.30018   0.00000  Uiso   1.00
C19    C     0.00578   0.10578   0.32671   0.00000  Uiso   1.00
C20    C     0.28532   0.18358   0.42449   0.00000  Uiso   1.00
C21    C     0.10781   0.17860   0.01201   0.00000  Uiso   1.00
C22    C     0.15117   0.17435   0.49088   0.00000  Uiso   1.00
C23    C     0.16641   0.18170   0.44477   0.00000  Uiso   1.00
C24    C     0.17973   0.16262   0.01376   0.00000  Uiso   1.00
C25    C     0.22353   0.16090   0.49080   0.00000  Uiso   1.00
C26    C     0.23919   0.17494   0.44717   0.00000  Uiso   1.00
C27    C     0.21037   0.18393   0.42451   0.00000  Uiso   1.00
H28    H     0.25913   0.12912   0.07412   0.00000  Uiso   1.00
H29    H     0.01469   0.19577   0.21409   0.00000  Uiso   1.00
H30    H     0.02891   0.08638   0.30401   0.00000  Uiso   1.00
H31    H     0.02291   0.13048   0.34529   0.00000  Uiso   1.00
H32    H     0.31661   0.08543   0.35140   0.00000  Uiso   1.00
H33    H     0.29027   0.14210   0.32511   0.00000  Uiso   1.00
H34    H     0.29731   0.09923   0.28276   0.00000  Uiso   1.00
H35    H     0.29530   0.18397   0.38835   0.00000  Uiso   1.00
H36    H     0.20652   0.00390   0.21080   0.00000  Uiso   1.00
H37    H     0.12622   0.33124   0.28985   0.00000  Uiso   1.00
H38    H     0.28284   0.14025   0.49529   0.00000  Uiso   1.00
H39    H     0.13477   0.15671   0.07960   0.00000  Uiso   1.00
H40    H     0.07245   0.19815   0.42400   0.00000  Uiso   1.00
H41    H     0.09373   0.17468   0.04702   0.00000  Uiso   1.00
H42    H     0.04762   0.19184   0.00476   0.00000  Uiso   1.00
H43    H     0.22307   0.19493   0.39125   0.00000  Uiso   1.00
O44    O     0.16667   0.16667   0.25000   0.00000  Uiso   1.00
O45    O     0.15451   0.12637   0.15458   0.00000  Uiso   1.00
O46    O     0.12940   0.20391   0.34968   0.00000  Uiso   1.00
O47    O     0.20824   0.17759   0.14606   0.00000  Uiso   1.00
O48    O     0.17451   0.15880   0.34968   0.00000  Uiso   1.00
O49    O     0.31229   0.19348   0.44560   0.00000  Uiso   1.00
O50    O     0.17930   0.08019   0.28214   0.00000  Uiso   1.00
O51    O     0.14632   0.26085   0.27013   0.00000  Uiso   1.00
O52    O     0.07412   0.13291   0.23413   0.00000  Uiso   1.00
O53    O     0.26693   0.19272   0.21360   0.00000  Uiso   1.00
O54    O     0.07071   0.18878   0.28213   0.00000  Uiso   1.00
O55    O     0.25491   0.15226   0.27013   0.00000  Uiso   1.00
O56    O     0.13760   0.06944   0.23413   0.00000  Uiso   1.00
O57    O     0.20345   0.25620   0.21360   0.00000  Uiso   1.00
Zn58   Zn    0.19338   0.13994   0.28734   0.00000  Uiso   1.00
Zn59   Zn    0.13379   0.12458   0.21875   0.00000  Uiso   1.00
Zn60   Zn    0.21056   0.19775   0.20657   0.00000  Uiso   1.00
Zn61   Zn    0.12893   0.20439   0.28733   0.00000  Uiso   1.00
C62    C     0.38659   0.16019   0.25918   0.00000  Uiso   1.00
C63    C     0.49972   0.15334   0.05920   0.00000  Uiso   1.00
C64    C     0.57005   0.13752   0.05723   0.00000  Uiso   1.00
C65    C     0.61402   0.17361   0.24045   0.00000  Uiso   1.00
C66    C     0.47076   0.18824   0.42006   0.00000  Uiso   1.00
C67    C     0.65932   0.17608   0.23855   0.00000  Uiso   1.00
C68    C     0.34116   0.15527   0.26567   0.00000  Uiso   1.00
C69    C     0.51392   0.32257   0.23634   0.00000  Uiso   1.00
C70    C     0.48578   0.01176   0.26410   0.00000  Uiso   1.00
C71    C     0.48970   0.05589   0.26021   0.00000  Uiso   1.00
C72    C     0.51000   0.27791   0.24013   0.00000  Uiso   1.00
C73    C     0.41393   0.18868   0.48802   0.00000  Uiso   1.00
C74    C     0.51900   0.14829   0.12943   0.00000  Uiso   1.00
C75    C     0.48218   0.18475   0.37082   0.00000  Uiso   1.00
C76    C     0.58390   0.14553   0.01236   0.00000  Uiso   1.00
C77    C     0.52851   0.14292   0.08097   0.00000  Uiso   1.00
C78    C     0.42836   0.19290   0.44232   0.00000  Uiso   1.00
C79    C     0.64748   0.12522   0.30018   0.00000  Uiso   1.00
C80    C     0.33911   0.10578   0.32671   0.00000  Uiso   1.00
C81    C     0.61865   0.18358   0.42449   0.00000  Uiso   1.00
C82    C     0.44114   0.17860   0.01201   0.00000  Uiso   1.00
C83    C     0.48451   0.17435   0.49088   0.00000  Uiso   1.00
C84    C     0.49974   0.18170   0.44477   0.00000  Uiso   1.00
C85    C     0.51306   0.16262   0.01376   0.00000  Uiso   1.00
C86    C     0.55687   0.16090   0.49080   0.00000  Uiso   1.00
C87    C     0.57252   0.17494   0.44717   0.00000  Uiso   1.00
C88    C     0.54371   0.18393   0.42451   0.00000  Uiso   1.00
H89    H     0.59246   0.12912   0.07412   0.00000  Uiso   1.00
H90    H     0.34803   0.19577   0.21409   0.00000  Uiso   1.00
H91    H     0.36224   0.08638   0.30401   0.00000  Uiso   1.00
H92    H     0.35625   0.13048   0.34529   0.00000  Uiso   1.00
H93    H     0.64994   0.08543   0.35140   0.00000  Uiso   1.00
H94    H     0.62361   0.14210   0.32511   0.00000  Uiso   1.00
H95    H     0.63065   0.09923   0.28276   0.00000  Uiso   1.00
H96    H     0.62864   0.18397   0.38835   0.00000  Uiso   1.00
H97    H     0.53985   0.00390   0.21080   0.00000  Uiso   1.00
H98    H     0.45956   0.33124   0.28985   0.00000  Uiso   1.00
H99    H     0.61617   0.14025   0.49529   0.00000  Uiso   1.00
H100   H     0.46810   0.15671   0.07960   0.00000  Uiso   1.00
H101   H     0.40578   0.19815   0.42400   0.00000  Uiso   1.00
H102   H     0.42707   0.17468   0.04702   0.00000  Uiso   1.00
H103   H     0.38095   0.19184   0.00476   0.00000  Uiso   1.00
H104   H     0.55640   0.19493   0.39125   0.00000  Uiso   1.00
O105   O     0.50000   0.16667   0.25000   0.00000  Uiso   1.00
O106   O     0.48784   0.12637   0.15458   0.00000  Uiso   1.00
O107   O     0.46274   0.20391   0.34968   0.00000  Uiso   1.00
O108   O     0.54157   0.17759   0.14606   0.00000  Uiso   1.00
O109   O     0.50785   0.15880   0.34968   0.00000  Uiso   1.00
O110   O     0.64562   0.19348   0.44560   0.00000  Uiso   1.00
O111   O     0.51264   0.08019   0.28214   0.00000  Uiso   1.00
O112   O     0.47965   0.26085   0.27013   0.00000  Uiso   1.00
O113   O     0.40745   0.13291   0.23413   0.00000  Uiso   1.00
O114   O     0.60026   0.19272   0.21360   0.00000  Uiso   1.00
O115   O     0.40405   0.18878   0.28213   0.00000  Uiso   1.00
O116   O     0.58824   0.15226   0.27013   0.00000  Uiso   1.00
O117   O     0.47093   0.06944   0.23413   0.00000  Uiso   1.00
O118   O     0.53678   0.25620   0.21360   0.00000  Uiso   1.00
Zn119  Zn    0.52672   0.13994   0.28734   0.00000  Uiso   1.00
Zn120  Zn    0.46713   0.12458   0.21875   0.00000  Uiso   1.00
Zn121  Zn    0.54389   0.19775   0.20657   0.00000  Uiso   1.00
Zn122  Zn    0.46226   0.20439   0.28733   0.00000  Uiso   1.00
C123   C     0.71992   0.16019   0.25918   0.00000  Uiso   1.00
C124   C     0.83305   0.15334   0.05920   0.00000  Uiso   1.00
C125   C     0.90338   0.13752   0.05723   0.00000  Uiso   1.00
C126   C     0.94736   0.17361   0.24045   0.00000  Uiso   1.00
C127   C     0.80410   0.18824   0.42006   0.00000  Uiso   1.00
C128   C     0.99265   0.17608   0.23855   0.00000  Uiso   1.00
C129   C     0.67449   0.15527   0.26567   0.00000  Uiso   1.00
C130   C     0.84725   0.32257   0.23634   0.00000  Uiso   1.00
C131   C     0.81911   0.01176   0.26410   0.00000  Uiso   1.00
C132   C     0.82303   0.05589   0.26021   0.00000  Uiso   1.00
C133   C     0.84333   0.27791   0.24013   0.00000  Uiso   1.00
C134   C     0.74727   0.18868   0.48802   0.00000  Uiso   1.00
C135   C     0.85233   0.14829   0.12943   0.00000  Uiso   1.00
C136   C     0.81552   0.18475   0.37082   0.00000  Uiso   1.00
C137   C     0.91724   0.14553   0.01236   0.00000  Uiso   1.00
C138   C     0.86185   0.14292   0.08097   0.00000  Uiso   1.00
C139   C     0.76169   0.19290   0.44232   0.00000  Uiso   1.00
C140   C     0.98081   0.12522   0.30018   0.00000  Uiso   1.00
C141   C     0.67245   0.10578   0.32671   0.00000  Uiso   1.00
C142   C     0.95199   0.18358   0.42449   0.00000  Uiso   1.00
C143   C     0.77448   0.17860   0.01201   0.00000  Uiso   1.00
C144   C     0.81784   0.17435   0.49088   0.00000  Uiso   1.00
C145   C     0.83307   0.18170   0.44477   0.00000  Uiso   1.00
C146   C     0.84640   0.16262   0.01376   0.00000  Uiso   1.00
C147   C     0.89020   0.16090   0.49080   0.00000  Uiso   1.00
C148   C     0.90586   0.17494   0.44717   0.00000  Uiso   1.00
C149   C     0.87704   0.18393   0.42451   0.00000  Uiso   1.00
H150   H     0.92579   0.12912   0.07412   0.00000  Uiso   1.00
H151   H     0.68136   0.19577   0.21409   0.00000  Uiso   1.00
H152   H     0.69557   0.08638   0.30401   0.00000  Uiso   1.00
H153   H     0.68958   0.13048   0.34529   0.00000  Uiso   1.00
H154   H     0.98328   0.08543   0.35140   0.00000  Uiso   1.00
H155   H     0.95694   0.14210   0.32511   0.00000  Uiso   1.00
H156   H     0.96398   0.09923   0.28276   0.00000  Uiso   1.00
H157   H     0.96197   0.18397   0.38835   0.00000  Uiso   1.00
H158   H     0.87319   0.00390   0.21080   0.00000  Uiso   1.00
H159   H     0.79289   0.33124   0.28985   0.00000  Uiso   1.00
H160   H     0.94951   0.14025   0.49529   0.00000  Uiso   1.00
H161   H     0.80144   0.15671   0.07960   0.00000  Uiso   1.00
H162   H     0.73912   0.19815   0.42400   0.00000  Uiso   1.00
H163   H     0.76040   0.17468   0.04702   0.00000  Uiso   1.00
H164   H     0.71429   0.19184   0.00476   0.00000  Uiso   1.00
H165   H     0.88973   0.19493   0.39125   0.00000  Uiso   1.00
O166   O     0.83333   0.16667   0.25000   0.00000  Uiso   1.00
O167   O     0.82118   0.12637   0.15458   0.00000  Uiso   1.00
O168   O     0.79607   0.20391   0.34968   0.00000  Uiso   1.00
O169   O     0.87491   0.17759   0.14606   0.00000  Uiso   1.00
O170   O     0.84118   0.15880   0.34968   0.00000  Uiso   1.00
O171   O     0.97896   0.19348   0.44560   0.00000  Uiso   1.00
O172   O     0.84597   0.08019   0.28214   0.00000  Uiso   1.00
O173   O     0.81298   0.26085   0.27013   0.00000  Uiso   1.00
O174   O     0.74078   0.13291   0.23413   0.00000  Uiso   1.00
O175   O     0.93360   0.19272   0.21360   0.00000  Uiso   1.00
O176   O     0.73738   0.18878   0.28213   0.00000  Uiso   1.00
O177   O     0.92158   0.15226   0.27013   0.00000  Uiso   1.00
O178   O     0.80426   0.06944   0.23413   0.00000  Uiso   1.00
O179   O     0.87012   0.25620   0.21360   0.00000  Uiso   1.00
Zn180  Zn    0.86005   0.13994   0.28734   0.00000  Uiso   1.00
Zn181  Zn    0.80046   0.12458   0.21875   0.00000  Uiso   1.00
Zn182  Zn    0.87723   0.19775   0.20657   0.00000  Uiso   1.00
Zn183  Zn    0.79560   0.20439   0.28733   0.00000  Uiso   1.00
C184   C     0.05326   0.49353   0.25918   0.00000  Uiso   1.00
C185   C     0.16638   0.48668   0.05920   0.00000  Uiso   1.00
C186   C     0.23672   0.47086   0.05723   0.00000  Uiso   1.00
C187   C     0.28069   0.50694   0.24045   0.00000  Uiso   1.00
C188   C     0.13743   0.52158   0.42006   0.00000  Uiso   1.00
C189   C     0.32599   0.50941   0.23855   0.00000  Uiso   1.00
C190   C     0.00782   0.48860   0.26567   0.00000  Uiso   1.00
C191   C     0.18058   0.65591   0.23634   0.00000  Uiso   1.00
C192   C     0.15244   0.34510   0.26410   0.00000  Uiso   1.00
C193   C     0.15637   0.38923   0.26021   0.00000  Uiso   1.00
C194   C     0.17667   0.61124   0.24013   0.00000  Uiso   1.00
C195   C     0.08060   0.52202   0.48802   0.00000  Uiso   1.00
C196   C     0.18567   0.48163   0.12943   0.00000  Uiso   1.00
C197   C     0.14885   0.51809   0.37082   0.00000  Uiso   1.00
C198   C     0.25057   0.47886   0.01236   0.00000  Uiso   1.00
C199   C     0.19518   0.47626   0.08097   0.00000  Uiso   1.00
C200   C     0.09502   0.52623   0.44232   0.00000  Uiso   1.00
C201   C     0.31414   0.45855   0.30018   0.00000  Uiso   1.00
C202   C     0.00578   0.43912   0.32671   0.00000  Uiso   1.00
C203   C     0.28532   0.51692   0.42449   0.00000  Uiso   1.00
C204   C     0.10781   0.51193   0.01201   0.00000  Uiso   1.00
C205   C     0.15117   0.50768   0.49088   0.00000  Uiso   1.00
C206   C     0.16641   0.51504   0.44477   0.00000  Uiso   1.00
C207   C     0.17973   0.49595   0.01376   0.00000  Uiso   1.00
C208   C     0.22353   0.49423   0.49080   0.00000  Uiso   1.00
C209   C     0.23919   0.50827   0.44717   0.00000  Uiso   1.00
C210   C     0.21037   0.51726   0.42451   0.00000  Uiso   1.00
H211   H     0.25913   0.46245   0.07412   0.00000  Uiso   1.00
H212   H     0.01469   0.52911   0.21409   0.00000  Uiso   1.00
H213   H     0.02891   0.41971   0.30401   0.00000  Uiso   1.00
H214   H     0.02291   0.46381   0.34529   0.00000  Uiso   1.00
H215   H     0.31661   0.41876   0.35140   0.00000  Uiso   1.00
H216   H     0.29027   0.47543   0.32511   0.00000  Uiso   1.00
H217   H     0.29731   0.43256   0.28276   0.00000  Uiso   1.00
H218   H     0.29530   0.51731   0.38835   0.00000  Uiso   1.00
H219   H     0.20652   0.33723   0.21080   0.00000  Uiso   1.00
H220   H     0.12622   0.66457   0.28985   0.00000  Uiso   1.00
H221   H     0.28284   0.47358   0.49529   0.00000  Uiso   1.00
H222   H     0.13477   0.49004   0.07960   0.00000  Uiso   1.00
H223   H     0.07245   0.53149   0.42400   0.00000  Uiso   1.00
H224   H     0.09373   0.50801   0.04702   0.00000  Uiso   1.00
H225   H     0.04762   0.52517   0.00476   0.00000  Uiso   1.00
H226   H     0.22307   0.52827   0.39125   0.00000  Uiso   1.00
O227   O     0.16667   0.50000   0.25000   0.00000  Uiso   1.00
O228   O     0.15451   0.45970   0.15458   0.00000  Uiso   1.00
O229   O     0.12940   0.53724   0.34968   0.00000  Uiso   1.00
O230   O     0.20824   0.51092   0.14606   0.00000  Uiso   1.00
O231   O     0.17451   0.49213   0.34968   0.00000  Uiso   1.00
O232   O     0.31229   0.52682   0.44560   0.00000  Uiso   1.00
O233   O     0.17930   0.41352   0.28214   0.00000  Uiso   1.00
O234   O     0.14632   0.59418   0.27013   0.00000  Uiso   1.00
O235   O     0.07412   0.46625   0.23413   0.00000  Uiso   1.00
O236   O     0.26693   0.52605   0.21360   0.00000  Uiso   1.00
O237   O     0.07071   0.52211   0.28213   0.00000  Uiso   1.00
O238   O     0.25491   0.48559   0.27013   0.00000  Uiso   1.00
O239   O     0.13760   0.40277   0.23413   0.00000  Uiso   1.00
O240   O     0.20345   0.58953   0.21360   0.00000  Uiso   1.00
Zn241  Zn    0.19338   0.47327   0.28734   0.00000  Uiso   1.00
Zn242  Zn    0.13379   0.45791   0.21875   0.00000  Uiso   1.00
Zn243  Zn    0.21056   0.53109   0.20657   0.00000  Uiso   1.00
Zn244  Zn    0.12893   0.53773   0.28733   0.00000  Uiso   1.00
C245   C     0.38659   0.49353   0.25918   0.00000  Uiso   1.00
C246   C     0.49972   0.48668   0.05920   0.00000  Uiso   1.00
C247   C     0.57005   0.47086   0.05723   0.00000  Uiso   1.00
C248   C     0.61402   0.50694   0.24045   0.00000  Uiso   1.00
C249   C     0.47076   0.52158   0.42006   0.00000  Uiso   1.00
C250   C     0.65932   0.50941   0.23855   0.00000  Uiso   1.00
C251   C     0.34116   0.48860   0.26567   0.00000  Uiso   1.00
C252   C     0.51392   0.65591   0.23634   0.00000  Uiso   1.00
C253   C     0.48578   0.34510   0.26410   0.00000  Uiso   1.00
C254   C     0.48970   0.38923   0.26021   0.00000  Uiso   1.00
C255   C     0.51000   0.61124   0.24013   0.00000  Uiso   1.00
C256   C     0.41393   0.52202   0.48802   0.00000  Uiso   1.00
C257   C     0.51900   0.48163   0.12943   0.00000  Uiso   1.00
C258   C     0.48218   0.51809   0.37082   0.00000  Uiso   1.00
C259   C     0.58390   0.47886   0.01236   0.00000  Uiso   1.00
C260   C     0.52851   0.47626   0.08097   0.00000  Uiso   1.00
C261   C     0.42836   0.52623   0.44232   0.00000  Uiso   1.00
C262   C     0.64748   0.45855   0.30018   0.00000  Uiso   1.00
C263   C     0.33911   0.43912   0.32671   0.00000  Uiso   1.00
C264   C     0.61865   0.51692   0.42449   0.00000  Uiso   1.00
C265   C     0.44114   0.51193   0.01201   0.00000  Uiso   1.00
C266   C     0.48451   0.50768   0.49088   0.00000  Uiso   1.00
C267   C     0.49974   0.51504   0.44477   0.00000  Uiso   1.00
C268   C     0.51306   0.49595   0.01376   0.00000  Uiso   1.00
C269   C     0.55687   0.49423   0.49080   0.00000  Uiso   1.00
C270   C     0.57252   0.50827   0.44717   0.00000  Uiso   1.00
C271   C     0.54371   0.51726   0.42451   0.00000  Uiso   1.00
H272   H     0.59246   0.46245   0.07412   0.00000  Uiso   1.00
H273   H     0.34803   0.52911   0.21409   0.00000  Uiso   1.00
H274   H     0.36224   0.41971   0.30401   0.00000  Uiso   1.00
H275   H     0.35625   0.46381   0.34529   0.00000  Uiso   1.00
H276   H     0.64994   0.41876   0.35140   0.00000  Uiso   1.00
H277   H     0.62361   0.47543   0.32511   0.00000  Uiso   1.00
H278   H     0.63065   0.43256   0.28276   0.00000  Uiso   1.00
H279   H     0.62864   0.51731   0.38835   0.00000  Uiso   1.00
H280   H     0.53985   0.33723   0.21080   0.00000  Uiso   1.00
H281   H     0.45956   0.66457   0.28985   0.00000  Uiso   1.00
H282   H     0.61617   0.47358   0.49529   0.00000  Uiso   1.00
H283   H     0.46810   0.49004   0.07960   0.00000  Uiso   1.00
H284   H     0.40578   0.53149   0.42400   0.00000  Uiso   1.00
H285   H     0.42707   0.50801   0.04702   0.00000  Uiso   1.00
H286   H     0.38095   0.52517   0.00476   0.00000  Uiso   1.00
H287   H     0.55640   0.52827   0.39125   0.00000  Uiso   1.00
O288   O     0.50000   0.50000   0.25000   0.00000  Uiso   1.00
O289   O     0.48784   0.45970   0.15458   0.00000  Uiso   1.00
O290   O     0.46274   0.53724   0.34968   0.00000  Uiso   1.00
O291   O     0.54157   0.51092   0.14606   0.00000  Uiso   1.00
O292   O     0.50785   0.49213   0.34968   0.00000  Uiso   1.00
O293   O     0.64562   0.52682   0.44560   0.00000  Uiso   1.00
O294   O     0.51264   0.41352   0.28214   0.00000  Uiso   1.00
O295   O     0.47965   0.59418   0.27013   0.00000  Uiso   1.00
O296   O     0.40745   0.46625   0.23413   0.00000  Uiso   1.00
O297   O     0.60026   0.52605   0.21360   0.00000  Uiso   1.00
O298   O     0.40405   0.52211   0.28213   0.00000  Uiso   1.00
O299   O     0.58824   0.48559   0.27013   0.00000  Uiso   1.00
O300   O     0.47093   0.40277   0.23413   0.00000  Uiso   1.00
O301   O     0.53678   0.58953   0.21360   0.00000  Uiso   1.00
Zn302  Zn    0.52672   0.47327   0.28734   0.00000  Uiso   1.00
Zn303  Zn    0.46713   0.45791   0.21875   0.00000  Uiso   1.00
Zn304  Zn    0.54389   0.53109   0.20657   0.00000  Uiso   1.00
Zn305  Zn    0.46226   0.53773   0.28733   0.00000  Uiso   1.00
C306   C     0.71992   0.49353   0.25918   0.00000  Uiso   1.00
C307   C     0.83305   0.48668   0.05920   0.00000  Uiso   1.00
C308   C     0.90338   0.47086   0.05723   0.00000  Uiso   1.00
C309   C     0.94736   0.50694   0.24045   0.00000  Uiso   1.00
C310   C     0.80410   0.52158   0.42006   0.00000  Uiso   1.00
C311   C     0.99265   0.50941   0.23855   0.00000  Uiso   1.00
C312   C     0.67449   0.48860   0.26567   0.00000  Uiso   1.00
C313   C     0.84725   0.65591   0.23634   0.00000  Uiso   1.00
C314   C     0.81911   0.34510   0.26410   0.00000  Uiso   1.00
C315   C     0.82303   0.38923   0.26021   0.00000  Uiso   1.00
C316   C     0.84333   0.61124   0.24013   0.00000  Uiso   1.00
C317   C     0.74727   0.52202   0.48802   0.00000  Uiso   1.00
C318   C     0.85233   0.48163   0.12943   0.00000  Uiso   1.00
C319   C     0.81552   0.51809   0.37082   0.00000  Uiso   1.00
C320   C     0.91724   0.47886   0.01236   0.00000  Uiso   1.00
C321   C     0.86185   0.47626   0.08097   0.00000  Uiso   1.00
C322   C     0.76169   0.52623   0.44232   0.00000  Uiso   1.00
C323   C     0.98081   0.45855   0.30018   0.00000  Uiso   1.00
C324   C     0.67245   0.43912   0.32671   0.00000  Uiso   1.00
C325   C     0.95199   0.51692   0.42449   0.00000  Uiso   1.00
C326   C     0.77448   0.51193   0.01201   0.00000  Uiso   1.00
C327   C     0.81784   0.50768   0.49088   0.00000  Uiso   1.00
C328   C     0.83307   0.51504   0.44477   0.00000  Uiso   1.00
C329   C     0.84640   0.49595   0.01376   0.00000  Uiso   1.00
C330   C     0.89020   0.49423   0.49080   0.00000  Uiso   1.00
C331   C     0.90586   0.50827   0.44717   0.00000  Uiso   1.00
C332   C     0.87704   0.51726   0.42451   0.00000  Uiso   1.00
H333   H     0.92579   0.46245   0.07412   0.00000  Uiso   1.00
H334   H     0.68136   0.52911   0.21409   0.00000  Uiso   1.00
H335   H     0.69557   0.41971   0.30401   0.00000  Uiso   1.00
H336   H     0.68958   0.46381   0.34529   0.00000  Uiso   1.00
H337   H     0.98328   0.41876   0.35140   0.00000  Uiso   1.00
H338   H     0.95694   0.47543   0.32511   0.00000  Uiso   1.00
H339   H     0.96398   0.43256   0.28276   0.00000  Uiso   1.00
H340   H     0.96197   0.51731   0.38835   0.00000  Uiso   1.00
H341   H     0.87319   0.33723   0.21080   0.00000  Uiso   1.00
H342   H     0.79289   0.66457   0.28985   0.00000  Uiso   1.00
H343   H     0.94951   0.47358   0.49529   0.00000  Uiso   1.00
H344   H     0.80144   0.49004   0.07960   0.00000  Uiso   1.00
H345   H     0.73912   0.53149   0.42400   0.00000  Uiso   1.00
H346   H     0.76040   0.50801   0.04702   0.00000  Uiso   1.00
H347   H     0.71429   0.52517   0.00476   0.00000  Uiso   1.00
H348   H     0.88973   0.52827   0.39125   0.00000  Uiso   1.00
O349   O     0.83333   0.50000   0.25000   0.00000  Uiso   1.00
O350   O     0.82118   0.45970   0.15458   0.00000  Uiso   1.00
O351   O     0.79607   0.53724   0.34968   0.00000  Uiso   1.00
O352   O     0.87491   0.51092   0.14606   0.00000  Uiso   1.00
O353   O     0.84118   0.49213   0.34968   0.00000  Uiso   1.00
O354   O     0.97896   0.52682   0.44560   0.00000  Uiso   1.00
O355   O     0.84597   0.41352   0.28214   0.00000  Uiso   1.00
O356   O     0.81298   0.59418   0.27013   0.00000  Uiso   1.00
O357   O     0.74078   0.46625   0.23413   0.00000  Uiso   1.00
O358   O     0.93360   0.52605   0.21360   0.00000  Uiso   1.00
O359   O     0.73738   0.52211   0.28213   0.00000  Uiso   1.00
O360   O     0.92158   0.48559   0.27013   0.00000  Uiso   1.00
O361   O     0.80426   0.40277   0.23413   0.00000  Uiso   1.00
O362   O     0.87012   0.58953   0.21360   0.00000  Uiso   1.00
Zn363  Zn    0.86005   0.47327   0.28734   0.00000  Uiso   1.00
Zn364  Zn    0.80046   0.45791   0.21875   0.00000  Uiso   1.00
Zn365  Zn    0.87723   0.53109   0.20657   0.00000  Uiso   1.00
Zn366  Zn    0.79560   0.53773   0.28733   0.00000  Uiso   1.00
C367   C     0.05326   0.82686   0.25918   0.00000  Uiso   1.00
C368   C     0.16638   0.82001   0.05920   0.00000  Uiso   1.00
C369   C     0.23672   0.80419   0.05723   0.00000  Uiso   1.00
C370   C     0.28069   0.84027   0.24045   0.00000  Uiso   1.00
C371   C     0.13743   0.85491   0.42006   0.00000  Uiso   1.00
C372   C     0.32599   0.84274   0.23855   0.00000  Uiso   1.00
C373   C     0.00782   0.82193   0.26567   0.00000  Uiso   1.00
C374   C     0.18058   0.98924   0.23634   0.00000  Uiso   1.00
C375   C     0.15244   0.67843   0.26410   0.00000  Uiso   1.00
C376   C     0.15637   0.72256   0.26021   0.00000  Uiso   1.00
C377   C     0.17667   0.94458   0.24013   0.00000  Uiso   1.00
C378   C     0.08060   0.85535   0.48802   0.00000  Uiso   1.00
C379   C     0.18567   0.81496   0.12943   0.00000  Uiso   1.00
C380   C     0.14885   0.85142   0.37082   0.00000  Uiso   1.00
C381   C     0.25057   0.81220   0.01236   0.00000  Uiso   1.00
C382   C     0.19518   0.80959   0.08097   0.00000  Uiso   1.00
C383   C     0.09502   0.85956   0.44232   0.00000  Uiso   1.00
C384   C     0.31414   0.79188   0.30018   0.00000  Uiso   1.00
C385   C     0.00578   0.77245   0.32671   0.00000  Uiso   1.00
C386   C     0.28532   0.85025   0.42449   0.00000  Uiso   1.00
C387   C     0.10781   0.84527   0.01201   0.00000  Uiso   1.00
C388   C     0.15117   0.84102   0.49088   0.00000  Uiso   1.00
C389   C     0.16641   0.84837   0.44477   0.00000  Uiso   1.00
C390   C     0.17973   0.82929   0.01376   0.00000  Uiso   1.00
C391   C     0.22353   0.82757   0.49080   0.00000  Uiso   1.00
C392   C     0.23919   0.84160   0.44717   0.00000  Uiso   1.00
C393   C     0.21037   0.85059   0.42451   0.00000  Uiso   1.00
H394   H     0.25913   0.79578   0.07412   0.00000  Uiso   1.00
H395   H     0.01469   0.86244   0.21409   0.00000  Uiso   1.00
H396   H     0.02891   0.75304   0.30401   0.00000  Uiso   1.00
H397   H     0.02291   0.79715   0.34529   0.00000  Uiso   1.00
H398   H     0.31661   0.75209   0.35140   0.00000  Uiso   1.00
H399   H     0.29027   0.80876   0.32511   0.00000  Uiso   1.00
H400   H     0.29731   0.76589   0.28276   0.00000  Uiso   1.00
H401   H     0.29530   0.85064   0.38835   0.00000  Uiso   1.00
H402   H     0.20652   0.67056   0.21080   0.00000  Uiso   1.00
H403   H     0.12622   0.99790   0.28985   0.00000  Uiso   1.00
H404   H     0.28284   0.80692   0.49529   0.00000  Uiso   1.00
H405   H     0.13477   0.82338   0.07960   0.00000  Uiso   1.00
H406   H     0.07245   0.86482   0.42400   0.00000  Uiso   1.00
H407   H     0.09373   0.84134   0.04702   0.00000  Uiso   1.00
H408   H     0.04762   0.85850   0.00476   0.00000  Uiso   1.00
H409   H     0.22307   0.86160   0.39125   0.00000  Uiso   1.00
O410   O     0.16667   0.83333   0.25000   0.00000  Uiso   1.00
O411   O     0.15451   0.79304   0.15458   0.00000  Uiso   1.00
O412   O     0.12940   0.87058   0.34968   0.00000  Uiso   1.00
O413   O     0.20824   0.84425   0.14606   0.00000  Uiso   1.00
O414   O     0.17451   0.82546   0.34968   0.00000  Uiso   1.00
O415   O     0.31229   0.86015   0.44560   0.00000  Uiso   1.00
O416   O     0.17930   0.74686   0.28214   0.00000  Uiso   1.00
O417   O     0.14632   0.92751   0.27013   0.00000  Uiso   1.00
O418   O     0.07412   0.79958   0.23413   0.00000  Uiso   1.00
O419   O     0.26693   0.85939   0.21360   0.00000  Uiso   1.00
O420   O     0.07071   0.85544   0.28213   0.00000  Uiso   1.00
O421   O     0.25491   0.81892   0.27013   0.00000  Uiso   1.00
O422   O     0.13760   0.73610   0.23413   0.00000  Uiso   1.00
O423   O     0.20345   0.92286   0.21360   0.00000  Uiso   1.00
Zn424  Zn    0.19338   0.80661   0.28734   0.00000  Uiso   1.00
Zn425  Zn    0.13379   0.79124   0.21875   0.00000  Uiso   1.00
Zn426  Zn    0.21056   0.86442   0.20657   0.00000  Uiso   1.00
Zn427  Zn    0.12893   0.87106   0.28733   0.00000  Uiso   1.00
C428   C     0.38659   0.82686   0.25918   0.00000  Uiso   1.00
C429   C     0.49972   0.82001   0.05920   0.00000  Uiso   1.00
C430   C     0.57005   0.80419   0.05723   0.00000  Uiso   1.00
C431   C     0.61402   0.84027   0.24045   0.00000  Uiso   1.00
C432   C     0.47076   0.85491   0.42006   0.00000  Uiso   1.00
C433   C     0.65932   0.84274   0.23855   0.00000  Uiso   1.00
C434   C     0.34116   0.82193   0.26567   0.00000  Uiso   1.00
C435   C     0.51392   0.98924   0.23634   0.00000  Uiso   1.00
C436   C     0.48578   0.67843   0.26410   0.00000  Uiso   1.00
C437   C     0.48970   0.72256   0.26021   0.00000  Uiso   1.00
C438   C     0.51000   0.94458   0.24013   0.00000  Uiso   1.00
C439   C     0.41393   0.85535   0.48802   0.00000  Uiso   1.00
C440   C     0.51900   0.81496   0.12943   0.00000  Uiso   1.00
C441   C     0.48218   0.85142   0.37082   0.00000  Uiso   1.00
C442   C     0.58390   0.81220   0.01236   0.00000  Uiso   1.00
C443   C     0.52851   0.80959   0.08097   0.00000  Uiso   1.00
C444   C     0.42836   0.85956   0.44232   0.00000  Uiso   1.00
C445   C     0.64748   0.79188   0.30018   0.00000  Uiso   1.00
C446   C     0.33911   0.77245   0.32671   0.00000  Uiso   1.00
C447   C     0.61865   0.85025   0.42449   0.00000  Uiso   1.00
C448   C     0.44114   0.84527   0.01201   0.00000  Uiso   1.00
C449   C     0.48451   0.84102   0.49088   0.00000  Uiso   1.00
C450   C     0.49974   0.84837   0.44477   0.00000  Uiso   1.00
C451   C     0.51306   0.82929   0.01376   0.00000  Uiso   1.00
C452   C     0.55687   0.82757   0.49080   0.00000  Uiso   1.00
C453   C     0.57252   0.84160   0.44717   0.00000  Uiso   1.00
C454   C     0.54371   0.85059   0.42451   0.00000  Uiso   1.00
H455   H     0.59246   0.79578   0.07412   0.00000  Uiso   1.00
H456   H     0.34803   0.86244   0.21409   0.00000  Uiso   1.00
H457   H     0.36224   0.75304   0.30401   0.00000  Uiso   1.00
H458   H     0.35625   0.79715   0.34529   0.00000  Uiso   1.00
H459   H     0.64994   0.75209   0.35140   0.00000  Uiso   1.00
H460   H     0.62361   0.80876   0.32511   0.00000  Uiso   1.00
H461   H     0.63065   0.76589   0.28276   0.00000  Uiso   1.00
H462   H     0.62864   0.85064   0.38835   0.00000  Uiso   1.00
H463   H     0.53985   0.67056   0.21080   0.00000  Uiso   1.00
H464   H     0.45956   0.99790   0.28985   0.00000  Uiso   1.00
H465   H     0.61617   0.80692   0.49529   0.00000  Uiso   1.00
H466   H     0.46810   0.82338   0.07960   0.00000  Uiso   1.00
H467   H     0.40578   0.86482   0.42400   0.00000  Uiso   1.00
H468   H     0.42707   0.84134   0.04702   0.00000  Uiso   1.00
H469   H     0.38095   0.85850   0.00476   0.00000  Uiso   1.00
H470   H     0.55640   0.86160   0.39125   0.00000  Uiso   1.00
O471   O     0.50000   0.83333   0.25000   0.00000  Uiso   1.00
O472   O     0.48784   0.79304   0.15458   0.00000  Uiso   1.00
O473   O     0.46274   0.87058   0.34968   0.00000  Uiso   1.00
O474   O     0.54157   0.84425   0.14606   0.00000  Uiso   1.00
O475   O     0.50785   0.82546   0.34968   0.00000  Uiso   1.00
O476   O     0.64562   0.86015   0.44560   0.00000  Uiso   1.00
O477   O     0.51264   0.74686   0.28214   0.00000  Uiso   1.00
O478   O     0.47965   0.92751   0.27013   0.00000  Uiso   1.00
O479   O     0.40745   0.79958   0.23413   0.00000  Uiso   1.00
O480   O     0.60026   0.85939   0.21360   0.00000  Uiso   1.00
O481   O     0.40405   0.85544   0.28213   0.00000  Uiso   1.00
O482   O     0.58824   0.81892   0.27013   0.00000  Uiso   1.00
O483   O     0.47093   0.73610   0.23413   0.00000  Uiso   1.00
O484   O     0.53678   0.92286   0.21360   0.00000  Uiso   1.00
Zn485  Zn    0.52672   0.80661   0.28734   0.00000  Uiso   1.00
Zn486  Zn    0.46713   0.79124   0.21875   0.00000  Uiso   1.00
Zn487  Zn    0.54389   0.86442   0.20657   0.00000  Uiso   1.00
Zn488  Zn    0.46226   0.87106   0.28733   0.00000  Uiso   1.00
C489   C     0.71992   0.82686   0.25918   0.00000  Uiso   1.00
C490   C     0.83305   0.82001   0.05920   0.00000  Uiso   1.00
C491   C     0.90338   0.80419   0.05723   0.00000  Uiso   1.00
C492   C     0.94736   0.84027   0.24045   0.00000  Uiso   1.00
C493   C     0.80410   0.85491   0.42006   0.00000  Uiso   1.00
C494   C     0.99265   0.84274   0.23855   0.00000  Uiso   1.00
C495   C     0.67449   0.82193   0.26567   0.00000  Uiso   1.00
C496   C     0.84725   0.98924   0.23634   0.00000  Uiso   1.00
C497   C     0.81911   0.67843   0.26410   0.00000  Uiso   1.00
C498   C     0.82303   0.72256   0.26021   0.00000  Uiso   1.00
C499   C     0.84333   0.94458   0.24013   0.00000  Uiso   1.00
C500   C     0.74727   0.85535   0.48802   0.00000  Uiso   1.00
C501   C     0.85233   0.81496   0.12943   0.00000  Uiso   1.00
C502   C     0.81552   0.85142   0.37082   0.00000  Uiso   1.00
C503   C     0.91724   0.81220   0.01236   0.00000  Uiso   1.00
C504   C     0.86185   0.80959   0.08097   0.00000  Uiso   1.00
C505   C     0.76169   0.85956   0.44232   0.00000  Uiso   1.00
C506   C     0.98081   0.79188   0.30018   0.00000  Uiso   1.00
C507   C     0.67245   0.77245   0.32671   0.00000  Uiso   1.00
C508   C     0.95199   0.85025   0.42449   0.00000  Uiso   1.00
C509   C     0.77448   0.84527   0.01201   0.00000  Uiso   1.00
C510   C     0.81784   0.84102   0.49088   0.00000  Uiso   1.00
C511   C     0.83307   0.84837   0.44477   0.00000  Uiso   1.00
C512   C     0.84640   0.82929   0.01376   0.00000  Uiso   1.00
C513   C     0.89020   0.82757   0.49080   0.00000  Uiso   1.00
C514   C     0.90586   0.84160   0.44717   0.00000  Uiso   1.00
C515   C     0.87704   0.85059   0.42451   0.00000  Uiso   1.00
H516   H     0.92579   0.79578   0.07412   0.00000  Uiso   1.00
H517   H     0.68136   0.86244   0.21409   0.00000  Uiso   1.00
H518   H     0.69557   0.75304   0.30401   0.00000  Uiso   1.00
H519   H     0.68958   0.79715   0.34529   0.00000  Uiso   1.00
H520   H     0.98328   0.75209   0.35140   0.00000  Uiso   1.00
H521   H     0.95694   0.80876   0.32511   0.00000  Uiso   1.00
H522   H     0.96398   0.76589   0.28276   0.00000  Uiso   1.00
H523   H     0.96197   0.85064   0.38835   0.00000  Uiso   1.00
H524   H     0.87319   0.67056   0.21080   0.00000  Uiso   1.00
H525   H     0.79289   0.99790   0.28985   0.00000  Uiso   1.00
H526   H     0.94951   0.80692   0.49529   0.00000  Uiso   1.00
H527   H     0.80144   0.82338   0.07960   0.00000  Uiso   1.00
H528   H     0.73912   0.86482   0.42400   0.00000  Uiso   1.00
H529   H     0.76040   0.84134   0.04702   0.00000  Uiso   1.00
H530   H     0.71429   0.85850   0.00476   0.00000  Uiso   1.00
H531   H     0.88973   0.86160   0.39125   0.00000  Uiso   1.00
O532   O     0.83333   0.83333   0.25000   0.00000  Uiso   1.00
O533   O     0.82118   0.79304   0.15458   0.00000  Uiso   1.00
O534   O     0.79607   0.87058   0.34968   0.00000  Uiso   1.00
O535   O     0.87491   0.84425   0.14606   0.00000  Uiso   1.00
O536   O     0.84118   0.82546   0.34968   0.00000  Uiso   1.00
O537   O     0.97896   0.86015   0.44560   0.00000  Uiso   1.00
O538   O     0.84597   0.74686   0.28214   0.00000  Uiso   1.00
O539   O     0.81298   0.92751   0.27013   0.00000  Uiso   1.00
O540   O     0.74078   0.79958   0.23413   0.00000  Uiso   1.00
O541   O     0.93360   0.85939   0.21360   0.00000  Uiso   1.00
O542   O     0.73738   0.85544   0.28213   0.00000  Uiso   1.00
O543   O     0.92158   0.81892   0.27013   0.00000  Uiso   1.00
O544   O     0.80426   0.73610   0.23413   0.00000  Uiso   1.00
O545   O     0.87012   0.92286   0.21360   0.00000  Uiso   1.00
Zn546  Zn    0.86005   0.80661   0.28734   0.00000  Uiso   1.00
Zn547  Zn    0.80046   0.79124   0.21875   0.00000  Uiso   1.00
Zn548  Zn    0.87723   0.86442   0.20657   0.00000  Uiso   1.00
Zn549  Zn    0.79560   0.87106   0.28733   0.00000  Uiso   1.00
C550   C     0.05326   0.16019   0.75918   0.00000  Uiso   1.00
C551   C     0.16638   0.15334   0.55920   0.00000  Uiso   1.00
C552   C     0.23672   0.13752   0.55723   0.00000  Uiso   1.00
C553   C     0.28069   0.17361   0.74045   0.00000  Uiso   1.00
C554   C     0.13743   0.18824   0.92006   0.00000  Uiso   1.00
C555   C     0.32599   0.17608   0.73855   0.00000  Uiso   1.00
C556   C     0.00782   0.15527   0.76567   0.00000  Uiso   1.00
C557   C     0.18058   0.32257   0.73634   0.00000  Uiso   1.00
C558   C     0.15244   0.01176   0.76410   0.00000  Uiso   1.00
C559   C     0.15637   0.05589   0.76021   0.00000  Uiso   1.00
C560   C     0.17667   0.27791   0.74013   0.00000  Uiso   1.00
C561   C     0.08060   0.18868   0.98802   0.00000  Uiso   1.00
C562   C     0.18567   0.14829   0.62943   0.00000  Uiso   1.00
C563   C     0.14885   0.18475   0.87082   0.00000  Uiso   1.00
C564   C     0.25057   0.14553   0.51236   0.00000  Uiso   1.00
C565   C     0.19518   0.14292   0.58097   0.00000  Uiso   1.00
C566   C     0.09502   0.19290   0.94232   0.00000  Uiso   1.00
C567   C     0.31414   0.12522   0.80018   0.00000  Uiso   1.00
C568   C     0.00578   0.10578   0.82671   0.00000  Uiso   1.00
C569   C     0.28532   0.18358   0.92449   0.00000  Uiso   1.00
C570   C     0.10781   0.17860   0.51201   0.00000  Uiso   1.00
C571   C     0.15117   0.17435   0.99088   0.00000  Uiso   1.00
C572   C     0.16641   0.18170   0.94477   0.00000  Uiso   1.00
C573   C     0.17973   0.16262   0.51376   0.00000  Uiso   1.00
C574   C     0.22353   0.16090   0.99080   0.00000  Uiso   1.00
C575   C     0.23919   0.17494   0.94717   0.00000  Uiso   1.00
C576   C     0.21037   0.18393   0.92451   0.00000  Uiso   1.00
H577   H     0.25913   0.12912   0.57412   0.00000  Uiso   1.00
H578   H     0.01469   0.19577   0.71409   0.00000  Uiso   1.00
H579   H     0.02891   0.08638   0.80401   0.00000  Uiso   1.00
H580   H     0.02291   0.13048   0.84529   0.00000  Uiso   1.00
H581   H     0.31661   0.08543   0.85140   0.00000  Uiso   1.00
H582   H     0.29027   0.14210   0.82511   0.00000  Uiso   1.00
H583   H     0.29731   0.09923   0.78276   0.00000  Uiso   1.00
H584   H     0.29530   0.18397   0.88835   0.00000  Uiso   1.00
H585   H     0.20652   0.00390   0.71080   0.00000  Uiso   1.00
H586   H     0.12622   0.33124   0.78985   0.00000  Uiso   1.00
H587   H     0.28284   0.14025   0.99529   0.00000  Uiso   1.00
H588   H     0.13477   0.15671   0.57960   0.00000  Uiso   1.00
H589   H     0.07245   0.19815   0.92400   0.00000  Uiso   1.00
H590   H     0.09373   0.17468   0.54702   0.00000  Uiso   1.00
H591   H     0.04762   0.19184   0.50476   0.00000  Uiso   1.00
H592   H     0.22307   0.19493   0.89125   0.00000  Uiso   1.00
O593   O     0.16667   0.16667   0.75000   0.00000  Uiso   1.00
O594   O     0.15451   0.12637   0.65458   0.00000  Uiso   1.00
O595   O     0.12940   0.20391   0.84968   0.00000  Uiso   1.00
O596   O     0.20824   0.17759   0.64606   0.00000  Uiso   1.00
O597   O     0.17451   0.15880   0.84968   0.00000  Uiso   1.00
O598   O     0.31229   0.19348   0.94560   0.00000  Uiso   1.00
O599   O     0.17930   0.08019   0.78214   0.00000  Uiso   1.00
O600   O     0.14632   0.26085   0.77013   0.00000  Uiso   1.00
O601   O     0.07412   0.13291   0.73413   0.00000  Uiso   1.00
O602   O     0.26693   0.19272   0.71360   0.00000  Uiso   1.00
O603   O     0.07071   0.18878   0.78213   0.00000  Uiso   1.00
O604   O     0.25491   0.15226   0.77013   0.00000  Uiso   1.00
O605   O     0.13760   0.06944   0.73413   0.00000  Uiso   1.00
O606   O     0.20345   0.25620   0.71360   0.00000  Uiso   1.00
Zn607  Zn    0.19338   0.13994   0.78734   0.00000  Uiso   1.00
Zn608  Zn    0.13379   0.12458   0.71875   0.00000  Uiso   1.00
Zn609  Zn    0.21056   0.19775   0.70657   0.00000  Uiso   1.00
Zn610  Zn    0.12893   0.20439   0.78733   0.00000  Uiso   1.00
C611   C     0.38659   0.16019   0.75918   0.00000  Uiso   1.00
C612   C     0.49972   0.15334   0.55920   0.00000  Uiso   1.00
C613   C     0.57005   0.13752   0.55723   0.00000  Uiso   1.00
C614   C     0.61402   0.17361   0.74045   0.00000  Uiso   1.00
C615   C     0.47076   0.18824   0.92006   0.00000  Uiso   1.00
C616   C     0.65932   0.17608   0.73855   0.00000  Uiso   1.00
C617   C     0.34116   0.15527   0.76567   0.00000  Uiso   1.00
C618   C     0.51392   0.32257   0.73634   0.00000  Uiso   1.00
C619   C     0.48578   0.01176   0.76410   0.00000  Uiso   1.00
C620   C     0.48970   0.05589   0.76021   0.00000  Uiso   1.00
C621   C     0.51000   0.27791   0.74013   0.00000  Uiso   1.00
C622   C     0.41393   0.18868   0.98802   0.00000  Uiso   1.00
C623   C     0.51900   0.14829   0.62943   0.00000  Uiso   1.00
C624   C     0.48218   0.18475   0.87082   0.00000  Uiso   1.00
C625   C     0.58390   0.14553   0.51236   0.00000  Uiso   1.00
C626   C     0.52851   0.14292   0.58097   0.00000  Uiso   1.00
C627   C     0.42836   0.19290   0.94232   0.00000  Uiso   1.00
C628   C     0.64748   0.12522   0.80018   0.00000  Uiso   1.00
C629   C     0.33911   0.10578   0.82671   0.00000  Uiso   1.00
C630   C     0.61865   0.18358   0.92449   0.00000  Uiso   1.00
C631   C     0.44114   0.17860   0.51201   0.00000  Uiso   1.00
C632   C     0.48451   0.17435   0.99088   0.00000  Uiso   1.00
C633   C     0.49974   0.18170   0.94477   0.00000  Uiso   1.00
C634   C     0.51306   0.16262   0.51376   0.00000  Uiso   1.00
C635   C     0.55687   0.16090   0.99080   0.00000  Uiso   1.00
C636   C     0.57252   0.17494   0.94717   0.00000  Uiso   1.00
C637   C     0.54371   0.18393   0.92451   0.00000  Uiso   1.00
H638   H     0.59246   0.12912   0.57412   0.00000  Uiso   1.00
H639   H     0.34803   0.19577   0.71409   0.00000  Uiso   1.00
H640   H     0.36224   0.08638   0.80401   0.00000  Uiso   1.00
H641   H     0.35625   0.13048   0.84529   0.00000  Uiso   1.00
H642   H     0.64994   0.08543   0.85140   0.00000  Uiso   1.00
H643   H     0.62361   0.14210   0.82511   0.00000  Uiso   1.00
H644   H     0.63065   0.09923   0.78276   0.00000  Uiso   1.00
H645   H     0.62864   0.18397   0.88835   0.00000  Uiso   1.00
H646   H     0.53985   0.00390   0.71080   0.00000  Uiso   1.00
H647   H     0.45956   0.33124   0.78985   0.00000  Uiso   1.00
H648   H     0.61617   0.14025   0.99529   0.00000  Uiso   1.00
H649   H     0.46810   0.15671   0.57960   0.00000  Uiso   1.00
H650   H     0.40578   0.19815   0.92400   0.00000  Uiso   1.00
H651   H     0.42707   0.17468   0.54702   0.00000  Uiso   1.00
H652   H     0.38095   0.19184   0.50476   0.00000  Uiso   1.00
H653   H     0.55640   0.19493   0.89125   0.00000  Uiso   1.00
O654   O     0.50000   0.16667   0.75000   0.00000  Uiso   1.00
O655   O     0.48784   0.12637   0.65458   0.00000  Uiso   1.00
O656   O     0.46274   0.20391   0.84968   0.00000  Uiso   1.00
O657   O     0.54157   0.17759   0.64606   0.00000  Uiso   1.00
O658   O     0.50785   0.15880   0.84968   0.00000  Uiso   1.00
O659   O     0.64562   0.19348   0.94560   0.00000  Uiso   1.00
O660   O     0.51264   0.08019   0.78214   0.00000  Uiso   1.00
O661   O     0.47965   0.26085   0.77013   0.00000  Uiso   1.00
O662   O     0.40745   0.13291   0.73413   0.00000  Uiso   1.00
O663   O     0.60026   0.19272   0.71360   0.00000  Uiso   1.00
O664   O     0.40405   0.18878   0.78213   0.00000  Uiso   1.00
O665   O     0.58824   0.15226   0.77013   0.00000  Uiso   1.00
O666   O     0.47093   0.06944   0.73413   0.00000  Uiso   1.00
O667   O     0.53678   0.25620   0.71360   0.00000  Uiso   1.00
Zn668  Zn    0.52672   0.13994   0.78734   0.00000  Uiso   1.00
Zn669  Zn    0.46713   0.12458   0.71875   0.00000  Uiso   1.00
Zn670  Zn    0.54389   0.19775   0.70657   0.00000  Uiso   1.00
Zn671  Zn    0.46226   0.20439   0.78733   0.00000  Uiso   1.00
C672   C     0.71992   0.16019   0.75918   0.00000  Uiso   1.00
C673   C     0.83305   0.15334   0.55920   0.00000  Uiso   1.00
C674   C     0.90338   0.13752   0.55723   0.00000  Uiso   1.00
C675   C     0.94736   0.17361   0.74045   0.00000  Uiso   1.00
C676   C     0.80410   0.18824   0.92006   0.00000  Uiso   1.00
C677   C     0.99265   0.17608   0.73855   0.00000  Uiso   1.00
C678   C     0.67449   0.15527   0.76567   0.00000  Uiso   1.00
C679   C     0.84725   0.32257   0.73634   0.00000  Uiso   1.00
C680   C     0.81911   0.01176   0.76410   0.00000  Uiso   1.00
C681   C     0.82303   0.05589   0.76021   0.00000  Uiso   1.00
C682   C     0.84333   0.27791   0.74013   0.00000  Uiso   1.00
C683   C     0.74727   0.18868   0.98802   0.00000  Uiso   1.00
C684   C     0.85233   0.14829   0.62943   0.00000  Uiso   1.00
C685   C     0.81552   0.18475   0.87082   0.00000  Uiso   1.00
C686   C     0.91724   0.14553   0.51236   0.00000  Uiso   1.00
C687   C     0.86185   0.14292   0.58097   0.00000  Uiso   1.00
C688   C     0.76169   0.19290   0.94232   0.00000  Uiso   1.00
C689   C     0.98081   0.12522   0.80018   0.00000  Uiso   1.00
C690   C     0.67245   0.10578   0.82671   0.00000  Uiso   1.00
C691   C     0.95199   0.18358   0.92449   0.00000  Uiso   1.00
C692   C     0.77448   0.17860   0.51201   0.00000  Uiso   1.00
C693   C     0.81784   0.17435   0.99088   0.00000  Uiso   1.00
C694   C     0.83307   0.18170   0.94477   0.00000  Uiso   1.00
C695   C     0.84640   0.16262   0.51376   0.00000  Uiso   1.00
C696   C     0.89020   0.16090   0.99080   0.00000  Uiso   1.00
C697   C     0.90586   0.17494   0.94717   0.00000  Uiso   1.00
C698   C     0.87704   0.18393   0.92451   0.00000  Uiso   1.00
H699   H     0.92579   0.12912   0.57412   0.00000  Uiso   1.00
H700   H     0.68136   0.19577   0.71409   0.00000  Uiso   1.00
H701   H     0.69557   0.08638   0.80401   0.00000  Uiso   1.00
H702   H     0.68958   0.13048   0.84529   0.00000  Uiso   1.00
H703   H     0.98328   0.08543   0.85140   0.00000  Uiso   1.00
H704   H     0.95694   0.14210   0.82511   0.00000  Uiso   1.00
H705   H     0.96398   0.09923   0.78276   0.00000  Uiso   1.00
H706   H     0.96197   0.18397   0.88835   0.00000  Uiso   1.00
H707   H     0.87319   0.00390   0.71080   0.00000  Uiso   1.00
H708   H     0.79289   0.33124   0.78985   0.00000  Uiso   1.00
H709   H     0.94951   0.14025   0.99529   0.00000  Uiso   1.00
H710   H     0.80144   0.15671   0.57960   0.00000  Uiso   1.00
H711   H     0.73912   0.19815   0.92400   0.00000  Uiso   1.00
H712   H     0.76040   0.17468   0.54702   0.00000  Uiso   1.00
H713   H     0.71429   0.19184   0.50476   0.00000  Uiso   1.00
H714   H     0.88973   0.19493   0.89125   0.00000  Uiso   1.00
O715   O     0.83333   0.16667   0.75000   0.00000  Uiso   1.00
O716   O     0.82118   0.12637   0.65458   0.00000  Uiso   1.00
O717   O     0.79607   0.20391   0.84968   0.00000  Uiso   1.00
O718   O     0.87491   0.17759   0.64606   0.00000  Uiso   1.00
O719   O     0.84118   0.15880   0.84968   0.00000  Uiso   1.00
O720   O     0.97896   0.19348   0.94560   0.00000  Uiso   1.00
O721   O     0.84597   0.08019   0.78214   0.00000  Uiso   1.00
O722   O     0.81298   0.26085   0.77013   0.00000  Uiso   1.00
O723   O     0.74078   0.13291   0.73413   0.00000  Uiso   1.00
O724   O     0.93360   0.19272   0.71360   0.00000  Uiso   1.00
O725   O     0.73738   0.18878   0.78213   0.00000  Uiso   1.00
O726   O     0.92158   0.15226   0.77013   0.00000  Uiso   1.00
O727   O     0.80426   0.06944   0.73413   0.00000  Uiso   1.00
O728   O     0.87012   0.25620   0.71360   0.00000  Uiso   1.00
Zn729  Zn    0.86005   0.13994   0.78734   0.00000  Uiso   1.00
Zn730  Zn    0.80046   0.12458   0.71875   0.00000  Uiso   1.00
Zn731  Zn    0.87723   0.19775   0.70657   0.00000  Uiso   1.00
Zn732  Zn    0.79560   0.20439   0.78733   0.00000  Uiso   1.00
C733   C     0.05326   0.49353   0.75918   0.00000  Uiso   1.00
C734   C     0.16638   0.48668   0.55920   0.00000  Uiso   1.00
C735   C     0.23672   0.47086   0.55723   0.00000  Uiso   1.00
C736   C     0.28069   0.50694   0.74045   0.00000  Uiso   1.00
C737   C     0.13743   0.52158   0.92006   0.00000  Uiso   1.00
C738   C     0.32599   0.50941   0.73855   0.00000  Uiso   1.00
C739   C     0.00782   0.48860   0.76567   0.00000  Uiso   1.00
C740   C     0.18058   0.65591   0.73634   0.00000  Uiso   1.00
C741   C     0.15244   0.34510   0.76410   0.00000  Uiso   1.00
C742   C     0.15637   0.38923   0.76021   0.00000  Uiso   1.00
C743   C     0.17667   0.61124   0.74013   0.00000  Uiso   1.00
C744   C     0.08060   0.52202   0.98802   0.00000  Uiso   1.00
C745   C     0.18567   0.48163   0.62943   0.00000  Uiso   1.00
C746   C     0.14885   0.51809   0.87082   0.00000  Uiso   1.00
C747   C     0.25057   0.47886   0.51236   0.00000  Uiso   1.00
C748   C     0.19518   0.47626   0.58097   0.00000  Uiso   1.00
C749   C     0.09502   0.52623   0.94232   0.00000  Uiso   1.00
C750   C     0.31414   0.45855   0.80018   0.00000  Uiso   1.00
C751   C     0.00578   0.43912   0.82671   0.00000  Uiso   1.00
C752   C     0.28532   0.51692   0.92449   0.00000  Uiso   1.00
C753   C     0.10781   0.51193   0.51201   0.00000  Uiso   1.00
C754   C     0.15117   0.50768   0.99088   0.00000  Uiso   1.00
C755   C     0.16641   0.51504   0.94477   0.00000  Uiso   1.00
C756   C     0.17973   0.49595   0.51376   0.00000  Uiso   1.00
C757   C     0.22353   0.49423   0.99080   0.00000  Uiso   1.00
C758   C     0.23919   0.50827   0.94717   0.00000  Uiso   1.00
C759   C     0.21037   0.51726   0.92451   0.00000  Uiso   1.00
H760   H     0.25913   0.46245   0.57412   0.00000  Uiso   1.00
H761   H     0.01469   0.52911   0.71409   0.00000  Uiso   1.00
H762   H     0.02891   0.41971   0.80401   0.00000  Uiso   1.00
H763   H     0.02291   0.46381   0.84529   0.00000  Uiso   1.00
H764   H     0.31661   0.41876   0.85140   0.00000  Uiso   1.00
H765   H     0.29027   0.47543   0.82511   0.00000  Uiso   1.00
H766   H     0.29731   0.43256   0.78276   0.00000  Uiso   1.00
H767   H     0.29530   0.51731   0.88835   0.00000  Uiso   1.00
H768   H     0.20652   0.33723   0.71080   0.00000  Uiso   1.00
H769   H     0.12622   0.66457   0.78985   0.00000  Uiso   1.00
H770   H     0.28284   0.47358   0.99529   0.00000  Uiso   1.00
H771   H     0.13477   0.49004   0.57960   0.00000  Uiso   1.00
H772   H     0.07245   0.53149   0.92400   0.00000  Uiso   1.00
H773   H     0.09373   0.50801   0.54702   0.00000  Uiso   1.00
H774   H     0.04762   0.52517   0.50476   0.00000  Uiso   1.00
H775   H     0.22307   0.52827   0.89125   0.00000  Uiso   1.00
O776   O     0.16667   0.50000   0.75000   0.00000  Uiso   1.00
O777   O     0.15451   0.45970   0.65458   0.00000  Uiso   1.00
O778   O     0.12940   0.53724   0.84968   0.00000  Uiso   1.00
O779   O     0.20824   0.51092   0.64606   0.00000  Uiso   1.00
O780   O     0.17451   0.49213   0.84968   0.00000  Uiso   1.00
O781   O     0.31229   0.52682   0.94560   0.00000  Uiso   1.00
O782   O     0.17930   0.41352   0.78214   0.00000  Uiso   1.00
O783   O     0.14632   0.59418   0.77013   0.00000  Uiso   1.00
O784   O     0.07412   0.46625   0.73413   0.00000  Uiso   1.00
O785   O     0.26693   0.52605   0.71360   0.00000  Uiso   1.00
O786   O     0.07071   0.52211   0.78213   0.00000  Uiso   1.00
O787   O     0.25491   0.48559   0.77013   0.00000  Uiso   1.00
O788   O     0.13760   0.40277   0.73413   0.00000  Uiso   1.00
O789   O     0.20345   0.58953   0.71360   0.00000  Uiso   1.00
Zn790  Zn    0.19338   0.47327   0.78734   0.00000  Uiso   1.00
Zn791  Zn    0.13379   0.45791   0.71875   0.00000  Uiso   1.00
Zn792  Zn    0.21056   0.53109   0.70657   0.00000  Uiso   1.00
Zn793  Zn    0.12893   0.53773   0.78733   0.00000  Uiso   1.00
C794   C     0.38659   0.49353   0.75918   0.00000  Uiso   1.00
C795   C     0.49972   0.48668   0.55920   0.00000  Uiso   1.00
C796   C     0.57005   0.47086   0.55723   0.00000  Uiso   1.00
C797   C     0.61402   0.50694   0.74045   0.00000  Uiso   1.00
C798   C     0.47076   0.52158   0.92006   0.00000  Uiso   1.00
C799   C     0.65932   0.50941   0.73855   0.00000  Uiso   1.00
C800   C     0.34116   0.48860   0.76567   0.00000  Uiso   1.00
C801   C     0.51392   0.65591   0.73634   0.00000  Uiso   1.00
C802   C     0.48578   0.34510   0.76410   0.00000  Uiso   1.00
C803   C     0.48970   0.38923   0.76021   0.00000  Uiso   1.00
C804   C     0.51000   0.61124   0.74013   0.00000  Uiso   1.00
C805   C     0.41393   0.52202   0.98802   0.00000  Uiso   1.00
C806   C     0.51900   0.48163   0.62943   0.00000  Uiso   1.00
C807   C     0.48218   0.51809   0.87082   0.00000  Uiso   1.00
C808   C     0.58390   0.47886   0.51236   0.00000  Uiso   1.00
C809   C     0.52851   0.47626   0.58097   0.00000  Uiso   1.00
C810   C     0.42836   0.52623   0.94232   0.00000  Uiso   1.00
C811   C     0.64748   0.45855   0.80018   0.00000  Uiso   1.00
C812   C     0.33911   0.43912   0.82671   0.00000  Uiso   1.00
C813   C     0.61865   0.51692   0.92449   0.00000  Uiso   1.00
C814   C     0.44114   0.51193   0.51201   0.00000  Uiso   1.00
C815   C     0.48451   0.50768   0.99088   0.00000  Uiso   1.00
C816   C     0.49974   0.51504   0.94477   0.00000  Uiso   1.00
C817   C     0.51306   0.49595   0.51376   0.00000  Uiso   1.00
C818   C     0.55687   0.49423   0.99080   0.00000  Uiso   1.00
C819   C     0.57252   0.50827   0.94717   0.00000  Uiso   1.00
C820   C     0.54371   0.51726   0.92451   0.00000  Uiso   1.00
H821   H     0.59246   0.46245   0.57412   0.00000  Uiso   1.00
H822   H     0.34803   0.52911   0.71409   0.00000  Uiso   1.00
H823   H     0.36224   0.41971   0.80401   0.00000  Uiso   1.00
H824   H     0.35625   0.46381   0.84529   0.00000  Uiso   1.00
H825   H     0.64994   0.41876   0.85140   0.00000  Uiso   1.00
H826   H     0.62361   0.47543   0.82511   0.00000  Uiso   1.00
H827   H     0.63065   0.43256   0.78276   0.00000  Uiso   1.00
H828   H     0.62864   0.51731   0.88835   0.00000  Uiso   1.00
H829   H     0.53985   0.33723   0.71080   0.00000  Uiso   1.00
H830   H     0.45956   0.66457   0.78985   0.00000  Uiso   1.00
H831   H     0.61617   0.47358   0.99529   0.00000  Uiso   1.00
H832   H     0.46810   0.49004   0.57960   0.00000  Uiso   1.00
H833   H     0.40578   0.53149   0.92400   0.00000  Uiso   1.00
H834   H     0.42707   0.50801   0.54702   0.00000  Uiso   1.00
H835   H     0.38095   0.52517   0.50476   0.00000  Uiso   1.00
H836   H     0.55640   0.52827   0.89125   0.00000  Uiso   1.00
O837   O     0.50000   0.50000   0.75000   0.00000  Uiso   1.00
O838   O     0.48784   0.45970   0.65458   0.00000  Uiso   1.00
O839   O     0.46274   0.53724   0.84968   0.00000  Uiso   1.00
O840   O     0.54157   0.51092   0.64606   0.00000  Uiso   1.00
O841   O     0.50785   0.49213   0.84968   0.00000  Uiso   1.00
O842   O     0.64562   0.52682   0.94560   0.00000  Uiso   1.00
O843   O     0.51264   0.41352   0.78214   0.00000  Uiso   1.00
O844   O     0.47965   0.59418   0.77013   0.00000  Uiso   1.00
O845   O     0.40745   0.46625   0.73413   0.00000  Uiso   1.00
O846   O     0.60026   0.52605   0.71360   0.00000  Uiso   1.00
O847   O     0.40405   0.52211   0.78213   0.00000  Uiso   1.00
O848   O     0.58824   0.48559   0.77013   0.00000  Uiso   1.00
O849   O     0.47093   0.40277   0.73413   0.00000  Uiso   1.00
O850   O     0.53678   0.58953   0.71360   0.00000  Uiso   1.00
Zn851  Zn    0.52672   0.47327   0.78734   0.00000  Uiso   1.00
Zn852  Zn    0.46713   0.45791   0.71875   0.00000  Uiso   1.00
Zn853  Zn    0.54389   0.53109   0.70657   0.00000  Uiso   1.00
Zn854  Zn    0.46226   0.53773   0.78733   0.00000  Uiso   1.00
C855   C     0.71992   0.49353   0.75918   0.00000  Uiso   1.00
C856   C     0.83305   0.48668   0.55920   0.00000  Uiso   1.00
C857   C     0.90338   0.47086   0.55723   0.00000  Uiso   1.00
C858   C     0.94736   0.50694   0.74045   0.00000  Uiso   1.00
C859   C     0.80410   0.52158   0.92006   0.00000  Uiso   1.00
C860   C     0.99265   0.50941   0.73855   0.00000  Uiso   1.00
C861   C     0.67449   0.48860   0.76567   0.00000  Uiso   1.00
C862   C     0.84725   0.65591   0.73634   0.00000  Uiso   1.00
C863   C     0.81911   0.34510   0.76410   0.00000  Uiso   1.00
C864   C     0.82303   0.38923   0.76021   0.00000  Uiso   1.00
C865   C     0.84333   0.61124   0.74013   0.00000  Uiso   1.00
C866   C     0.74727   0.52202   0.98802   0.00000  Uiso   1.00
C867   C     0.85233   0.48163   0.62943   0.00000  Uiso   1.00
C868   C     0.81552   0.51809   0.87082   0.00000  Uiso   1.00
C869   C     0.91724   0.47886   0.51236   0.00000  Uiso   1.00
C870   C     0.86185   0.47626   0.58097   0.00000  Uiso   1.00
C871   C     0.76169   0.52623   0.94232   0.00000  Uiso   1.00
C872   C     0.98081   0.45855   0.80018   0.00000  Uiso   1.00
C873   C     0.67245   0.43912   0.82671   0.00000  Uiso   1.00
C874   C     0.95199   0.51692   0.92449   0.00000  Uiso   1.00
C875   C     0.77448   0.51193   0.51201   0.00000  Uiso   1.00
C876   C     0.81784   0.50768   0.99088   0.00000  Uiso   1.00
C877   C     0.83307   0.51504   0.94477   0.00000  Uiso   1.00
C878   C     0.84640   0.49595   0.51376   0.00000  Uiso   1.00
C879   C     0.89020   0.49423   0.99080   0.00000  Uiso   1.00
C880   C     0.90586   0.50827   0.94717   0.00000  Uiso   1.00
C881   C     0.87704   0.51726   0.92451   0.00000  Uiso   1.00
H882   H     0.92579   0.46245   0.57412   0.00000  Uiso   1.00
H883   H     0.68136   0.52911   0.71409   0.00000  Uiso   1.00
H884   H     0.69557   0.41971   0.80401   0.00000  Uiso   1.00
H885   H     0.68958   0.46381   0.84529   0.00000  Uiso   1.00
H886   H     0.98328   0.41876   0.85140   0.00000  Uiso   1.00
H887   H     0.95694   0.47543   0.82511   0.00000  Uiso   1.00
H888   H     0.96398   0.43256   0.78276   0.00000  Uiso   1.00
H889   H     0.96197   0.51731   0.88835   0.00000  Uiso   1.00
H890   H     0.87319   0.33723   0.71080   0.00000  Uiso   1.00
H891   H     0.79289   0.66457   0.78985   0.00000  Uiso   1.00
H892   H     0.94951   0.47358   0.99529   0.00000  Uiso   1.00
H893   H     0.80144   0.49004   0.57960   0.00000  Uiso   1.00
H894   H     0.73912   0.53149   0.92400   0.00000  Uiso   1.00
H895   H     0.76040   0.50801   0.54702   0.00000  Uiso   1.00
H896   H     0.71429   0.52517   0.50476   0.00000  Uiso   1.00
H897   H     0.88973   0.52827   0.89125   0.00000  Uiso   1.00
O898   O     0.83333   0.50000   0.75000   0.00000  Uiso   1.00
O899   O     0.82118   0.45970   0.65458   0.00000  Uiso   1.00
O900   O     0.79607   0.53724   0.84968   0.00000  Uiso   1.00
O901   O     0.87491   0.51092   0.64606   0.00000  Uiso   1.00
O902   O     0.84118   0.49213   0.84968   0.00000  Uiso   1.00
O903   O     0.97896   0.52682   0.94560   0.00000  Uiso   1.00
O904   O     0.84597   0.41352   0.78214   0.00000  Uiso   1.00
O905   O     0.81298   0.59418   0.77013   0.00000  Uiso   1.00
O906   O     0.74078   0.46625   0.73413   0.00000  Uiso   1.00
O907   O     0.93360   0.52605   0.71360   0.00000  Uiso   1.00
O908   O     0.73738   0.52211   0.78213   0.00000  Uiso   1.00
O909   O     0.92158   0.48559   0.77013   0.00000  Uiso   1.00
O910   O     0.80426   0.40277   0.73413   0.00000  Uiso   1.00
O911   O     0.87012   0.58953   0.71360   0.00000  Uiso   1.00
Zn912  Zn    0.86005   0.47327   0.78734   0.00000  Uiso   1.00
Zn913  Zn    0.80046   0.45791   0.71875   0.00000  Uiso   1.00
Zn914  Zn    0.87723   0.53109   0.70657   0.00000  Uiso   1.00
Zn915  Zn    0.79560   0.53773   0.78733   0.00000  Uiso   1.00
C916   C     0.05326   0.82686   0.75918   0.00000  Uiso   1.00
C917   C     0.16638   0.82001   0.55920   0.00000  Uiso   1.00
C918   C     0.23672   0.80419   0.55723   0.00000  Uiso   1.00
C919   C     0.28069   0.84027   0.74045   0.00000  Uiso   1.00
C920   C     0.13743   0.85491   0.92006   0.00000  Uiso   1.00
C921   C     0.32599   0.84274   0.73855   0.00000  Uiso   1.00
C922   C     0.00782   0.82193   0.76567   0.00000  Uiso   1.00
C923   C     0.18058   0.98924   0.73634   0.00000  Uiso   1.00
C924   C     0.15244   0.67843   0.76410   0.00000  Uiso   1.00
C925   C     0.15637   0.72256   0.76021   0.00000  Uiso   1.00
C926   C     0.17667   0.94458   0.74013   0.00000  Uiso   1.00
C927   C     0.08060   0.85535   0.98802   0.00000  Uiso   1.00
C928   C     0.18567   0.81496   0.62943   0.00000  Uiso   1.00
C929   C     0.14885   0.85142   0.87082   0.00000  Uiso   1.00
C930   C     0.25057   0.81220   0.51236   0.00000  Uiso   1.00
C931   C     0.19518   0.80959   0.58097   0.00000  Uiso   1.00
C932   C     0.09502   0.85956   0.94232   0.00000  Uiso   1.00
C933   C     0.31414   0.79188   0.80018   0.00000  Uiso   1.00
C934   C     0.00578   0.77245   0.82671   0.00000  Uiso   1.00
C935   C     0.28532   0.85025   0.92449   0.00000  Uiso   1.00
C936   C     0.10781   0.84527   0.51201   0.00000  Uiso   1.00
C937   C     0.15117   0.84102   0.99088   0.00000  Uiso   1.00
C938   C     0.16641   0.84837   0.94477   0.00000  Uiso   1.00
C939   C     0.17973   0.82929   0.51376   0.00000  Uiso   1.00
C940   C     0.22353   0.82757   0.99080   0.00000  Uiso   1.00
C941   C     0.23919   0.84160   0.94717   0.00000  Uiso   1.00
C942   C     0.21037   0.85059   0.92451   0.00000  Uiso   1.00
H943   H     0.25913   0.79578   0.57412   0.00000  Uiso   1.00
H944   H     0.01469   0.86244   0.71409   0.00000  Uiso   1.00
H945   H     0.02891   0.75304   0.80401   0.00000  Uiso   1.00
H946   H     0.02291   0.79715   0.84529   0.00000  Uiso   1.00
H947   H     0.31661   0.75209   0.85140   0.00000  Uiso   1.00
H948   H     0.29027   0.80876   0.82511   0.00000  Uiso   1.00
H949   H     0.29731   0.76589   0.78276   0.00000  Uiso   1.00
H950   H     0.29530   0.85064   0.88835   0.00000  Uiso   1.00
H951   H     0.20652   0.67056   0.71080   0.00000  Uiso   1.00
H952   H     0.12622   0.99790   0.78985   0.00000  Uiso   1.00
H953   H     0.28284   0.80692   0.99529   0.00000  Uiso   1.00
H954   H     0.13477   0.82338   0.57960   0.00000  Uiso   1.00
H955   H     0.07245   0.86482   0.92400   0.00000  Uiso   1.00
H956   H     0.09373   0.84134   0.54702   0.00000  Uiso   1.00
H957   H     0.04762   0.85850   0.50476   0.00000  Uiso   1.00
H958   H     0.22307   0.86160   0.89125   0.00000  Uiso   1.00
O959   O     0.16667   0.83333   0.75000   0.00000  Uiso   1.00
O960   O     0.15451   0.79304   0.65458   0.00000  Uiso   1.00
O961   O     0.12940   0.87058   0.84968   0.00000  Uiso   1.00
O962   O     0.20824   0.84425   0.64606   0.00000  Uiso   1.00
O963   O     0.17451   0.82546   0.84968   0.00000  Uiso   1.00
O964   O     0.31229   0.86015   0.94560   0.00000  Uiso   1.00
O965   O     0.17930   0.74686   0.78214   0.00000  Uiso   1.00
O966   O     0.14632   0.92751   0.77013   0.00000  Uiso   1.00
O967   O     0.07412   0.79958   0.73413   0.00000  Uiso   1.00
O968   O     0.26693   0.85939   0.71360   0.00000  Uiso   1.00
O969   O     0.07071   0.85544   0.78213   0.00000  Uiso   1.00
O970   O     0.25491   0.81892   0.77013   0.00000  Uiso   1.00
O971   O     0.13760   0.73610   0.73413   0.00000  Uiso   1.00
O972   O     0.20345   0.92286   0.71360   0.00000  Uiso   1.00
Zn973  Zn    0.19338   0.80661   0.78734   0.00000  Uiso   1.00
Zn974  Zn    0.13379   0.79124   0.71875   0.00000  Uiso   1.00
Zn975  Zn    0.21056   0.86442   0.70657   0.00000  Uiso   1.00
Zn976  Zn    0.12893   0.87106   0.78733   0.00000  Uiso   1.00
C977   C     0.38659   0.82686   0.75918   0.00000  Uiso   1.00
C978   C     0.49972   0.82001   0.55920   0.00000  Uiso   1.00
C979   C     0.57005   0.80419   0.55723   0.00000  Uiso   1.00
C980   C     0.61402   0.84027   0.74045   0.00000  Uiso   1.00
C981   C     0.47076   0.85491   0.92006   0.00000  Uiso   1.00
C982   C     0.65932   0.84274   0.73855   0.00000  Uiso   1.00
C983   C     0.34116   0.82193   0.76567   0.00000  Uiso   1.00
C984   C     0.51392   0.98924   0.73634   0.00000  Uiso   1.00
C985   C     0.48578   0.67843   0.76410   0.00000  Uiso   1.00
C986   C     0.48970   0.72256   0.76021   0.00000  Uiso   1.00
C987   C     0.51000   0.94458   0.74013   0.00000  Uiso   1.00
C988   C     0.41393   0.85535   0.98802   0.00000  Uiso   1.00
C989   C     0.51900   0.81496   0.62943   0.00000  Uiso   1.00
C990   C     0.48218   0.85142   0.87082   0.00000  Uiso   1.00
C991   C     0.58390   0.81220   0.51236   0.00000  Uiso   1.00
C992   C     0.52851   0.80959   0.58097   0.00000  Uiso   1.00
C993   C     0.42836   0.85956   0.94232   0.00000  Uiso   1.00
C994   C     0.64748   0.79188   0.80018   0.00000  Uiso   1.00
C995   C     0.33911   0.77245   0.82671   0.00000  Uiso   1.00
C996   C     0.61865   0.85025   0.92449   0.00000  Uiso   1.00
C997   C     0.44114   0.84527   0.51201   0.00000  Uiso   1.00
C998   C     0.48451   0.84102   0.99088   0.00000  Uiso   1.00
C999   C     0.49974   0.84837   0.94477   0.00000  Uiso   1.00
C1000  C     0.51306   0.82929   0.51376   0.00000  Uiso   1.00
C1001  C     0.55687   0.82757   0.99080   0.00000  Uiso   1.00
C1002  C     0.57252   0.84160   0.94717   0.00000  Uiso   1.00
C1003  C     0.54371   0.85059   0.92451   0.00000  Uiso   1.00
H1004  H     0.59246   0.79578   0.57412   0.00000  Uiso   1.00
H1005  H     0.34803   0.86244   0.71409   0.00000  Uiso   1.00
H1006  H     0.36224   0.75304   0.80401   0.00000  Uiso   1.00
H1007  H     0.35625   0.79715   0.84529   0.00000  Uiso   1.00
H1008  H     0.64994   0.75209   0.85140   0.00000  Uiso   1.00
H1009  H     0.62361   0.80876   0.82511   0.00000  Uiso   1.00
H1010  H     0.63065   0.76589   0.78276   0.00000  Uiso   1.00
H1011  H     0.62864   0.85064   0.88835   0.00000  Uiso   1.00
H1012  H     0.53985   0.67056   0.71080   0.00000  Uiso   1.00
H1013  H     0.45956   0.99790   0.78985   0.00000  Uiso   1.00
H1014  H     0.61617   0.80692   0.99529   0.00000  Uiso   1.00
H1015  H     0.46810   0.82338   0.57960   0.00000  Uiso   1.00
H1016  H     0.40578   0.86482   0.92400   0.00000  Uiso   1.00
H1017  H     0.42707   0.84134   0.54702   0.00000  Uiso   1.00
H1018  H     0.38095   0.85850   0.50476   0.00000  Uiso   1.00
H1019  H     0.55640   0.86160   0.89125   0.00000  Uiso   1.00
O1020  O     0.50000   0.83333   0.75000   0.00000  Uiso   1.00
O1021  O     0.48784   0.79304   0.65458   0.00000  Uiso   1.00
O1022  O     0.46274   0.87058   0.84968   0.00000  Uiso   1.00
O1023  O     0.54157   0.84425   0.64606   0.00000  Uiso   1.00
O1024  O     0.50785   0.82546   0.84968   0.00000  Uiso   1.00
O1025  O     0.64562   0.86015   0.94560   0.00000  Uiso   1.00
O1026  O     0.51264   0.74686   0.78214   0.00000  Uiso   1.00
O1027  O     0.47965   0.92751   0.77013   0.00000  Uiso   1.00
O1028  O     0.40745   0.79958   0.73413   0.00000  Uiso   1.00
O1029  O     0.60026   0.85939   0.71360   0.00000  Uiso   1.00
O1030  O     0.40405   0.85544   0.78213   0.00000  Uiso   1.00
O1031  O     0.58824   0.81892   0.77013   0.00000  Uiso   1.00
O1032  O     0.47093   0.73610   0.73413   0.00000  Uiso   1.00
O1033  O     0.53678   0.92286   0.71360   0.00000  Uiso   1.00
Zn1034 Zn    0.52672   0.80661   0.78734   0.00000  Uiso   1.00
Zn1035 Zn    0.46713   0.79124   0.71875   0.00000  Uiso   1.00
Zn1036 Zn    0.54389   0.86442   0.70657   0.00000  Uiso   1.00
Zn1037 Zn    0.46226   0.87106   0.78733   0.00000  Uiso   1.00
C1038  C     0.71992   0.82686   0.75918   0.00000  Uiso   1.00
C1039  C     0.83305   0.82001   0.55920   0.00000  Uiso   1.00
C1040  C     0.90338   0.80419   0.55723   0.00000  Uiso   1.00
C1041  C     0.94736   0.84027   0.74045   0.00000  Uiso   1.00
C1042  C     0.80410   0.85491   0.92006   0.00000  Uiso   1.00
C1043  C     0.99265   0.84274   0.73855   0.00000  Uiso   1.00
C1044  C     0.67449   0.82193   0.76567   0.00000  Uiso   1.00
C1045  C     0.84725   0.98924   0.73634   0.00000  Uiso   1.00
C1046  C     0.81911   0.67843   0.76410   0.00000  Uiso   1.00
C1047  C     0.82303   0.72256   0.76021   0.00000  Uiso   1.00
C1048  C     0.84333   0.94458   0.74013   0.00000  Uiso   1.00
C1049  C     0.74727   0.85535   0.98802   0.00000  Uiso   1.00
C1050  C     0.85233   0.81496   0.62943   0.00000  Uiso   1.00
C1051  C     0.81552   0.85142   0.87082   0.00000  Uiso   1.00
C1052  C     0.91724   0.81220   0.51236   0.00000  Uiso   1.00
C1053  C     0.86185   0.80959   0.58097   0.00000  Uiso   1.00
C1054  C     0.76169   0.85956   0.94232   0.00000  Uiso   1.00
C1055  C     0.98081   0.79188   0.80018   0.00000  Uiso   1.00
C1056  C     0.67245   0.77245   0.82671   0.00000  Uiso   1.00
C1057  C     0.95199   0.85025   0.92449   0.00000  Uiso   1.00
C1058  C     0.77448   0.84527   0.51201   0.00000  Uiso   1.00
C1059  C     0.81784   0.84102   0.99088   0.00000  Uiso   1.00
C1060  C     0.83307   0.84837   0.94477   0.00000  Uiso   1.00
C1061  C     0.84640   0.82929   0.51376   0.00000  Uiso   1.00
C1062  C     0.89020   0.82757   0.99080   0.00000  Uiso   1.00
C1063  C     0.90586   0.84160   0.94717   0.00000  Uiso   1.00
C1064  C     0.87704   0.85059   0.92451   0.00000  Uiso   1.00
H1065  H     0.92579   0.79578   0.57412   0.00000  Uiso   1.00
H1066  H     0.68136   0.86244   0.71409   0.00000  Uiso   1.00
H1067  H     0.69557   0.75304   0.80401   0.00000  Uiso   1.00
H1068  H     0.68958   0.79715   0.84529   0.00000  Uiso   1.00
H1069  H     0.98328   0.75209   0.85140   0.00000  Uiso   1.00
H1070  H     0.95694   0.80876   0.82511   0.00000  Uiso   1.00
H1071  H     0.96398   0.76589   0.78276   0.00000  Uiso   1.00
H1072  H     0.96197   0.85064   0.88835   0.00000  Uiso   1.00
H1073  H     0.87319   0.67056   0.71080   0.00000  Uiso   1.00
H1074  H     0.79289   0.99790   0.78985   0.00000  Uiso   1.00
H1075  H     0.94951   0.80692   0.99529   0.00000  Uiso   1.00
H1076  H     0.80144   0.82338   0.57960   0.00000  Uiso   1.00
H1077  H     0.73912   0.86482   0.92400   0.00000  Uiso   1.00
H1078  H     0.76040   0.84134   0.54702   0.00000  Uiso   1.00
H1079  H     0.71429   0.85850   0.50476   0.00000  Uiso   1.00
H1080  H     0.88973   0.86160   0.89125   0.00000  Uiso   1.00
O1081  O     0.83333   0.83333   0.75000   0.00000  Uiso   1.00
O1082  O     0.82118   0.79304   0.65458   0.00000  Uiso   1.00
O1083  O     0.79607   0.87058   0.84968   0.00000  Uiso   1.00
O1084  O     0.87491   0.84425   0.64606   0.00000  Uiso   1.00
O1085  O     0.84118   0.82546   0.84968   0.00000  Uiso   1.00
O1086  O     0.97896   0.86015   0.94560   0.00000  Uiso   1.00
O1087  O     0.84597   0.74686   0.78214   0.00000  Uiso   1.00
O1088  O     0.81298   0.92751   0.77013   0.00000  Uiso   1.00
O1089  O     0.74078   0.79958   0.73413   0.00000  Uiso   1.00
O1090  O     0.93360   0.85939   0.71360   0.00000  Uiso   1.00
O1091  O     0.73738   0.85544   0.78213   0.00000  Uiso   1.00
O1092  O     0.92158   0.81892   0.77013   0.00000  Uiso   1.00
O1093  O     0.80426   0.73610   0.73413   0.00000  Uiso   1.00
O1094  O     0.87012   0.92286   0.71360   0.00000  Uiso   1.00
Zn1095 Zn    0.86005   0.80661   0.78734   0.00000  Uiso   1.00
Zn1096 Zn    0.80046   0.79124   0.71875   0.00000  Uiso   1.00
Zn1097 Zn    0.87723   0.86442   0.70657   0.00000  Uiso   1.00
Zn1098 Zn    0.79560   0.87106   0.78733   0.00000  Uiso   1.00
loop_
_geom_bond_atom_site_label_1
_geom_bond_atom_site_label_2
_geom_bond_distance
_geom_bond_site_symmetry_2
_ccdc_geom_bond_type
C1     O54     1.272   .     A
C1     O52     1.269   .     A
C1     C7      1.435   .     S
C2     H39     1.076   .     S
C2     C24     1.412   .     A
C2     C16     1.389   .     A
C3     C15     1.385   .     A
C3     H28     1.084   .     S
C3     C16     1.393   .     A
C4     O55     1.263   .     A
C4     O53     1.290   .     A
C4     C6      1.459   .     S
C5     C23     1.416   .     A
C5     C14     1.471   .     S
C5     C17     1.401   .     A
C6     C68     1.357   .     S
C6     H90     1.088   .     S
C7     C128    1.357   1_455 S
C7     C140    1.532   1_455 S
C8     C11     1.451   .     S
C8     C192    1.332   .     S
C8     H219    1.088   .     S
C9     C10     1.434   .     S
C9     C374    1.332   1_545 S
C9     H403    1.086   1_545 S
C10    O56     1.279   .     A
C10    O50     1.279   .     A
C11    O57     1.274   .     A
C11    O51     1.274   .     A
C12    C17     1.386   .     A
C12    C570    1.391   .     S
C12    H591    1.083   .     S
C13    C16     1.450   .     S
C13    O45     1.282   .     A
C13    O47     1.270   .     A
C14    O48     1.284   .     A
C14    O46     1.280   .     A
C15    C574    1.409   1_554 S
C15    H587    1.080   1_554 S
C17    H40     1.083   .     S
C18    H34     1.112   .     S
C18    H33     1.109   .     S
C18    C68     1.532   .     S
C18    C80     1.533   .     S
C19    H31     1.111   .     S
C19    H30     1.111   .     S
C19    C140    1.533   1_455 S
C19    H154    1.111   1_455 S
C20    O49     1.220   .     D
C20    C26     1.489   .     S
C20    H35     1.083   .     S
C21    H41     1.076   .     S
C21    C561    1.391   1_554 S
C21    C571    1.419   1_554 S
C22    C23     1.419   .     A
C22    C570    1.419   .     S
C22    C573    1.424   .     S
C23    C27     1.406   .     A
C24    C571    1.424   1_554 S
C24    C574    1.431   1_554 S
C25    C26     1.413   .     A
C25    C564    1.409   .     S
C25    C573    1.431   .     S
C26    C27     1.392   .     A
C27    H43     1.083   .     S
H29    C128    1.088   1_455 S
H32    C80     1.111   .     S
H36    C374    1.088   1_545 S
H37    C192    1.086   .     S
H38    C564    1.080   .     S
H42    C561    1.083   1_554 S
O44    Zn61    1.940   .     S
O44    Zn60    1.935   .     S
O44    Zn59    1.953   .     S
O44    Zn58    1.953   .     S
O45    Zn59    1.931   .     S
O46    Zn61    1.939   .     S
O47    Zn60    1.940   .     S
O48    Zn58    1.933   .     S
O50    Zn58    1.928   .     S
O51    Zn61    1.925   .     S
O52    Zn59    1.938   .     S
O53    Zn60    1.945   .     S
O54    Zn61    1.944   .     S
O55    Zn58    1.936   .     S
O56    Zn59    1.928   .     S
O57    Zn60    1.928   .     S
C62    O115    1.272   .     A
C62    O113    1.269   .     A
C62    C68     1.435   .     S
C63    H100    1.076   .     S
C63    C85     1.412   .     A
C63    C77     1.389   .     A
C64    C76     1.385   .     A
C64    H89     1.084   .     S
C64    C77     1.393   .     A
C65    O116    1.263   .     A
C65    O114    1.290   .     A
C65    C67     1.459   .     S
C66    C84     1.416   .     A
C66    C75     1.471   .     S
C66    C78     1.401   .     A
C67    C129    1.357   .     S
C67    H151    1.088   .     S
C69    C72     1.451   .     S
C69    C253    1.332   .     S
C69    H280    1.088   .     S
C70    C71     1.434   .     S
C70    C435    1.332   1_545 S
C70    H464    1.086   1_545 S
C71    O117    1.279   .     A
C71    O111    1.279   .     A
C72    O118    1.274   .     A
C72    O112    1.274   .     A
C73    C78     1.386   .     A
C73    C631    1.391   .     S
C73    H652    1.083   .     S
C74    C77     1.450   .     S
C74    O106    1.282   .     A
C74    O108    1.270   .     A
C75    O109    1.284   .     A
C75    O107    1.280   .     A
C76    C635    1.409   1_554 S
C76    H648    1.080   1_554 S
C78    H101    1.083   .     S
C79    H95     1.112   .     S
C79    H94     1.109   .     S
C79    C129    1.532   .     S
C79    C141    1.533   .     S
C80    H92     1.111   .     S
C80    H91     1.111   .     S
C81    O110    1.220   .     D
C81    C87     1.489   .     S
C81    H96     1.083   .     S
C82    H102    1.076   .     S
C82    C622    1.391   1_554 S
C82    C632    1.419   1_554 S
C83    C84     1.419   .     A
C83    C631    1.419   .     S
C83    C634    1.424   .     S
C84    C88     1.406   .     A
C85    C632    1.424   1_554 S
C85    C635    1.431   1_554 S
C86    C87     1.413   .     A
C86    C625    1.409   .     S
C86    C634    1.431   .     S
C87    C88     1.392   .     A
C88    H104    1.083   .     S
H93    C141    1.111   .     S
H97    C435    1.088   1_545 S
H98    C253    1.086   .     S
H99    C625    1.080   .     S
H103   C622    1.083   1_554 S
O105   Zn122   1.940   .     S
O105   Zn121   1.935   .     S
O105   Zn120   1.953   .     S
O105   Zn119   1.953   .     S
O106   Zn120   1.931   .     S
O107   Zn122   1.939   .     S
O108   Zn121   1.940   .     S
O109   Zn119   1.933   .     S
O111   Zn119   1.928   .     S
O112   Zn122   1.925   .     S
O113   Zn120   1.938   .     S
O114   Zn121   1.945   .     S
O115   Zn122   1.944   .     S
O116   Zn119   1.936   .     S
O117   Zn120   1.928   .     S
O118   Zn121   1.928   .     S
C123   O176    1.272   .     A
C123   O174    1.269   .     A
C123   C129    1.435   .     S
C124   H161    1.076   .     S
C124   C146    1.412   .     A
C124   C138    1.389   .     A
C125   C137    1.385   .     A
C125   H150    1.084   .     S
C125   C138    1.393   .     A
C126   O177    1.263   .     A
C126   O175    1.290   .     A
C126   C128    1.459   .     S
C127   C145    1.416   .     A
C127   C136    1.471   .     S
C127   C139    1.401   .     A
C128   C7      1.357   1_655 S
C128   H29     1.088   1_655 S
C130   C133    1.451   .     S
C130   C314    1.332   .     S
C130   H341    1.088   .     S
C131   C132    1.434   .     S
C131   C496    1.332   1_545 S
C131   H525    1.086   1_545 S
C132   O178    1.279   .     A
C132   O172    1.279   .     A
C133   O179    1.274   .     A
C133   O173    1.274   .     A
C134   C139    1.386   .     A
C134   C692    1.391   .     S
C134   H713    1.083   .     S
C135   C138    1.450   .     S
C135   O167    1.282   .     A
C135   O169    1.270   .     A
C136   O170    1.284   .     A
C136   O168    1.280   .     A
C137   C696    1.409   1_554 S
C137   H709    1.080   1_554 S
C139   H162    1.083   .     S
C140   H156    1.112   .     S
C140   H155    1.109   .     S
C140   C7      1.532   1_655 S
C140   C19     1.533   1_655 S
C141   H153    1.111   .     S
C141   H152    1.111   .     S
C142   O171    1.220   .     D
C142   C148    1.489   .     S
C142   H157    1.083   .     S
C143   H163    1.076   .     S
C143   C683    1.391   1_554 S
C143   C693    1.419   1_554 S
C144   C145    1.419   .     A
C144   C692    1.419   .     S
C144   C695    1.424   .     S
C145   C149    1.406   .     A
C146   C693    1.424   1_554 S
C146   C696    1.431   1_554 S
C147   C148    1.413   .     A
C147   C686    1.409   .     S
C147   C695    1.431   .     S
C148   C149    1.392   .     A
C149   H165    1.083   .     S
H154   C19     1.111   1_655 S
H158   C496    1.088   1_545 S
H159   C314    1.086   .     S
H160   C686    1.080   .     S
H164   C683    1.083   1_554 S
O166   Zn183   1.940   .     S
O166   Zn182   1.935   .     S
O166   Zn181   1.953   .     S
O166   Zn180   1.953   .     S
O167   Zn181   1.931   .     S
O168   Zn183   1.939   .     S
O169   Zn182   1.940   .     S
O170   Zn180   1.933   .     S
O172   Zn180   1.928   .     S
O173   Zn183   1.925   .     S
O174   Zn181   1.938   .     S
O175   Zn182   1.945   .     S
O176   Zn183   1.944   .     S
O177   Zn180   1.936   .     S
O178   Zn181   1.928   .     S
O179   Zn182   1.928   .     S
C184   O237    1.272   .     A
C184   O235    1.269   .     A
C184   C190    1.435   .     S
C185   H222    1.076   .     S
C185   C207    1.412   .     A
C185   C199    1.389   .     A
C186   C198    1.385   .     A
C186   H211    1.084   .     S
C186   C199    1.393   .     A
C187   O238    1.263   .     A
C187   O236    1.290   .     A
C187   C189    1.459   .     S
C188   C206    1.416   .     A
C188   C197    1.471   .     S
C188   C200    1.401   .     A
C189   C251    1.357   .     S
C189   H273    1.088   .     S
C190   C311    1.357   1_455 S
C190   C323    1.532   1_455 S
C191   C194    1.451   .     S
C191   C375    1.332   .     S
C191   H402    1.088   .     S
C192   C193    1.434   .     S
C193   O239    1.279   .     A
C193   O233    1.279   .     A
C194   O240    1.274   .     A
C194   O234    1.274   .     A
C195   C200    1.386   .     A
C195   C753    1.391   .     S
C195   H774    1.083   .     S
C196   C199    1.450   .     S
C196   O228    1.282   .     A
C196   O230    1.270   .     A
C197   O231    1.284   .     A
C197   O229    1.280   .     A
C198   C757    1.409   1_554 S
C198   H770    1.080   1_554 S
C200   H223    1.083   .     S
C201   H217    1.112   .     S
C201   H216    1.109   .     S
C201   C251    1.532   .     S
C201   C263    1.533   .     S
C202   H214    1.111   .     S
C202   H213    1.111   .     S
C202   C323    1.533   1_455 S
C202   H337    1.111   1_455 S
C203   O232    1.220   .     D
C203   C209    1.489   .     S
C203   H218    1.083   .     S
C204   H224    1.076   .     S
C204   C744    1.391   1_554 S
C204   C754    1.419   1_554 S
C205   C206    1.419   .     A
C205   C753    1.419   .     S
C205   C756    1.424   .     S
C206   C210    1.406   .     A
C207   C754    1.424   1_554 S
C207   C757    1.431   1_554 S
C208   C209    1.413   .     A
C208   C747    1.409   .     S
C208   C756    1.431   .     S
C209   C210    1.392   .     A
C210   H226    1.083   .     S
H212   C311    1.088   1_455 S
H215   C263    1.111   .     S
H220   C375    1.086   .     S
H221   C747    1.080   .     S
H225   C744    1.083   1_554 S
O227   Zn244   1.940   .     S
O227   Zn243   1.935   .     S
O227   Zn242   1.953   .     S
O227   Zn241   1.953   .     S
O228   Zn242   1.931   .     S
O229   Zn244   1.939   .     S
O230   Zn243   1.940   .     S
O231   Zn241   1.933   .     S
O233   Zn241   1.928   .     S
O234   Zn244   1.925   .     S
O235   Zn242   1.938   .     S
O236   Zn243   1.945   .     S
O237   Zn244   1.944   .     S
O238   Zn241   1.936   .     S
O239   Zn242   1.928   .     S
O240   Zn243   1.928   .     S
C245   O298    1.272   .     A
C245   O296    1.269   .     A
C245   C251    1.435   .     S
C246   H283    1.076   .     S
C246   C268    1.412   .     A
C246   C260    1.389   .     A
C247   C259    1.385   .     A
C247   H272    1.084   .     S
C247   C260    1.393   .     A
C248   O299    1.263   .     A
C248   O297    1.290   .     A
C248   C250    1.459   .     S
C249   C267    1.416   .     A
C249   C258    1.471   .     S
C249   C261    1.401   .     A
C250   C312    1.357   .     S
C250   H334    1.088   .     S
C252   C255    1.451   .     S
C252   C436    1.332   .     S
C252   H463    1.088   .     S
C253   C254    1.434   .     S
C254   O300    1.279   .     A
C254   O294    1.279   .     A
C255   O301    1.274   .     A
C255   O295    1.274   .     A
C256   C261    1.386   .     A
C256   C814    1.391   .     S
C256   H835    1.083   .     S
C257   C260    1.450   .     S
C257   O289    1.282   .     A
C257   O291    1.270   .     A
C258   O292    1.284   .     A
C258   O290    1.280   .     A
C259   C818    1.409   1_554 S
C259   H831    1.080   1_554 S
C261   H284    1.083   .     S
C262   H278    1.112   .     S
C262   H277    1.109   .     S
C262   C312    1.532   .     S
C262   C324    1.533   .     S
C263   H275    1.111   .     S
C263   H274    1.111   .     S
C264   O293    1.220   .     D
C264   C270    1.489   .     S
C264   H279    1.083   .     S
C265   H285    1.076   .     S
C265   C805    1.391   1_554 S
C265   C815    1.419   1_554 S
C266   C267    1.419   .     A
C266   C814    1.419   .     S
C266   C817    1.424   .     S
C267   C271    1.406   .     A
C268   C815    1.424   1_554 S
C268   C818    1.431   1_554 S
C269   C270    1.413   .     A
C269   C808    1.409   .     S
C269   C817    1.431   .     S
C270   C271    1.392   .     A
C271   H287    1.083   .     S
H276   C324    1.111   .     S
H281   C436    1.086   .     S
H282   C808    1.080   .     S
H286   C805    1.083   1_554 S
O288   Zn305   1.940   .     S
O288   Zn304   1.935   .     S
O288   Zn303   1.953   .     S
O288   Zn302   1.953   .     S
O289   Zn303   1.931   .     S
O290   Zn305   1.939   .     S
O291   Zn304   1.940   .     S
O292   Zn302   1.933   .     S
O294   Zn302   1.928   .     S
O295   Zn305   1.925   .     S
O296   Zn303   1.938   .     S
O297   Zn304   1.945   .     S
O298   Zn305   1.944   .     S
O299   Zn302   1.936   .     S
O300   Zn303   1.928   .     S
O301   Zn304   1.928   .     S
C306   O359    1.272   .     A
C306   O357    1.269   .     A
C306   C312    1.435   .     S
C307   H344    1.076   .     S
C307   C329    1.412   .     A
C307   C321    1.389   .     A
C308   C320    1.385   .     A
C308   H333    1.084   .     S
C308   C321    1.393   .     A
C309   O360    1.263   .     A
C309   O358    1.290   .     A
C309   C311    1.459   .     S
C310   C328    1.416   .     A
C310   C319    1.471   .     S
C310   C322    1.401   .     A
C311   C190    1.357   1_655 S
C311   H212    1.088   1_655 S
C313   C316    1.451   .     S
C313   C497    1.332   .     S
C313   H524    1.088   .     S
C314   C315    1.434   .     S
C315   O361    1.279   .     A
C315   O355    1.279   .     A
C316   O362    1.274   .     A
C316   O356    1.274   .     A
C317   C322    1.386   .     A
C317   C875    1.391   .     S
C317   H896    1.083   .     S
C318   C321    1.450   .     S
C318   O350    1.282   .     A
C318   O352    1.270   .     A
C319   O353    1.284   .     A
C319   O351    1.280   .     A
C320   C879    1.409   1_554 S
C320   H892    1.080   1_554 S
C322   H345    1.083   .     S
C323   H339    1.112   .     S
C323   H338    1.109   .     S
C323   C190    1.532   1_655 S
C323   C202    1.533   1_655 S
C324   H336    1.111   .     S
C324   H335    1.111   .     S
C325   O354    1.220   .     D
C325   C331    1.489   .     S
C325   H340    1.083   .     S
C326   H346    1.076   .     S
C326   C866    1.391   1_554 S
C326   C876    1.419   1_554 S
C327   C328    1.419   .     A
C327   C875    1.419   .     S
C327   C878    1.424   .     S
C328   C332    1.406   .     A
C329   C876    1.424   1_554 S
C329   C879    1.431   1_554 S
C330   C331    1.413   .     A
C330   C869    1.409   .     S
C330   C878    1.431   .     S
C331   C332    1.392   .     A
C332   H348    1.083   .     S
H337   C202    1.111   1_655 S
H342   C497    1.086   .     S
H343   C869    1.080   .     S
H347   C866    1.083   1_554 S
O349   Zn366   1.940   .     S
O349   Zn365   1.935   .     S
O349   Zn364   1.953   .     S
O349   Zn363   1.953   .     S
O350   Zn364   1.931   .     S
O351   Zn366   1.939   .     S
O352   Zn365   1.940   .     S
O353   Zn363   1.933   .     S
O355   Zn363   1.928   .     S
O356   Zn366   1.925   .     S
O357   Zn364   1.938   .     S
O358   Zn365   1.945   .     S
O359   Zn366   1.944   .     S
O360   Zn363   1.936   .     S
O361   Zn364   1.928   .     S
O362   Zn365   1.928   .     S
C367   O420    1.272   .     A
C367   O418    1.269   .     A
C367   C373    1.435   .     S
C368   H405    1.076   .     S
C368   C390    1.412   .     A
C368   C382    1.389   .     A
C369   C381    1.385   .     A
C369   H394    1.084   .     S
C369   C382    1.393   .     A
C370   O421    1.263   .     A
C370   O419    1.290   .     A
C370   C372    1.459   .     S
C371   C389    1.416   .     A
C371   C380    1.471   .     S
C371   C383    1.401   .     A
C372   C434    1.357   .     S
C372   H456    1.088   .     S
C373   C494    1.357   1_455 S
C373   C506    1.532   1_455 S
C374   C377    1.451   .     S
C374   C9      1.332   1_565 S
C374   H36     1.088   1_565 S
C375   C376    1.434   .     S
C376   O422    1.279   .     A
C376   O416    1.279   .     A
C377   O423    1.274   .     A
C377   O417    1.274   .     A
C378   C383    1.386   .     A
C378   C936    1.391   .     S
C378   H957    1.083   .     S
C379   C382    1.450   .     S
C379   O411    1.282   .     A
C379   O413    1.270   .     A
C380   O414    1.284   .     A
C380   O412    1.280   .     A
C381   C940    1.409   1_554 S
C381   H953    1.080   1_554 S
C383   H406    1.083   .     S
C384   H400    1.112   .     S
C384   H399    1.109   .     S
C384   C434    1.532   .     S
C384   C446    1.533   .     S
C385   H397    1.111   .     S
C385   H396    1.111   .     S
C385   C506    1.533   1_455 S
C385   H520    1.111   1_455 S
C386   O415    1.220   .     D
C386   C392    1.489   .     S
C386   H401    1.083   .     S
C387   H407    1.076   .     S
C387   C927    1.391   1_554 S
C387   C937    1.419   1_554 S
C388   C389    1.419   .     A
C388   C936    1.419   .     S
C388   C939    1.424   .     S
C389   C393    1.406   .     A
C390   C937    1.424   1_554 S
C390   C940    1.431   1_554 S
C391   C392    1.413   .     A
C391   C930    1.409   .     S
C391   C939    1.431   .     S
C392   C393    1.392   .     A
C393   H409    1.083   .     S
H395   C494    1.088   1_455 S
H398   C446    1.111   .     S
H403   C9      1.086   1_565 S
H404   C930    1.080   .     S
H408   C927    1.083   1_554 S
O410   Zn427   1.940   .     S
O410   Zn426   1.935   .     S
O410   Zn425   1.953   .     S
O410   Zn424   1.953   .     S
O411   Zn425   1.931   .     S
O412   Zn427   1.939   .     S
O413   Zn426   1.940   .     S
O414   Zn424   1.933   .     S
O416   Zn424   1.928   .     S
O417   Zn427   1.925   .     S
O418   Zn425   1.938   .     S
O419   Zn426   1.945   .     S
O420   Zn427   1.944   .     S
O421   Zn424   1.936   .     S
O422   Zn425   1.928   .     S
O423   Zn426   1.928   .     S
C428   O481    1.272   .     A
C428   O479    1.269   .     A
C428   C434    1.435   .     S
C429   H466    1.076   .     S
C429   C451    1.412   .     A
C429   C443    1.389   .     A
C430   C442    1.385   .     A
C430   H455    1.084   .     S
C430   C443    1.393   .     A
C431   O482    1.263   .     A
C431   O480    1.290   .     A
C431   C433    1.459   .     S
C432   C450    1.416   .     A
C432   C441    1.471   .     S
C432   C444    1.401   .     A
C433   C495    1.357   .     S
C433   H517    1.088   .     S
C435   C438    1.451   .     S
C435   C70     1.332   1_565 S
C435   H97     1.088   1_565 S
C436   C437    1.434   .     S
C437   O483    1.279   .     A
C437   O477    1.279   .     A
C438   O484    1.274   .     A
C438   O478    1.274   .     A
C439   C444    1.386   .     A
C439   C997    1.391   .     S
C439   H1018   1.083   .     S
C440   C443    1.450   .     S
C440   O472    1.282   .     A
C440   O474    1.270   .     A
C441   O475    1.284   .     A
C441   O473    1.280   .     A
C442   C1001   1.409   1_554 S
C442   H1014   1.080   1_554 S
C444   H467    1.083   .     S
C445   H461    1.112   .     S
C445   H460    1.109   .     S
C445   C495    1.532   .     S
C445   C507    1.533   .     S
C446   H458    1.111   .     S
C446   H457    1.111   .     S
C447   O476    1.220   .     D
C447   C453    1.489   .     S
C447   H462    1.083   .     S
C448   H468    1.076   .     S
C448   C988    1.391   1_554 S
C448   C998    1.419   1_554 S
C449   C450    1.419   .     A
C449   C997    1.419   .     S
C449   C1000   1.424   .     S
C450   C454    1.406   .     A
C451   C998    1.424   1_554 S
C451   C1001   1.431   1_554 S
C452   C453    1.413   .     A
C452   C991    1.409   .     S
C452   C1000   1.431   .     S
C453   C454    1.392   .     A
C454   H470    1.083   .     S
H459   C507    1.111   .     S
H464   C70     1.086   1_565 S
H465   C991    1.080   .     S
H469   C988    1.083   1_554 S
O471   Zn488   1.940   .     S
O471   Zn487   1.935   .     S
O471   Zn486   1.953   .     S
O471   Zn485   1.953   .     S
O472   Zn486   1.931   .     S
O473   Zn488   1.939   .     S
O474   Zn487   1.940   .     S
O475   Zn485   1.933   .     S
O477   Zn485   1.928   .     S
O478   Zn488   1.925   .     S
O479   Zn486   1.938   .     S
O480   Zn487   1.945   .     S
O481   Zn488   1.944   .     S
O482   Zn485   1.936   .     S
O483   Zn486   1.928   .     S
O484   Zn487   1.928   .     S
C489   O542    1.272   .     A
C489   O540    1.269   .     A
C489   C495    1.435   .     S
C490   H527    1.076   .     S
C490   C512    1.412   .     A
C490   C504    1.389   .     A
C491   C503    1.385   .     A
C491   H516    1.084   .     S
C491   C504    1.393   .     A
C492   O543    1.263   .     A
C492   O541    1.290   .     A
C492   C494    1.459   .     S
C493   C511    1.416   .     A
C493   C502    1.471   .     S
C493   C505    1.401   .     A
C494   C373    1.357   1_655 S
C494   H395    1.088   1_655 S
C496   C499    1.451   .     S
C496   C131    1.332   1_565 S
C496   H158    1.088   1_565 S
C497   C498    1.434   .     S
C498   O544    1.279   .     A
C498   O538    1.279   .     A
C499   O545    1.274   .     A
C499   O539    1.274   .     A
C500   C505    1.386   .     A
C500   C1058   1.391   .     S
C500   H1079   1.083   .     S
C501   C504    1.450   .     S
C501   O533    1.282   .     A
C501   O535    1.270   .     A
C502   O536    1.284   .     A
C502   O534    1.280   .     A
C503   C1062   1.409   1_554 S
C503   H1075   1.080   1_554 S
C505   H528    1.083   .     S
C506   H522    1.112   .     S
C506   H521    1.109   .     S
C506   C373    1.532   1_655 S
C506   C385    1.533   1_655 S
C507   H519    1.111   .     S
C507   H518    1.111   .     S
C508   O537    1.220   .     D
C508   C514    1.489   .     S
C508   H523    1.083   .     S
C509   H529    1.076   .     S
C509   C1049   1.391   1_554 S
C509   C1059   1.419   1_554 S
C510   C511    1.419   .     A
C510   C1058   1.419   .     S
C510   C1061   1.424   .     S
C511   C515    1.406   .     A
C512   C1059   1.424   1_554 S
C512   C1062   1.431   1_554 S
C513   C514    1.413   .     A
C513   C1052   1.409   .     S
C513   C1061   1.431   .     S
C514   C515    1.392   .     A
C515   H531    1.083   .     S
H520   C385    1.111   1_655 S
H525   C131    1.086   1_565 S
H526   C1052   1.080   .     S
H530   C1049   1.083   1_554 S
O532   Zn549   1.940   .     S
O532   Zn548   1.935   .     S
O532   Zn547   1.953   .     S
O532   Zn546   1.953   .     S
O533   Zn547   1.931   .     S
O534   Zn549   1.939   .     S
O535   Zn548   1.940   .     S
O536   Zn546   1.933   .     S
O538   Zn546   1.928   .     S
O539   Zn549   1.925   .     S
O540   Zn547   1.938   .     S
O541   Zn548   1.945   .     S
O542   Zn549   1.944   .     S
O543   Zn546   1.936   .     S
O544   Zn547   1.928   .     S
O545   Zn548   1.928   .     S
C550   O603    1.272   .     A
C550   O601    1.269   .     A
C550   C556    1.435   .     S
C551   H588    1.076   .     S
C551   C573    1.412   .     A
C551   C565    1.389   .     A
C552   C564    1.385   .     A
C552   H577    1.084   .     S
C552   C565    1.393   .     A
C553   O604    1.263   .     A
C553   O602    1.290   .     A
C553   C555    1.459   .     S
C554   C572    1.416   .     A
C554   C563    1.471   .     S
C554   C566    1.401   .     A
C555   C617    1.357   .     S
C555   H639    1.088   .     S
C556   C677    1.357   1_455 S
C556   C689    1.532   1_455 S
C557   C560    1.451   .     S
C557   C741    1.332   .     S
C557   H768    1.088   .     S
C558   C559    1.434   .     S
C558   C923    1.332   1_545 S
C558   H952    1.086   1_545 S
C559   O605    1.279   .     A
C559   O599    1.279   .     A
C560   O606    1.274   .     A
C560   O600    1.274   .     A
C561   C566    1.386   .     A
C561   C21     1.391   1_556 S
C561   H42     1.083   1_556 S
C562   C565    1.450   .     S
C562   O594    1.282   .     A
C562   O596    1.270   .     A
C563   O597    1.284   .     A
C563   O595    1.280   .     A
C566   H589    1.083   .     S
C567   H583    1.112   .     S
C567   H582    1.109   .     S
C567   C617    1.532   .     S
C567   C629    1.533   .     S
C568   H580    1.111   .     S
C568   H579    1.111   .     S
C568   C689    1.533   1_455 S
C568   H703    1.111   1_455 S
C569   O598    1.220   .     D
C569   C575    1.489   .     S
C569   H584    1.083   .     S
C570   H590    1.076   .     S
C571   C572    1.419   .     A
C571   C21     1.419   1_556 S
C571   C24     1.424   1_556 S
C572   C576    1.406   .     A
C574   C575    1.413   .     A
C574   C15     1.409   1_556 S
C574   C24     1.431   1_556 S
C575   C576    1.392   .     A
C576   H592    1.083   .     S
H578   C677    1.088   1_455 S
H581   C629    1.111   .     S
H585   C923    1.088   1_545 S
H586   C741    1.086   .     S
H587   C15     1.080   1_556 S
O593   Zn610   1.940   .     S
O593   Zn609   1.935   .     S
O593   Zn608   1.953   .     S
O593   Zn607   1.953   .     S
O594   Zn608   1.931   .     S
O595   Zn610   1.939   .     S
O596   Zn609   1.940   .     S
O597   Zn607   1.933   .     S
O599   Zn607   1.928   .     S
O600   Zn610   1.925   .     S
O601   Zn608   1.938   .     S
O602   Zn609   1.945   .     S
O603   Zn610   1.944   .     S
O604   Zn607   1.936   .     S
O605   Zn608   1.928   .     S
O606   Zn609   1.928   .     S
C611   O664    1.272   .     A
C611   O662    1.269   .     A
C611   C617    1.435   .     S
C612   H649    1.076   .     S
C612   C634    1.412   .     A
C612   C626    1.389   .     A
C613   C625    1.385   .     A
C613   H638    1.084   .     S
C613   C626    1.393   .     A
C614   O665    1.263   .     A
C614   O663    1.290   .     A
C614   C616    1.459   .     S
C615   C633    1.416   .     A
C615   C624    1.471   .     S
C615   C627    1.401   .     A
C616   C678    1.357   .     S
C616   H700    1.088   .     S
C618   C621    1.451   .     S
C618   C802    1.332   .     S
C618   H829    1.088   .     S
C619   C620    1.434   .     S
C619   C984    1.332   1_545 S
C619   H1013   1.086   1_545 S
C620   O666    1.279   .     A
C620   O660    1.279   .     A
C621   O667    1.274   .     A
C621   O661    1.274   .     A
C622   C627    1.386   .     A
C622   C82     1.391   1_556 S
C622   H103    1.083   1_556 S
C623   C626    1.450   .     S
C623   O655    1.282   .     A
C623   O657    1.270   .     A
C624   O658    1.284   .     A
C624   O656    1.280   .     A
C627   H650    1.083   .     S
C628   H644    1.112   .     S
C628   H643    1.109   .     S
C628   C678    1.532   .     S
C628   C690    1.533   .     S
C629   H641    1.111   .     S
C629   H640    1.111   .     S
C630   O659    1.220   .     D
C630   C636    1.489   .     S
C630   H645    1.083   .     S
C631   H651    1.076   .     S
C632   C633    1.419   .     A
C632   C82     1.419   1_556 S
C632   C85     1.424   1_556 S
C633   C637    1.406   .     A
C635   C636    1.413   .     A
C635   C76     1.409   1_556 S
C635   C85     1.431   1_556 S
C636   C637    1.392   .     A
C637   H653    1.083   .     S
H642   C690    1.111   .     S
H646   C984    1.088   1_545 S
H647   C802    1.086   .     S
H648   C76     1.080   1_556 S
O654   Zn671   1.940   .     S
O654   Zn670   1.935   .     S
O654   Zn669   1.953   .     S
O654   Zn668   1.953   .     S
O655   Zn669   1.931   .     S
O656   Zn671   1.939   .     S
O657   Zn670   1.940   .     S
O658   Zn668   1.933   .     S
O660   Zn668   1.928   .     S
O661   Zn671   1.925   .     S
O662   Zn669   1.938   .     S
O663   Zn670   1.945   .     S
O664   Zn671   1.944   .     S
O665   Zn668   1.936   .     S
O666   Zn669   1.928   .     S
O667   Zn670   1.928   .     S
C672   O725    1.272   .     A
C672   O723    1.269   .     A
C672   C678    1.435   .     S
C673   H710    1.076   .     S
C673   C695    1.412   .     A
C673   C687    1.389   .     A
C674   C686    1.385   .     A
C674   H699    1.084   .     S
C674   C687    1.393   .     A
C675   O726    1.263   .     A
C675   O724    1.290   .     A
C675   C677    1.459   .     S
C676   C694    1.416   .     A
C676   C685    1.471   .     S
C676   C688    1.401   .     A
C677   C556    1.357   1_655 S
C677   H578    1.088   1_655 S
C679   C682    1.451   .     S
C679   C863    1.332   .     S
C679   H890    1.088   .     S
C680   C681    1.434   .     S
C680   C1045   1.332   1_545 S
C680   H1074   1.086   1_545 S
C681   O727    1.279   .     A
C681   O721    1.279   .     A
C682   O728    1.274   .     A
C682   O722    1.274   .     A
C683   C688    1.386   .     A
C683   C143    1.391   1_556 S
C683   H164    1.083   1_556 S
C684   C687    1.450   .     S
C684   O716    1.282   .     A
C684   O718    1.270   .     A
C685   O719    1.284   .     A
C685   O717    1.280   .     A
C688   H711    1.083   .     S
C689   H705    1.112   .     S
C689   H704    1.109   .     S
C689   C556    1.532   1_655 S
C689   C568    1.533   1_655 S
C690   H702    1.111   .     S
C690   H701    1.111   .     S
C691   O720    1.220   .     D
C691   C697    1.489   .     S
C691   H706    1.083   .     S
C692   H712    1.076   .     S
C693   C694    1.419   .     A
C693   C143    1.419   1_556 S
C693   C146    1.424   1_556 S
C694   C698    1.406   .     A
C696   C697    1.413   .     A
C696   C137    1.409   1_556 S
C696   C146    1.431   1_556 S
C697   C698    1.392   .     A
C698   H714    1.083   .     S
H703   C568    1.111   1_655 S
H707   C1045   1.088   1_545 S
H708   C863    1.086   .     S
H709   C137    1.080   1_556 S
O715   Zn732   1.940   .     S
O715   Zn731   1.935   .     S
O715   Zn730   1.953   .     S
O715   Zn729   1.953   .     S
O716   Zn730   1.931   .     S
O717   Zn732   1.939   .     S
O718   Zn731   1.940   .     S
O719   Zn729   1.933   .     S
O721   Zn729   1.928   .     S
O722   Zn732   1.925   .     S
O723   Zn730   1.938   .     S
O724   Zn731   1.945   .     S
O725   Zn732   1.944   .     S
O726   Zn729   1.936   .     S
O727   Zn730   1.928   .     S
O728   Zn731   1.928   .     S
C733   O786    1.272   .     A
C733   O784    1.269   .     A
C733   C739    1.435   .     S
C734   H771    1.076   .     S
C734   C756    1.412   .     A
C734   C748    1.389   .     A
C735   C747    1.385   .     A
C735   H760    1.084   .     S
C735   C748    1.393   .     A
C736   O787    1.263   .     A
C736   O785    1.290   .     A
C736   C738    1.459   .     S
C737   C755    1.416   .     A
C737   C746    1.471   .     S
C737   C749    1.401   .     A
C738   C800    1.357   .     S
C738   H822    1.088   .     S
C739   C860    1.357   1_455 S
C739   C872    1.532   1_455 S
C740   C743    1.451   .     S
C740   C924    1.332   .     S
C740   H951    1.088   .     S
C741   C742    1.434   .     S
C742   O788    1.279   .     A
C742   O782    1.279   .     A
C743   O789    1.274   .     A
C743   O783    1.274   .     A
C744   C749    1.386   .     A
C744   C204    1.391   1_556 S
C744   H225    1.083   1_556 S
C745   C748    1.450   .     S
C745   O777    1.282   .     A
C745   O779    1.270   .     A
C746   O780    1.284   .     A
C746   O778    1.280   .     A
C749   H772    1.083   .     S
C750   H766    1.112   .     S
C750   H765    1.109   .     S
C750   C800    1.532   .     S
C750   C812    1.533   .     S
C751   H763    1.111   .     S
C751   H762    1.111   .     S
C751   C872    1.533   1_455 S
C751   H886    1.111   1_455 S
C752   O781    1.220   .     D
C752   C758    1.489   .     S
C752   H767    1.083   .     S
C753   H773    1.076   .     S
C754   C755    1.419   .     A
C754   C204    1.419   1_556 S
C754   C207    1.424   1_556 S
C755   C759    1.406   .     A
C757   C758    1.413   .     A
C757   C198    1.409   1_556 S
C757   C207    1.431   1_556 S
C758   C759    1.392   .     A
C759   H775    1.083   .     S
H761   C860    1.088   1_455 S
H764   C812    1.111   .     S
H769   C924    1.086   .     S
H770   C198    1.080   1_556 S
O776   Zn793   1.940   .     S
O776   Zn792   1.935   .     S
O776   Zn791   1.953   .     S
O776   Zn790   1.953   .     S
O777   Zn791   1.931   .     S
O778   Zn793   1.939   .     S
O779   Zn792   1.940   .     S
O780   Zn790   1.933   .     S
O782   Zn790   1.928   .     S
O783   Zn793   1.925   .     S
O784   Zn791   1.938   .     S
O785   Zn792   1.945   .     S
O786   Zn793   1.944   .     S
O787   Zn790   1.936   .     S
O788   Zn791   1.928   .     S
O789   Zn792   1.928   .     S
C794   O847    1.272   .     A
C794   O845    1.269   .     A
C794   C800    1.435   .     S
C795   H832    1.076   .     S
C795   C817    1.412   .     A
C795   C809    1.389   .     A
C796   C808    1.385   .     A
C796   H821    1.084   .     S
C796   C809    1.393   .     A
C797   O848    1.263   .     A
C797   O846    1.290   .     A
C797   C799    1.459   .     S
C798   C816    1.416   .     A
C798   C807    1.471   .     S
C798   C810    1.401   .     A
C799   C861    1.357   .     S
C799   H883    1.088   .     S
C801   C804    1.451   .     S
C801   C985    1.332   .     S
C801   H1012   1.088   .     S
C802   C803    1.434   .     S
C803   O849    1.279   .     A
C803   O843    1.279   .     A
C804   O850    1.274   .     A
C804   O844    1.274   .     A
C805   C810    1.386   .     A
C805   C265    1.391   1_556 S
C805   H286    1.083   1_556 S
C806   C809    1.450   .     S
C806   O838    1.282   .     A
C806   O840    1.270   .     A
C807   O841    1.284   .     A
C807   O839    1.280   .     A
C810   H833    1.083   .     S
C811   H827    1.112   .     S
C811   H826    1.109   .     S
C811   C861    1.532   .     S
C811   C873    1.533   .     S
C812   H824    1.111   .     S
C812   H823    1.111   .     S
C813   O842    1.220   .     D
C813   C819    1.489   .     S
C813   H828    1.083   .     S
C814   H834    1.076   .     S
C815   C816    1.419   .     A
C815   C265    1.419   1_556 S
C815   C268    1.424   1_556 S
C816   C820    1.406   .     A
C818   C819    1.413   .     A
C818   C259    1.409   1_556 S
C818   C268    1.431   1_556 S
C819   C820    1.392   .     A
C820   H836    1.083   .     S
H825   C873    1.111   .     S
H830   C985    1.086   .     S
H831   C259    1.080   1_556 S
O837   Zn854   1.940   .     S
O837   Zn853   1.935   .     S
O837   Zn852   1.953   .     S
O837   Zn851   1.953   .     S
O838   Zn852   1.931   .     S
O839   Zn854   1.939   .     S
O840   Zn853   1.940   .     S
O841   Zn851   1.933   .     S
O843   Zn851   1.928   .     S
O844   Zn854   1.925   .     S
O845   Zn852   1.938   .     S
O846   Zn853   1.945   .     S
O847   Zn854   1.944   .     S
O848   Zn851   1.936   .     S
O849   Zn852   1.928   .     S
O850   Zn853   1.928   .     S
C855   O908    1.272   .     A
C855   O906    1.269   .     A
C855   C861    1.435   .     S
C856   H893    1.076   .     S
C856   C878    1.412   .     A
C856   C870    1.389   .     A
C857   C869    1.385   .     A
C857   H882    1.084   .     S
C857   C870    1.393   .     A
C858   O909    1.263   .     A
C858   O907    1.290   .     A
C858   C860    1.459   .     S
C859   C877    1.416   .     A
C859   C868    1.471   .     S
C859   C871    1.401   .     A
C860   C739    1.357   1_655 S
C860   H761    1.088   1_655 S
C862   C865    1.451   .     S
C862   C1046   1.332   .     S
C862   H1073   1.088   .     S
C863   C864    1.434   .     S
C864   O910    1.279   .     A
C864   O904    1.279   .     A
C865   O911    1.274   .     A
C865   O905    1.274   .     A
C866   C871    1.386   .     A
C866   C326    1.391   1_556 S
C866   H347    1.083   1_556 S
C867   C870    1.450   .     S
C867   O899    1.282   .     A
C867   O901    1.270   .     A
C868   O902    1.284   .     A
C868   O900    1.280   .     A
C871   H894    1.083   .     S
C872   H888    1.112   .     S
C872   H887    1.109   .     S
C872   C739    1.532   1_655 S
C872   C751    1.533   1_655 S
C873   H885    1.111   .     S
C873   H884    1.111   .     S
C874   O903    1.220   .     D
C874   C880    1.489   .     S
C874   H889    1.083   .     S
C875   H895    1.076   .     S
C876   C877    1.419   .     A
C876   C326    1.419   1_556 S
C876   C329    1.424   1_556 S
C877   C881    1.406   .     A
C879   C880    1.413   .     A
C879   C320    1.409   1_556 S
C879   C329    1.431   1_556 S
C880   C881    1.392   .     A
C881   H897    1.083   .     S
H886   C751    1.111   1_655 S
H891   C1046   1.086   .     S
H892   C320    1.080   1_556 S
O898   Zn915   1.940   .     S
O898   Zn914   1.935   .     S
O898   Zn913   1.953   .     S
O898   Zn912   1.953   .     S
O899   Zn913   1.931   .     S
O900   Zn915   1.939   .     S
O901   Zn914   1.940   .     S
O902   Zn912   1.933   .     S
O904   Zn912   1.928   .     S
O905   Zn915   1.925   .     S
O906   Zn913   1.938   .     S
O907   Zn914   1.945   .     S
O908   Zn915   1.944   .     S
O909   Zn912   1.936   .     S
O910   Zn913   1.928   .     S
O911   Zn914   1.928   .     S
C916   O969    1.272   .     A
C916   O967    1.269   .     A
C916   C922    1.435   .     S
C917   H954    1.076   .     S
C917   C939    1.412   .     A
C917   C931    1.389   .     A
C918   C930    1.385   .     A
C918   H943    1.084   .     S
C918   C931    1.393   .     A
C919   O970    1.263   .     A
C919   O968    1.290   .     A
C919   C921    1.459   .     S
C920   C938    1.416   .     A
C920   C929    1.471   .     S
C920   C932    1.401   .     A
C921   C983    1.357   .     S
C921   H1005   1.088   .     S
C922   C1043   1.357   1_455 S
C922   C1055   1.532   1_455 S
C923   C926    1.451   .     S
C923   C558    1.332   1_565 S
C923   H585    1.088   1_565 S
C924   C925    1.434   .     S
C925   O971    1.279   .     A
C925   O965    1.279   .     A
C926   O972    1.274   .     A
C926   O966    1.274   .     A
C927   C932    1.386   .     A
C927   C387    1.391   1_556 S
C927   H408    1.083   1_556 S
C928   C931    1.450   .     S
C928   O960    1.282   .     A
C928   O962    1.270   .     A
C929   O963    1.284   .     A
C929   O961    1.280   .     A
C932   H955    1.083   .     S
C933   H949    1.112   .     S
C933   H948    1.109   .     S
C933   C983    1.532   .     S
C933   C995    1.533   .     S
C934   H946    1.111   .     S
C934   H945    1.111   .     S
C934   C1055   1.533   1_455 S
C934   H1069   1.111   1_455 S
C935   O964    1.220   .     D
C935   C941    1.489   .     S
C935   H950    1.083   .     S
C936   H956    1.076   .     S
C937   C938    1.419   .     A
C937   C387    1.419   1_556 S
C937   C390    1.424   1_556 S
C938   C942    1.406   .     A
C940   C941    1.413   .     A
C940   C381    1.409   1_556 S
C940   C390    1.431   1_556 S
C941   C942    1.392   .     A
C942   H958    1.083   .     S
H944   C1043   1.088   1_455 S
H947   C995    1.111   .     S
H952   C558    1.086   1_565 S
H953   C381    1.080   1_556 S
O959   Zn976   1.940   .     S
O959   Zn975   1.935   .     S
O959   Zn974   1.953   .     S
O959   Zn973   1.953   .     S
O960   Zn974   1.931   .     S
O961   Zn976   1.939   .     S
O962   Zn975   1.940   .     S
O963   Zn973   1.933   .     S
O965   Zn973   1.928   .     S
O966   Zn976   1.925   .     S
O967   Zn974   1.938   .     S
O968   Zn975   1.945   .     S
O969   Zn976   1.944   .     S
O970   Zn973   1.936   .     S
O971   Zn974   1.928   .     S
O972   Zn975   1.928   .     S
C977   O1030   1.272   .     A
C977   O1028   1.269   .     A
C977   C983    1.435   .     S
C978   H1015   1.076   .     S
C978   C1000   1.412   .     A
C978   C992    1.389   .     A
C979   C991    1.385   .     A
C979   H1004   1.084   .     S
C979   C992    1.393   .     A
C980   O1031   1.263   .     A
C980   O1029   1.290   .     A
C980   C982    1.459   .     S
C981   C999    1.416   .     A
C981   C990    1.471   .     S
C981   C993    1.401   .     A
C982   C1044   1.357   .     S
C982   H1066   1.088   .     S
C984   C987    1.451   .     S
C984   C619    1.332   1_565 S
C984   H646    1.088   1_565 S
C985   C986    1.434   .     S
C986   O1032   1.279   .     A
C986   O1026   1.279   .     A
C987   O1033   1.274   .     A
C987   O1027   1.274   .     A
C988   C993    1.386   .     A
C988   C448    1.391   1_556 S
C988   H469    1.083   1_556 S
C989   C992    1.450   .     S
C989   O1021   1.282   .     A
C989   O1023   1.270   .     A
C990   O1024   1.284   .     A
C990   O1022   1.280   .     A
C993   H1016   1.083   .     S
C994   H1010   1.112   .     S
C994   H1009   1.109   .     S
C994   C1044   1.532   .     S
C994   C1056   1.533   .     S
C995   H1007   1.111   .     S
C995   H1006   1.111   .     S
C996   O1025   1.220   .     D
C996   C1002   1.489   .     S
C996   H1011   1.083   .     S
C997   H1017   1.076   .     S
C998   C999    1.419   .     A
C998   C448    1.419   1_556 S
C998   C451    1.424   1_556 S
C999   C1003   1.406   .     A
C1001  C1002   1.413   .     A
C1001  C442    1.409   1_556 S
C1001  C451    1.431   1_556 S
C1002  C1003   1.392   .     A
C1003  H1019   1.083   .     S
H1008  C1056   1.111   .     S
H1013  C619    1.086   1_565 S
H1014  C442    1.080   1_556 S
O1020  Zn1037  1.940   .     S
O1020  Zn1036  1.935   .     S
O1020  Zn1035  1.953   .     S
O1020  Zn1034  1.953   .     S
O1021  Zn1035  1.931   .     S
O1022  Zn1037  1.939   .     S
O1023  Zn1036  1.940   .     S
O1024  Zn1034  1.933   .     S
O1026  Zn1034  1.928   .     S
O1027  Zn1037  1.925   .     S
O1028  Zn1035  1.938   .     S
O1029  Zn1036  1.945   .     S
O1030  Zn1037  1.944   .     S
O1031  Zn1034  1.936   .     S
O1032  Zn1035  1.928   .     S
O1033  Zn1036  1.928   .     S
C1038  O1091   1.272   .     A
C1038  O1089   1.269   .     A
C1038  C1044   1.435   .     S
C1039  H1076   1.076   .     S
C1039  C1061   1.412   .     A
C1039  C1053   1.389   .     A
C1040  C1052   1.385   .     A
C1040  H1065   1.084   .     S
C1040  C1053   1.393   .     A
C1041  O1092   1.263   .     A
C1041  O1090   1.290   .     A
C1041  C1043   1.459   .     S
C1042  C1060   1.416   .     A
C1042  C1051   1.471   .     S
C1042  C1054   1.401   .     A
C1043  C922    1.357   1_655 S
C1043  H944    1.088   1_655 S
C1045  C1048   1.451   .     S
C1045  C680    1.332   1_565 S
C1045  H707    1.088   1_565 S
C1046  C1047   1.434   .     S
C1047  O1093   1.279   .     A
C1047  O1087   1.279   .     A
C1048  O1094   1.274   .     A
C1048  O1088   1.274   .     A
C1049  C1054   1.386   .     A
C1049  C509    1.391   1_556 S
C1049  H530    1.083   1_556 S
C1050  C1053   1.450   .     S
C1050  O1082   1.282   .     A
C1050  O1084   1.270   .     A
C1051  O1085   1.284   .     A
C1051  O1083   1.280   .     A
C1054  H1077   1.083   .     S
C1055  H1071   1.112   .     S
C1055  H1070   1.109   .     S
C1055  C922    1.532   1_655 S
C1055  C934    1.533   1_655 S
C1056  H1068   1.111   .     S
C1056  H1067   1.111   .     S
C1057  O1086   1.220   .     D
C1057  C1063   1.489   .     S
C1057  H1072   1.083   .     S
C1058  H1078   1.076   .     S
C1059  C1060   1.419   .     A
C1059  C509    1.419   1_556 S
C1059  C512    1.424   1_556 S
C1060  C1064   1.406   .     A
C1062  C1063   1.413   .     A
C1062  C503    1.409   1_556 S
C1062  C512    1.431   1_556 S
C1063  C1064   1.392   .     A
C1064  H1080   1.083   .     S
H1069  C934    1.111   1_655 S
H1074  C680    1.086   1_565 S
H1075  C503    1.080   1_556 S
O1081  Zn1098  1.940   .     S
O1081  Zn1097  1.935   .     S
O1081  Zn1096  1.953   .     S
O1081  Zn1095  1.953   .     S
O1082  Zn1096  1.931   .     S
O1083  Zn1098  1.939   .     S
O1084  Zn1097  1.940   .     S
O1085  Zn1095  1.933   .     S
O1087  Zn1095  1.928   .     S
O1088  Zn1098  1.925   .     S
O1089  Zn1096  1.938   .     S
O1090  Zn1097  1.945   .     S
O1091  Zn1098  1.944   .     S
O1092  Zn1095  1.936   .     S
O1093  Zn1096  1.928   .     S
O1094  Zn1097  1.928   .     S
