data_str_m3_o1_o5_pcu_sym.32
_audit_creation_date              2020-01-03
_audit_creation_method            'Materials Studio'
_symmetry_space_group_name_H-M    'P1'
_symmetry_Int_Tables_number       1
_symmetry_cell_setting            triclinic
loop_
_symmetry_equiv_pos_as_xyz
  x,y,z
_cell_length_a                    32.1360
_cell_length_b                    29.8915
_cell_length_c                    26.7033
_cell_angle_alpha                 89.7734
_cell_angle_beta                  92.0497
_cell_angle_gamma                 90.2095
loop_
_atom_site_label
_atom_site_type_symbol
_atom_site_fract_x
_atom_site_fract_y
_atom_site_fract_z
_atom_site_U_iso_or_equiv
_atom_site_adp_type
_atom_site_occupancy
C1     C     0.08675   0.16662   0.16660   0.00000  Uiso   1.00
C2     C     0.02173   0.20663   0.17557   0.00000  Uiso   1.00
C3     C     0.29080   0.16673   0.16666   0.00000  Uiso   1.00
C4     C     0.04253   0.16660   0.16668   0.00000  Uiso   1.00
C5     C     0.19374   0.02396   0.19768   0.00000  Uiso   1.00
C6     C     0.13959   0.30937   0.13566   0.00000  Uiso   1.00
C7     C     0.14103   0.02398   0.13393   0.00000  Uiso   1.00
C8     C     0.19230   0.30935   0.19941   0.00000  Uiso   1.00
C9     C     0.22730   0.04809   0.22605   0.00000  Uiso   1.00
C10    C     0.10603   0.28524   0.10729   0.00000  Uiso   1.00
C11    C     0.11766   0.04814   0.09338   0.00000  Uiso   1.00
C12    C     0.24659   0.16672   0.16673   0.00000  Uiso   1.00
C13    C     0.21567   0.28519   0.23995   0.00000  Uiso   1.00
C14    C     0.16655   0.16672   0.07301   0.00000  Uiso   1.00
C15    C     0.16678   0.16661   0.26033   0.00000  Uiso   1.00
C16    C     0.16662   0.16674   0.02183   0.00000  Uiso   1.00
C17    C     0.16671   0.16659   0.31151   0.00000  Uiso   1.00
C18    C     0.02090   0.12663   0.15781   0.00000  Uiso   1.00
C19    C     0.31244   0.20670   0.17552   0.00000  Uiso   1.00
C20    C     0.31160   0.12671   0.15776   0.00000  Uiso   1.00
H21    H     0.03673   0.09549   0.15066   0.00000  Uiso   1.00
H22    H     0.29661   0.23784   0.18268   0.00000  Uiso   1.00
H23    H     0.29508   0.09561   0.15049   0.00000  Uiso   1.00
H24    H     0.03825   0.23772   0.18285   0.00000  Uiso   1.00
H25    H     0.22159   0.07914   0.24468   0.00000  Uiso   1.00
H26    H     0.11174   0.25419   0.08866   0.00000  Uiso   1.00
H27    H     0.10249   0.07940   0.10006   0.00000  Uiso   1.00
H28    H     0.23084   0.25393   0.23327   0.00000  Uiso   1.00
N29    N     0.16667   0.28573   0.16667   0.00000  Uiso   1.00
N30    N     0.16667   0.04760   0.16667   0.00000  Uiso   1.00
O31    O     0.10559   0.20487   0.16666   0.00000  Uiso   1.00
O32    O     0.07060   0.29994   0.10518   0.00000  Uiso   1.00
O33    O     0.11587   0.03332   0.05080   0.00000  Uiso   1.00
O34    O     0.21747   0.30001   0.28253   0.00000  Uiso   1.00
O35    O     0.22774   0.12846   0.16667   0.00000  Uiso   1.00
O36    O     0.22774   0.20487   0.16667   0.00000  Uiso   1.00
O37    O     0.10559   0.12846   0.16666   0.00000  Uiso   1.00
O38    O     0.16667   0.20488   0.09511   0.00000  Uiso   1.00
O39    O     0.16666   0.12845   0.23822   0.00000  Uiso   1.00
O40    O     0.16666   0.20488   0.23822   0.00000  Uiso   1.00
O41    O     0.16667   0.12845   0.09511   0.00000  Uiso   1.00
O42    O     0.26274   0.03339   0.22815   0.00000  Uiso   1.00
Zn43   Zn    0.16667   0.21771   0.16667   0.00000  Uiso   1.00
Zn44   Zn    0.16667   0.11563   0.16667   0.00000  Uiso   1.00
C45    C     0.42008   0.16662   0.16660   0.00000  Uiso   1.00
C46    C     0.35507   0.20663   0.17557   0.00000  Uiso   1.00
C47    C     0.62413   0.16673   0.16666   0.00000  Uiso   1.00
C48    C     0.37586   0.16660   0.16668   0.00000  Uiso   1.00
C49    C     0.52708   0.02396   0.19768   0.00000  Uiso   1.00
C50    C     0.47292   0.30937   0.13566   0.00000  Uiso   1.00
C51    C     0.47436   0.02398   0.13393   0.00000  Uiso   1.00
C52    C     0.52563   0.30935   0.19941   0.00000  Uiso   1.00
C53    C     0.56063   0.04809   0.22605   0.00000  Uiso   1.00
C54    C     0.43937   0.28524   0.10729   0.00000  Uiso   1.00
C55    C     0.45100   0.04814   0.09338   0.00000  Uiso   1.00
C56    C     0.57992   0.16672   0.16673   0.00000  Uiso   1.00
C57    C     0.54900   0.28519   0.23995   0.00000  Uiso   1.00
C58    C     0.49988   0.16672   0.07301   0.00000  Uiso   1.00
C59    C     0.50012   0.16661   0.26033   0.00000  Uiso   1.00
C60    C     0.49996   0.16674   0.02183   0.00000  Uiso   1.00
C61    C     0.50004   0.16659   0.31151   0.00000  Uiso   1.00
C62    C     0.35423   0.12663   0.15781   0.00000  Uiso   1.00
C63    C     0.64577   0.20670   0.17552   0.00000  Uiso   1.00
C64    C     0.64493   0.12671   0.15776   0.00000  Uiso   1.00
H65    H     0.37006   0.09549   0.15066   0.00000  Uiso   1.00
H66    H     0.62994   0.23784   0.18268   0.00000  Uiso   1.00
H67    H     0.62841   0.09561   0.15049   0.00000  Uiso   1.00
H68    H     0.37159   0.23772   0.18285   0.00000  Uiso   1.00
H69    H     0.55492   0.07914   0.24468   0.00000  Uiso   1.00
H70    H     0.44507   0.25419   0.08866   0.00000  Uiso   1.00
H71    H     0.43582   0.07940   0.10006   0.00000  Uiso   1.00
H72    H     0.56418   0.25393   0.23327   0.00000  Uiso   1.00
N73    N     0.50000   0.28573   0.16667   0.00000  Uiso   1.00
N74    N     0.50000   0.04760   0.16667   0.00000  Uiso   1.00
O75    O     0.43892   0.20487   0.16666   0.00000  Uiso   1.00
O76    O     0.40393   0.29994   0.10518   0.00000  Uiso   1.00
O77    O     0.44920   0.03332   0.05080   0.00000  Uiso   1.00
O78    O     0.55080   0.30001   0.28253   0.00000  Uiso   1.00
O79    O     0.56108   0.12846   0.16667   0.00000  Uiso   1.00
O80    O     0.56108   0.20487   0.16667   0.00000  Uiso   1.00
O81    O     0.43892   0.12846   0.16666   0.00000  Uiso   1.00
O82    O     0.50000   0.20488   0.09511   0.00000  Uiso   1.00
O83    O     0.50000   0.12845   0.23822   0.00000  Uiso   1.00
O84    O     0.50000   0.20488   0.23822   0.00000  Uiso   1.00
O85    O     0.50000   0.12845   0.09511   0.00000  Uiso   1.00
O86    O     0.59607   0.03339   0.22815   0.00000  Uiso   1.00
Zn87   Zn    0.50000   0.21771   0.16667   0.00000  Uiso   1.00
Zn88   Zn    0.50000   0.11563   0.16667   0.00000  Uiso   1.00
C89    C     0.75341   0.16662   0.16660   0.00000  Uiso   1.00
C90    C     0.68840   0.20663   0.17557   0.00000  Uiso   1.00
C91    C     0.95747   0.16673   0.16666   0.00000  Uiso   1.00
C92    C     0.70920   0.16660   0.16668   0.00000  Uiso   1.00
C93    C     0.86041   0.02396   0.19768   0.00000  Uiso   1.00
C94    C     0.80625   0.30937   0.13566   0.00000  Uiso   1.00
C95    C     0.80770   0.02398   0.13393   0.00000  Uiso   1.00
C96    C     0.85897   0.30935   0.19941   0.00000  Uiso   1.00
C97    C     0.89397   0.04809   0.22605   0.00000  Uiso   1.00
C98    C     0.77270   0.28524   0.10729   0.00000  Uiso   1.00
C99    C     0.78433   0.04814   0.09338   0.00000  Uiso   1.00
C100   C     0.91325   0.16672   0.16673   0.00000  Uiso   1.00
C101   C     0.88234   0.28519   0.23995   0.00000  Uiso   1.00
C102   C     0.83322   0.16672   0.07301   0.00000  Uiso   1.00
C103   C     0.83345   0.16661   0.26033   0.00000  Uiso   1.00
C104   C     0.83329   0.16674   0.02183   0.00000  Uiso   1.00
C105   C     0.83338   0.16659   0.31151   0.00000  Uiso   1.00
C106   C     0.68756   0.12663   0.15781   0.00000  Uiso   1.00
C107   C     0.97910   0.20670   0.17552   0.00000  Uiso   1.00
C108   C     0.97827   0.12671   0.15776   0.00000  Uiso   1.00
H109   H     0.70339   0.09549   0.15066   0.00000  Uiso   1.00
H110   H     0.96327   0.23784   0.18268   0.00000  Uiso   1.00
H111   H     0.96175   0.09561   0.15049   0.00000  Uiso   1.00
H112   H     0.70492   0.23772   0.18285   0.00000  Uiso   1.00
H113   H     0.88826   0.07914   0.24468   0.00000  Uiso   1.00
H114   H     0.77841   0.25419   0.08866   0.00000  Uiso   1.00
H115   H     0.76915   0.07940   0.10006   0.00000  Uiso   1.00
H116   H     0.89751   0.25393   0.23327   0.00000  Uiso   1.00
N117   N     0.83333   0.28573   0.16667   0.00000  Uiso   1.00
N118   N     0.83333   0.04760   0.16667   0.00000  Uiso   1.00
O119   O     0.77226   0.20487   0.16666   0.00000  Uiso   1.00
O120   O     0.73726   0.29994   0.10518   0.00000  Uiso   1.00
O121   O     0.78253   0.03332   0.05080   0.00000  Uiso   1.00
O122   O     0.88413   0.30001   0.28253   0.00000  Uiso   1.00
O123   O     0.89441   0.12846   0.16667   0.00000  Uiso   1.00
O124   O     0.89441   0.20487   0.16667   0.00000  Uiso   1.00
O125   O     0.77226   0.12846   0.16666   0.00000  Uiso   1.00
O126   O     0.83334   0.20488   0.09511   0.00000  Uiso   1.00
O127   O     0.83333   0.12845   0.23822   0.00000  Uiso   1.00
O128   O     0.83333   0.20488   0.23822   0.00000  Uiso   1.00
O129   O     0.83334   0.12845   0.09511   0.00000  Uiso   1.00
O130   O     0.92940   0.03339   0.22815   0.00000  Uiso   1.00
Zn131  Zn    0.83333   0.21771   0.16667   0.00000  Uiso   1.00
Zn132  Zn    0.83333   0.11563   0.16667   0.00000  Uiso   1.00
C133   C     0.08675   0.49995   0.16660   0.00000  Uiso   1.00
C134   C     0.02173   0.53996   0.17557   0.00000  Uiso   1.00
C135   C     0.29080   0.50007   0.16666   0.00000  Uiso   1.00
C136   C     0.04253   0.49993   0.16668   0.00000  Uiso   1.00
C137   C     0.19374   0.35730   0.19768   0.00000  Uiso   1.00
C138   C     0.13959   0.64270   0.13566   0.00000  Uiso   1.00
C139   C     0.14103   0.35731   0.13393   0.00000  Uiso   1.00
C140   C     0.19230   0.64269   0.19941   0.00000  Uiso   1.00
C141   C     0.22730   0.38142   0.22605   0.00000  Uiso   1.00
C142   C     0.10603   0.61858   0.10729   0.00000  Uiso   1.00
C143   C     0.11766   0.38147   0.09338   0.00000  Uiso   1.00
C144   C     0.24659   0.50005   0.16673   0.00000  Uiso   1.00
C145   C     0.21567   0.61853   0.23995   0.00000  Uiso   1.00
C146   C     0.16655   0.50005   0.07301   0.00000  Uiso   1.00
C147   C     0.16678   0.49995   0.26033   0.00000  Uiso   1.00
C148   C     0.16662   0.50008   0.02183   0.00000  Uiso   1.00
C149   C     0.16671   0.49992   0.31151   0.00000  Uiso   1.00
C150   C     0.02090   0.45997   0.15781   0.00000  Uiso   1.00
C151   C     0.31244   0.54003   0.17552   0.00000  Uiso   1.00
C152   C     0.31160   0.46004   0.15776   0.00000  Uiso   1.00
H153   H     0.03673   0.42883   0.15066   0.00000  Uiso   1.00
H154   H     0.29661   0.57117   0.18268   0.00000  Uiso   1.00
H155   H     0.29508   0.42895   0.15049   0.00000  Uiso   1.00
H156   H     0.03825   0.57105   0.18285   0.00000  Uiso   1.00
H157   H     0.22159   0.41248   0.24468   0.00000  Uiso   1.00
H158   H     0.11174   0.58752   0.08866   0.00000  Uiso   1.00
H159   H     0.10249   0.41273   0.10006   0.00000  Uiso   1.00
H160   H     0.23084   0.58727   0.23327   0.00000  Uiso   1.00
N161   N     0.16667   0.61907   0.16667   0.00000  Uiso   1.00
N162   N     0.16667   0.38093   0.16667   0.00000  Uiso   1.00
O163   O     0.10559   0.53821   0.16666   0.00000  Uiso   1.00
O164   O     0.07060   0.63328   0.10518   0.00000  Uiso   1.00
O165   O     0.11587   0.36666   0.05080   0.00000  Uiso   1.00
O166   O     0.21747   0.63334   0.28253   0.00000  Uiso   1.00
O167   O     0.22774   0.46179   0.16667   0.00000  Uiso   1.00
O168   O     0.22774   0.53821   0.16667   0.00000  Uiso   1.00
O169   O     0.10559   0.46179   0.16666   0.00000  Uiso   1.00
O170   O     0.16667   0.53821   0.09511   0.00000  Uiso   1.00
O171   O     0.16666   0.46179   0.23822   0.00000  Uiso   1.00
O172   O     0.16666   0.53821   0.23822   0.00000  Uiso   1.00
O173   O     0.16667   0.46179   0.09511   0.00000  Uiso   1.00
O174   O     0.26274   0.36672   0.22815   0.00000  Uiso   1.00
Zn175  Zn    0.16667   0.55104   0.16667   0.00000  Uiso   1.00
Zn176  Zn    0.16667   0.44896   0.16667   0.00000  Uiso   1.00
C177   C     0.42008   0.49995   0.16660   0.00000  Uiso   1.00
C178   C     0.35507   0.53996   0.17557   0.00000  Uiso   1.00
C179   C     0.62413   0.50007   0.16666   0.00000  Uiso   1.00
C180   C     0.37586   0.49993   0.16668   0.00000  Uiso   1.00
C181   C     0.52708   0.35730   0.19768   0.00000  Uiso   1.00
C182   C     0.47292   0.64270   0.13566   0.00000  Uiso   1.00
C183   C     0.47436   0.35731   0.13393   0.00000  Uiso   1.00
C184   C     0.52563   0.64269   0.19941   0.00000  Uiso   1.00
C185   C     0.56063   0.38142   0.22605   0.00000  Uiso   1.00
C186   C     0.43937   0.61858   0.10729   0.00000  Uiso   1.00
C187   C     0.45100   0.38147   0.09338   0.00000  Uiso   1.00
C188   C     0.57992   0.50005   0.16673   0.00000  Uiso   1.00
C189   C     0.54900   0.61853   0.23995   0.00000  Uiso   1.00
C190   C     0.49988   0.50005   0.07301   0.00000  Uiso   1.00
C191   C     0.50012   0.49995   0.26033   0.00000  Uiso   1.00
C192   C     0.49996   0.50008   0.02183   0.00000  Uiso   1.00
C193   C     0.50004   0.49992   0.31151   0.00000  Uiso   1.00
C194   C     0.35423   0.45997   0.15781   0.00000  Uiso   1.00
C195   C     0.64577   0.54003   0.17552   0.00000  Uiso   1.00
C196   C     0.64493   0.46004   0.15776   0.00000  Uiso   1.00
H197   H     0.37006   0.42883   0.15066   0.00000  Uiso   1.00
H198   H     0.62994   0.57117   0.18268   0.00000  Uiso   1.00
H199   H     0.62841   0.42895   0.15049   0.00000  Uiso   1.00
H200   H     0.37159   0.57105   0.18285   0.00000  Uiso   1.00
H201   H     0.55492   0.41248   0.24468   0.00000  Uiso   1.00
H202   H     0.44507   0.58752   0.08866   0.00000  Uiso   1.00
H203   H     0.43582   0.41273   0.10006   0.00000  Uiso   1.00
H204   H     0.56418   0.58727   0.23327   0.00000  Uiso   1.00
N205   N     0.50000   0.61907   0.16667   0.00000  Uiso   1.00
N206   N     0.50000   0.38093   0.16667   0.00000  Uiso   1.00
O207   O     0.43892   0.53821   0.16666   0.00000  Uiso   1.00
O208   O     0.40393   0.63328   0.10518   0.00000  Uiso   1.00
O209   O     0.44920   0.36666   0.05080   0.00000  Uiso   1.00
O210   O     0.55080   0.63334   0.28253   0.00000  Uiso   1.00
O211   O     0.56108   0.46179   0.16667   0.00000  Uiso   1.00
O212   O     0.56108   0.53821   0.16667   0.00000  Uiso   1.00
O213   O     0.43892   0.46179   0.16666   0.00000  Uiso   1.00
O214   O     0.50000   0.53821   0.09511   0.00000  Uiso   1.00
O215   O     0.50000   0.46179   0.23822   0.00000  Uiso   1.00
O216   O     0.50000   0.53821   0.23822   0.00000  Uiso   1.00
O217   O     0.50000   0.46179   0.09511   0.00000  Uiso   1.00
O218   O     0.59607   0.36672   0.22815   0.00000  Uiso   1.00
Zn219  Zn    0.50000   0.55104   0.16667   0.00000  Uiso   1.00
Zn220  Zn    0.50000   0.44896   0.16667   0.00000  Uiso   1.00
C221   C     0.75341   0.49995   0.16660   0.00000  Uiso   1.00
C222   C     0.68840   0.53996   0.17557   0.00000  Uiso   1.00
C223   C     0.95747   0.50007   0.16666   0.00000  Uiso   1.00
C224   C     0.70920   0.49993   0.16668   0.00000  Uiso   1.00
C225   C     0.86041   0.35730   0.19768   0.00000  Uiso   1.00
C226   C     0.80625   0.64270   0.13566   0.00000  Uiso   1.00
C227   C     0.80770   0.35731   0.13393   0.00000  Uiso   1.00
C228   C     0.85897   0.64269   0.19941   0.00000  Uiso   1.00
C229   C     0.89397   0.38142   0.22605   0.00000  Uiso   1.00
C230   C     0.77270   0.61858   0.10729   0.00000  Uiso   1.00
C231   C     0.78433   0.38147   0.09338   0.00000  Uiso   1.00
C232   C     0.91325   0.50005   0.16673   0.00000  Uiso   1.00
C233   C     0.88234   0.61853   0.23995   0.00000  Uiso   1.00
C234   C     0.83322   0.50005   0.07301   0.00000  Uiso   1.00
C235   C     0.83345   0.49995   0.26033   0.00000  Uiso   1.00
C236   C     0.83329   0.50008   0.02183   0.00000  Uiso   1.00
C237   C     0.83338   0.49992   0.31151   0.00000  Uiso   1.00
C238   C     0.68756   0.45997   0.15781   0.00000  Uiso   1.00
C239   C     0.97910   0.54003   0.17552   0.00000  Uiso   1.00
C240   C     0.97827   0.46004   0.15776   0.00000  Uiso   1.00
H241   H     0.70339   0.42883   0.15066   0.00000  Uiso   1.00
H242   H     0.96327   0.57117   0.18268   0.00000  Uiso   1.00
H243   H     0.96175   0.42895   0.15049   0.00000  Uiso   1.00
H244   H     0.70492   0.57105   0.18285   0.00000  Uiso   1.00
H245   H     0.88826   0.41248   0.24468   0.00000  Uiso   1.00
H246   H     0.77841   0.58752   0.08866   0.00000  Uiso   1.00
H247   H     0.76915   0.41273   0.10006   0.00000  Uiso   1.00
H248   H     0.89751   0.58727   0.23327   0.00000  Uiso   1.00
N249   N     0.83333   0.61907   0.16667   0.00000  Uiso   1.00
N250   N     0.83333   0.38093   0.16667   0.00000  Uiso   1.00
O251   O     0.77226   0.53821   0.16666   0.00000  Uiso   1.00
O252   O     0.73726   0.63328   0.10518   0.00000  Uiso   1.00
O253   O     0.78253   0.36666   0.05080   0.00000  Uiso   1.00
O254   O     0.88413   0.63334   0.28253   0.00000  Uiso   1.00
O255   O     0.89441   0.46179   0.16667   0.00000  Uiso   1.00
O256   O     0.89441   0.53821   0.16667   0.00000  Uiso   1.00
O257   O     0.77226   0.46179   0.16666   0.00000  Uiso   1.00
O258   O     0.83334   0.53821   0.09511   0.00000  Uiso   1.00
O259   O     0.83333   0.46179   0.23822   0.00000  Uiso   1.00
O260   O     0.83333   0.53821   0.23822   0.00000  Uiso   1.00
O261   O     0.83334   0.46179   0.09511   0.00000  Uiso   1.00
O262   O     0.92940   0.36672   0.22815   0.00000  Uiso   1.00
Zn263  Zn    0.83333   0.55104   0.16667   0.00000  Uiso   1.00
Zn264  Zn    0.83333   0.44896   0.16667   0.00000  Uiso   1.00
C265   C     0.08675   0.83328   0.16660   0.00000  Uiso   1.00
C266   C     0.02173   0.87329   0.17557   0.00000  Uiso   1.00
C267   C     0.29080   0.83340   0.16666   0.00000  Uiso   1.00
C268   C     0.04253   0.83327   0.16668   0.00000  Uiso   1.00
C269   C     0.19374   0.69063   0.19768   0.00000  Uiso   1.00
C270   C     0.13959   0.97604   0.13566   0.00000  Uiso   1.00
C271   C     0.14103   0.69065   0.13393   0.00000  Uiso   1.00
C272   C     0.19230   0.97602   0.19941   0.00000  Uiso   1.00
C273   C     0.22730   0.71476   0.22605   0.00000  Uiso   1.00
C274   C     0.10603   0.95191   0.10729   0.00000  Uiso   1.00
C275   C     0.11766   0.71481   0.09338   0.00000  Uiso   1.00
C276   C     0.24659   0.83338   0.16673   0.00000  Uiso   1.00
C277   C     0.21567   0.95186   0.23995   0.00000  Uiso   1.00
C278   C     0.16655   0.83339   0.07301   0.00000  Uiso   1.00
C279   C     0.16678   0.83328   0.26033   0.00000  Uiso   1.00
C280   C     0.16662   0.83341   0.02183   0.00000  Uiso   1.00
C281   C     0.16671   0.83326   0.31151   0.00000  Uiso   1.00
C282   C     0.02090   0.79330   0.15781   0.00000  Uiso   1.00
C283   C     0.31244   0.87337   0.17552   0.00000  Uiso   1.00
C284   C     0.31160   0.79337   0.15776   0.00000  Uiso   1.00
H285   H     0.03673   0.76216   0.15066   0.00000  Uiso   1.00
H286   H     0.29661   0.90451   0.18268   0.00000  Uiso   1.00
H287   H     0.29508   0.76228   0.15049   0.00000  Uiso   1.00
H288   H     0.03825   0.90439   0.18285   0.00000  Uiso   1.00
H289   H     0.22159   0.74581   0.24468   0.00000  Uiso   1.00
H290   H     0.11174   0.92086   0.08866   0.00000  Uiso   1.00
H291   H     0.10249   0.74606   0.10006   0.00000  Uiso   1.00
H292   H     0.23084   0.92060   0.23327   0.00000  Uiso   1.00
N293   N     0.16667   0.95240   0.16667   0.00000  Uiso   1.00
N294   N     0.16667   0.71427   0.16667   0.00000  Uiso   1.00
O295   O     0.10559   0.87154   0.16666   0.00000  Uiso   1.00
O296   O     0.07060   0.96661   0.10518   0.00000  Uiso   1.00
O297   O     0.11587   0.69999   0.05080   0.00000  Uiso   1.00
O298   O     0.21747   0.96668   0.28253   0.00000  Uiso   1.00
O299   O     0.22774   0.79513   0.16667   0.00000  Uiso   1.00
O300   O     0.22774   0.87154   0.16667   0.00000  Uiso   1.00
O301   O     0.10559   0.79513   0.16666   0.00000  Uiso   1.00
O302   O     0.16667   0.87155   0.09511   0.00000  Uiso   1.00
O303   O     0.16666   0.79512   0.23822   0.00000  Uiso   1.00
O304   O     0.16666   0.87155   0.23822   0.00000  Uiso   1.00
O305   O     0.16667   0.79512   0.09511   0.00000  Uiso   1.00
O306   O     0.26274   0.70006   0.22815   0.00000  Uiso   1.00
Zn307  Zn    0.16667   0.88437   0.16667   0.00000  Uiso   1.00
Zn308  Zn    0.16667   0.78229   0.16667   0.00000  Uiso   1.00
C309   C     0.42008   0.83328   0.16660   0.00000  Uiso   1.00
C310   C     0.35507   0.87329   0.17557   0.00000  Uiso   1.00
C311   C     0.62413   0.83340   0.16666   0.00000  Uiso   1.00
C312   C     0.37586   0.83327   0.16668   0.00000  Uiso   1.00
C313   C     0.52708   0.69063   0.19768   0.00000  Uiso   1.00
C314   C     0.47292   0.97604   0.13566   0.00000  Uiso   1.00
C315   C     0.47436   0.69065   0.13393   0.00000  Uiso   1.00
C316   C     0.52563   0.97602   0.19941   0.00000  Uiso   1.00
C317   C     0.56063   0.71476   0.22605   0.00000  Uiso   1.00
C318   C     0.43937   0.95191   0.10729   0.00000  Uiso   1.00
C319   C     0.45100   0.71481   0.09338   0.00000  Uiso   1.00
C320   C     0.57992   0.83338   0.16673   0.00000  Uiso   1.00
C321   C     0.54900   0.95186   0.23995   0.00000  Uiso   1.00
C322   C     0.49988   0.83339   0.07301   0.00000  Uiso   1.00
C323   C     0.50012   0.83328   0.26033   0.00000  Uiso   1.00
C324   C     0.49996   0.83341   0.02183   0.00000  Uiso   1.00
C325   C     0.50004   0.83326   0.31151   0.00000  Uiso   1.00
C326   C     0.35423   0.79330   0.15781   0.00000  Uiso   1.00
C327   C     0.64577   0.87337   0.17552   0.00000  Uiso   1.00
C328   C     0.64493   0.79337   0.15776   0.00000  Uiso   1.00
H329   H     0.37006   0.76216   0.15066   0.00000  Uiso   1.00
H330   H     0.62994   0.90451   0.18268   0.00000  Uiso   1.00
H331   H     0.62841   0.76228   0.15049   0.00000  Uiso   1.00
H332   H     0.37159   0.90439   0.18285   0.00000  Uiso   1.00
H333   H     0.55492   0.74581   0.24468   0.00000  Uiso   1.00
H334   H     0.44507   0.92086   0.08866   0.00000  Uiso   1.00
H335   H     0.43582   0.74606   0.10006   0.00000  Uiso   1.00
H336   H     0.56418   0.92060   0.23327   0.00000  Uiso   1.00
N337   N     0.50000   0.95240   0.16667   0.00000  Uiso   1.00
N338   N     0.50000   0.71427   0.16667   0.00000  Uiso   1.00
O339   O     0.43892   0.87154   0.16666   0.00000  Uiso   1.00
O340   O     0.40393   0.96661   0.10518   0.00000  Uiso   1.00
O341   O     0.44920   0.69999   0.05080   0.00000  Uiso   1.00
O342   O     0.55080   0.96668   0.28253   0.00000  Uiso   1.00
O343   O     0.56108   0.79513   0.16667   0.00000  Uiso   1.00
O344   O     0.56108   0.87154   0.16667   0.00000  Uiso   1.00
O345   O     0.43892   0.79513   0.16666   0.00000  Uiso   1.00
O346   O     0.50000   0.87155   0.09511   0.00000  Uiso   1.00
O347   O     0.50000   0.79512   0.23822   0.00000  Uiso   1.00
O348   O     0.50000   0.87155   0.23822   0.00000  Uiso   1.00
O349   O     0.50000   0.79512   0.09511   0.00000  Uiso   1.00
O350   O     0.59607   0.70006   0.22815   0.00000  Uiso   1.00
Zn351  Zn    0.50000   0.88437   0.16667   0.00000  Uiso   1.00
Zn352  Zn    0.50000   0.78229   0.16667   0.00000  Uiso   1.00
C353   C     0.75341   0.83328   0.16660   0.00000  Uiso   1.00
C354   C     0.68840   0.87329   0.17557   0.00000  Uiso   1.00
C355   C     0.95747   0.83340   0.16666   0.00000  Uiso   1.00
C356   C     0.70920   0.83327   0.16668   0.00000  Uiso   1.00
C357   C     0.86041   0.69063   0.19768   0.00000  Uiso   1.00
C358   C     0.80625   0.97604   0.13566   0.00000  Uiso   1.00
C359   C     0.80770   0.69065   0.13393   0.00000  Uiso   1.00
C360   C     0.85897   0.97602   0.19941   0.00000  Uiso   1.00
C361   C     0.89397   0.71476   0.22605   0.00000  Uiso   1.00
C362   C     0.77270   0.95191   0.10729   0.00000  Uiso   1.00
C363   C     0.78433   0.71481   0.09338   0.00000  Uiso   1.00
C364   C     0.91325   0.83338   0.16673   0.00000  Uiso   1.00
C365   C     0.88234   0.95186   0.23995   0.00000  Uiso   1.00
C366   C     0.83322   0.83339   0.07301   0.00000  Uiso   1.00
C367   C     0.83345   0.83328   0.26033   0.00000  Uiso   1.00
C368   C     0.83329   0.83341   0.02183   0.00000  Uiso   1.00
C369   C     0.83338   0.83326   0.31151   0.00000  Uiso   1.00
C370   C     0.68756   0.79330   0.15781   0.00000  Uiso   1.00
C371   C     0.97910   0.87337   0.17552   0.00000  Uiso   1.00
C372   C     0.97827   0.79337   0.15776   0.00000  Uiso   1.00
H373   H     0.70339   0.76216   0.15066   0.00000  Uiso   1.00
H374   H     0.96327   0.90451   0.18268   0.00000  Uiso   1.00
H375   H     0.96175   0.76228   0.15049   0.00000  Uiso   1.00
H376   H     0.70492   0.90439   0.18285   0.00000  Uiso   1.00
H377   H     0.88826   0.74581   0.24468   0.00000  Uiso   1.00
H378   H     0.77841   0.92086   0.08866   0.00000  Uiso   1.00
H379   H     0.76915   0.74606   0.10006   0.00000  Uiso   1.00
H380   H     0.89751   0.92060   0.23327   0.00000  Uiso   1.00
N381   N     0.83333   0.95240   0.16667   0.00000  Uiso   1.00
N382   N     0.83333   0.71427   0.16667   0.00000  Uiso   1.00
O383   O     0.77226   0.87154   0.16666   0.00000  Uiso   1.00
O384   O     0.73726   0.96661   0.10518   0.00000  Uiso   1.00
O385   O     0.78253   0.69999   0.05080   0.00000  Uiso   1.00
O386   O     0.88413   0.96668   0.28253   0.00000  Uiso   1.00
O387   O     0.89441   0.79513   0.16667   0.00000  Uiso   1.00
O388   O     0.89441   0.87154   0.16667   0.00000  Uiso   1.00
O389   O     0.77226   0.79513   0.16666   0.00000  Uiso   1.00
O390   O     0.83334   0.87155   0.09511   0.00000  Uiso   1.00
O391   O     0.83333   0.79512   0.23822   0.00000  Uiso   1.00
O392   O     0.83333   0.87155   0.23822   0.00000  Uiso   1.00
O393   O     0.83334   0.79512   0.09511   0.00000  Uiso   1.00
O394   O     0.92940   0.70006   0.22815   0.00000  Uiso   1.00
Zn395  Zn    0.83333   0.88437   0.16667   0.00000  Uiso   1.00
Zn396  Zn    0.83333   0.78229   0.16667   0.00000  Uiso   1.00
C397   C     0.08675   0.16662   0.49993   0.00000  Uiso   1.00
C398   C     0.02173   0.20663   0.50890   0.00000  Uiso   1.00
C399   C     0.29080   0.16673   0.49999   0.00000  Uiso   1.00
C400   C     0.04253   0.16660   0.50001   0.00000  Uiso   1.00
C401   C     0.19374   0.02396   0.53101   0.00000  Uiso   1.00
C402   C     0.13959   0.30937   0.46899   0.00000  Uiso   1.00
C403   C     0.14103   0.02398   0.46726   0.00000  Uiso   1.00
C404   C     0.19230   0.30935   0.53274   0.00000  Uiso   1.00
C405   C     0.22730   0.04809   0.55938   0.00000  Uiso   1.00
C406   C     0.10603   0.28524   0.44062   0.00000  Uiso   1.00
C407   C     0.11766   0.04814   0.42672   0.00000  Uiso   1.00
C408   C     0.24659   0.16672   0.50007   0.00000  Uiso   1.00
C409   C     0.21567   0.28519   0.57328   0.00000  Uiso   1.00
C410   C     0.16655   0.16672   0.40634   0.00000  Uiso   1.00
C411   C     0.16678   0.16661   0.59366   0.00000  Uiso   1.00
C412   C     0.16662   0.16674   0.35516   0.00000  Uiso   1.00
C413   C     0.16671   0.16659   0.64484   0.00000  Uiso   1.00
C414   C     0.02090   0.12663   0.49115   0.00000  Uiso   1.00
C415   C     0.31244   0.20670   0.50885   0.00000  Uiso   1.00
C416   C     0.31160   0.12671   0.49110   0.00000  Uiso   1.00
H417   H     0.03673   0.09549   0.48399   0.00000  Uiso   1.00
H418   H     0.29661   0.23784   0.51601   0.00000  Uiso   1.00
H419   H     0.29508   0.09561   0.48382   0.00000  Uiso   1.00
H420   H     0.03825   0.23772   0.51618   0.00000  Uiso   1.00
H421   H     0.22159   0.07914   0.57801   0.00000  Uiso   1.00
H422   H     0.11174   0.25419   0.42199   0.00000  Uiso   1.00
H423   H     0.10249   0.07940   0.43339   0.00000  Uiso   1.00
H424   H     0.23084   0.25393   0.56661   0.00000  Uiso   1.00
N425   N     0.16667   0.28573   0.50000   0.00000  Uiso   1.00
N426   N     0.16667   0.04760   0.50000   0.00000  Uiso   1.00
O427   O     0.10559   0.20487   0.50000   0.00000  Uiso   1.00
O428   O     0.07060   0.29994   0.43851   0.00000  Uiso   1.00
O429   O     0.11587   0.03332   0.38413   0.00000  Uiso   1.00
O430   O     0.21747   0.30001   0.61587   0.00000  Uiso   1.00
O431   O     0.22774   0.12846   0.50000   0.00000  Uiso   1.00
O432   O     0.22774   0.20487   0.50000   0.00000  Uiso   1.00
O433   O     0.10559   0.12846   0.50000   0.00000  Uiso   1.00
O434   O     0.16667   0.20488   0.42845   0.00000  Uiso   1.00
O435   O     0.16666   0.12845   0.57155   0.00000  Uiso   1.00
O436   O     0.16666   0.20488   0.57155   0.00000  Uiso   1.00
O437   O     0.16667   0.12845   0.42845   0.00000  Uiso   1.00
O438   O     0.26274   0.03339   0.56149   0.00000  Uiso   1.00
Zn439  Zn    0.16667   0.21771   0.50000   0.00000  Uiso   1.00
Zn440  Zn    0.16667   0.11563   0.50000   0.00000  Uiso   1.00
C441   C     0.42008   0.16662   0.49993   0.00000  Uiso   1.00
C442   C     0.35507   0.20663   0.50890   0.00000  Uiso   1.00
C443   C     0.62413   0.16673   0.49999   0.00000  Uiso   1.00
C444   C     0.37586   0.16660   0.50001   0.00000  Uiso   1.00
C445   C     0.52708   0.02396   0.53101   0.00000  Uiso   1.00
C446   C     0.47292   0.30937   0.46899   0.00000  Uiso   1.00
C447   C     0.47436   0.02398   0.46726   0.00000  Uiso   1.00
C448   C     0.52563   0.30935   0.53274   0.00000  Uiso   1.00
C449   C     0.56063   0.04809   0.55938   0.00000  Uiso   1.00
C450   C     0.43937   0.28524   0.44062   0.00000  Uiso   1.00
C451   C     0.45100   0.04814   0.42672   0.00000  Uiso   1.00
C452   C     0.57992   0.16672   0.50007   0.00000  Uiso   1.00
C453   C     0.54900   0.28519   0.57328   0.00000  Uiso   1.00
C454   C     0.49988   0.16672   0.40634   0.00000  Uiso   1.00
C455   C     0.50012   0.16661   0.59366   0.00000  Uiso   1.00
C456   C     0.49996   0.16674   0.35516   0.00000  Uiso   1.00
C457   C     0.50004   0.16659   0.64484   0.00000  Uiso   1.00
C458   C     0.35423   0.12663   0.49115   0.00000  Uiso   1.00
C459   C     0.64577   0.20670   0.50885   0.00000  Uiso   1.00
C460   C     0.64493   0.12671   0.49110   0.00000  Uiso   1.00
H461   H     0.37006   0.09549   0.48399   0.00000  Uiso   1.00
H462   H     0.62994   0.23784   0.51601   0.00000  Uiso   1.00
H463   H     0.62841   0.09561   0.48382   0.00000  Uiso   1.00
H464   H     0.37159   0.23772   0.51618   0.00000  Uiso   1.00
H465   H     0.55492   0.07914   0.57801   0.00000  Uiso   1.00
H466   H     0.44507   0.25419   0.42199   0.00000  Uiso   1.00
H467   H     0.43582   0.07940   0.43339   0.00000  Uiso   1.00
H468   H     0.56418   0.25393   0.56661   0.00000  Uiso   1.00
N469   N     0.50000   0.28573   0.50000   0.00000  Uiso   1.00
N470   N     0.50000   0.04760   0.50000   0.00000  Uiso   1.00
O471   O     0.43892   0.20487   0.50000   0.00000  Uiso   1.00
O472   O     0.40393   0.29994   0.43851   0.00000  Uiso   1.00
O473   O     0.44920   0.03332   0.38413   0.00000  Uiso   1.00
O474   O     0.55080   0.30001   0.61587   0.00000  Uiso   1.00
O475   O     0.56108   0.12846   0.50000   0.00000  Uiso   1.00
O476   O     0.56108   0.20487   0.50000   0.00000  Uiso   1.00
O477   O     0.43892   0.12846   0.50000   0.00000  Uiso   1.00
O478   O     0.50000   0.20488   0.42845   0.00000  Uiso   1.00
O479   O     0.50000   0.12845   0.57155   0.00000  Uiso   1.00
O480   O     0.50000   0.20488   0.57155   0.00000  Uiso   1.00
O481   O     0.50000   0.12845   0.42845   0.00000  Uiso   1.00
O482   O     0.59607   0.03339   0.56149   0.00000  Uiso   1.00
Zn483  Zn    0.50000   0.21771   0.50000   0.00000  Uiso   1.00
Zn484  Zn    0.50000   0.11563   0.50000   0.00000  Uiso   1.00
C485   C     0.75341   0.16662   0.49993   0.00000  Uiso   1.00
C486   C     0.68840   0.20663   0.50890   0.00000  Uiso   1.00
C487   C     0.95747   0.16673   0.49999   0.00000  Uiso   1.00
C488   C     0.70920   0.16660   0.50001   0.00000  Uiso   1.00
C489   C     0.86041   0.02396   0.53101   0.00000  Uiso   1.00
C490   C     0.80625   0.30937   0.46899   0.00000  Uiso   1.00
C491   C     0.80770   0.02398   0.46726   0.00000  Uiso   1.00
C492   C     0.85897   0.30935   0.53274   0.00000  Uiso   1.00
C493   C     0.89397   0.04809   0.55938   0.00000  Uiso   1.00
C494   C     0.77270   0.28524   0.44062   0.00000  Uiso   1.00
C495   C     0.78433   0.04814   0.42672   0.00000  Uiso   1.00
C496   C     0.91325   0.16672   0.50007   0.00000  Uiso   1.00
C497   C     0.88234   0.28519   0.57328   0.00000  Uiso   1.00
C498   C     0.83322   0.16672   0.40634   0.00000  Uiso   1.00
C499   C     0.83345   0.16661   0.59366   0.00000  Uiso   1.00
C500   C     0.83329   0.16674   0.35516   0.00000  Uiso   1.00
C501   C     0.83338   0.16659   0.64484   0.00000  Uiso   1.00
C502   C     0.68756   0.12663   0.49115   0.00000  Uiso   1.00
C503   C     0.97910   0.20670   0.50885   0.00000  Uiso   1.00
C504   C     0.97827   0.12671   0.49110   0.00000  Uiso   1.00
H505   H     0.70339   0.09549   0.48399   0.00000  Uiso   1.00
H506   H     0.96327   0.23784   0.51601   0.00000  Uiso   1.00
H507   H     0.96175   0.09561   0.48382   0.00000  Uiso   1.00
H508   H     0.70492   0.23772   0.51618   0.00000  Uiso   1.00
H509   H     0.88826   0.07914   0.57801   0.00000  Uiso   1.00
H510   H     0.77841   0.25419   0.42199   0.00000  Uiso   1.00
H511   H     0.76915   0.07940   0.43339   0.00000  Uiso   1.00
H512   H     0.89751   0.25393   0.56661   0.00000  Uiso   1.00
N513   N     0.83333   0.28573   0.50000   0.00000  Uiso   1.00
N514   N     0.83333   0.04760   0.50000   0.00000  Uiso   1.00
O515   O     0.77226   0.20487   0.50000   0.00000  Uiso   1.00
O516   O     0.73726   0.29994   0.43851   0.00000  Uiso   1.00
O517   O     0.78253   0.03332   0.38413   0.00000  Uiso   1.00
O518   O     0.88413   0.30001   0.61587   0.00000  Uiso   1.00
O519   O     0.89441   0.12846   0.50000   0.00000  Uiso   1.00
O520   O     0.89441   0.20487   0.50000   0.00000  Uiso   1.00
O521   O     0.77226   0.12846   0.50000   0.00000  Uiso   1.00
O522   O     0.83334   0.20488   0.42845   0.00000  Uiso   1.00
O523   O     0.83333   0.12845   0.57155   0.00000  Uiso   1.00
O524   O     0.83333   0.20488   0.57155   0.00000  Uiso   1.00
O525   O     0.83334   0.12845   0.42845   0.00000  Uiso   1.00
O526   O     0.92940   0.03339   0.56149   0.00000  Uiso   1.00
Zn527  Zn    0.83333   0.21771   0.50000   0.00000  Uiso   1.00
Zn528  Zn    0.83333   0.11563   0.50000   0.00000  Uiso   1.00
C529   C     0.08675   0.49995   0.49993   0.00000  Uiso   1.00
C530   C     0.02173   0.53996   0.50890   0.00000  Uiso   1.00
C531   C     0.29080   0.50007   0.49999   0.00000  Uiso   1.00
C532   C     0.04253   0.49993   0.50001   0.00000  Uiso   1.00
C533   C     0.19374   0.35730   0.53101   0.00000  Uiso   1.00
C534   C     0.13959   0.64270   0.46899   0.00000  Uiso   1.00
C535   C     0.14103   0.35731   0.46726   0.00000  Uiso   1.00
C536   C     0.19230   0.64269   0.53274   0.00000  Uiso   1.00
C537   C     0.22730   0.38142   0.55938   0.00000  Uiso   1.00
C538   C     0.10603   0.61858   0.44062   0.00000  Uiso   1.00
C539   C     0.11766   0.38147   0.42672   0.00000  Uiso   1.00
C540   C     0.24659   0.50005   0.50007   0.00000  Uiso   1.00
C541   C     0.21567   0.61853   0.57328   0.00000  Uiso   1.00
C542   C     0.16655   0.50005   0.40634   0.00000  Uiso   1.00
C543   C     0.16678   0.49995   0.59366   0.00000  Uiso   1.00
C544   C     0.16662   0.50008   0.35516   0.00000  Uiso   1.00
C545   C     0.16671   0.49992   0.64484   0.00000  Uiso   1.00
C546   C     0.02090   0.45997   0.49115   0.00000  Uiso   1.00
C547   C     0.31244   0.54003   0.50885   0.00000  Uiso   1.00
C548   C     0.31160   0.46004   0.49110   0.00000  Uiso   1.00
H549   H     0.03673   0.42883   0.48399   0.00000  Uiso   1.00
H550   H     0.29661   0.57117   0.51601   0.00000  Uiso   1.00
H551   H     0.29508   0.42895   0.48382   0.00000  Uiso   1.00
H552   H     0.03825   0.57105   0.51618   0.00000  Uiso   1.00
H553   H     0.22159   0.41248   0.57801   0.00000  Uiso   1.00
H554   H     0.11174   0.58752   0.42199   0.00000  Uiso   1.00
H555   H     0.10249   0.41273   0.43339   0.00000  Uiso   1.00
H556   H     0.23084   0.58727   0.56661   0.00000  Uiso   1.00
N557   N     0.16667   0.61907   0.50000   0.00000  Uiso   1.00
N558   N     0.16667   0.38093   0.50000   0.00000  Uiso   1.00
O559   O     0.10559   0.53821   0.50000   0.00000  Uiso   1.00
O560   O     0.07060   0.63328   0.43851   0.00000  Uiso   1.00
O561   O     0.11587   0.36666   0.38413   0.00000  Uiso   1.00
O562   O     0.21747   0.63334   0.61587   0.00000  Uiso   1.00
O563   O     0.22774   0.46179   0.50000   0.00000  Uiso   1.00
O564   O     0.22774   0.53821   0.50000   0.00000  Uiso   1.00
O565   O     0.10559   0.46179   0.50000   0.00000  Uiso   1.00
O566   O     0.16667   0.53821   0.42845   0.00000  Uiso   1.00
O567   O     0.16666   0.46179   0.57155   0.00000  Uiso   1.00
O568   O     0.16666   0.53821   0.57155   0.00000  Uiso   1.00
O569   O     0.16667   0.46179   0.42845   0.00000  Uiso   1.00
O570   O     0.26274   0.36672   0.56149   0.00000  Uiso   1.00
Zn571  Zn    0.16667   0.55104   0.50000   0.00000  Uiso   1.00
Zn572  Zn    0.16667   0.44896   0.50000   0.00000  Uiso   1.00
C573   C     0.42008   0.49995   0.49993   0.00000  Uiso   1.00
C574   C     0.35507   0.53996   0.50890   0.00000  Uiso   1.00
C575   C     0.62413   0.50007   0.49999   0.00000  Uiso   1.00
C576   C     0.37586   0.49993   0.50001   0.00000  Uiso   1.00
C577   C     0.52708   0.35730   0.53101   0.00000  Uiso   1.00
C578   C     0.47292   0.64270   0.46899   0.00000  Uiso   1.00
C579   C     0.47436   0.35731   0.46726   0.00000  Uiso   1.00
C580   C     0.52563   0.64269   0.53274   0.00000  Uiso   1.00
C581   C     0.56063   0.38142   0.55938   0.00000  Uiso   1.00
C582   C     0.43937   0.61858   0.44062   0.00000  Uiso   1.00
C583   C     0.45100   0.38147   0.42672   0.00000  Uiso   1.00
C584   C     0.57992   0.50005   0.50007   0.00000  Uiso   1.00
C585   C     0.54900   0.61853   0.57328   0.00000  Uiso   1.00
C586   C     0.49988   0.50005   0.40634   0.00000  Uiso   1.00
C587   C     0.50012   0.49995   0.59366   0.00000  Uiso   1.00
C588   C     0.49996   0.50008   0.35516   0.00000  Uiso   1.00
C589   C     0.50004   0.49992   0.64484   0.00000  Uiso   1.00
C590   C     0.35423   0.45997   0.49115   0.00000  Uiso   1.00
C591   C     0.64577   0.54003   0.50885   0.00000  Uiso   1.00
C592   C     0.64493   0.46004   0.49110   0.00000  Uiso   1.00
H593   H     0.37006   0.42883   0.48399   0.00000  Uiso   1.00
H594   H     0.62994   0.57117   0.51601   0.00000  Uiso   1.00
H595   H     0.62841   0.42895   0.48382   0.00000  Uiso   1.00
H596   H     0.37159   0.57105   0.51618   0.00000  Uiso   1.00
H597   H     0.55492   0.41248   0.57801   0.00000  Uiso   1.00
H598   H     0.44507   0.58752   0.42199   0.00000  Uiso   1.00
H599   H     0.43582   0.41273   0.43339   0.00000  Uiso   1.00
H600   H     0.56418   0.58727   0.56661   0.00000  Uiso   1.00
N601   N     0.50000   0.61907   0.50000   0.00000  Uiso   1.00
N602   N     0.50000   0.38093   0.50000   0.00000  Uiso   1.00
O603   O     0.43892   0.53821   0.50000   0.00000  Uiso   1.00
O604   O     0.40393   0.63328   0.43851   0.00000  Uiso   1.00
O605   O     0.44920   0.36666   0.38413   0.00000  Uiso   1.00
O606   O     0.55080   0.63334   0.61587   0.00000  Uiso   1.00
O607   O     0.56108   0.46179   0.50000   0.00000  Uiso   1.00
O608   O     0.56108   0.53821   0.50000   0.00000  Uiso   1.00
O609   O     0.43892   0.46179   0.50000   0.00000  Uiso   1.00
O610   O     0.50000   0.53821   0.42845   0.00000  Uiso   1.00
O611   O     0.50000   0.46179   0.57155   0.00000  Uiso   1.00
O612   O     0.50000   0.53821   0.57155   0.00000  Uiso   1.00
O613   O     0.50000   0.46179   0.42845   0.00000  Uiso   1.00
O614   O     0.59607   0.36672   0.56149   0.00000  Uiso   1.00
Zn615  Zn    0.50000   0.55104   0.50000   0.00000  Uiso   1.00
Zn616  Zn    0.50000   0.44896   0.50000   0.00000  Uiso   1.00
C617   C     0.75341   0.49995   0.49993   0.00000  Uiso   1.00
C618   C     0.68840   0.53996   0.50890   0.00000  Uiso   1.00
C619   C     0.95747   0.50007   0.49999   0.00000  Uiso   1.00
C620   C     0.70920   0.49993   0.50001   0.00000  Uiso   1.00
C621   C     0.86041   0.35730   0.53101   0.00000  Uiso   1.00
C622   C     0.80625   0.64270   0.46899   0.00000  Uiso   1.00
C623   C     0.80770   0.35731   0.46726   0.00000  Uiso   1.00
C624   C     0.85897   0.64269   0.53274   0.00000  Uiso   1.00
C625   C     0.89397   0.38142   0.55938   0.00000  Uiso   1.00
C626   C     0.77270   0.61858   0.44062   0.00000  Uiso   1.00
C627   C     0.78433   0.38147   0.42672   0.00000  Uiso   1.00
C628   C     0.91325   0.50005   0.50007   0.00000  Uiso   1.00
C629   C     0.88234   0.61853   0.57328   0.00000  Uiso   1.00
C630   C     0.83322   0.50005   0.40634   0.00000  Uiso   1.00
C631   C     0.83345   0.49995   0.59366   0.00000  Uiso   1.00
C632   C     0.83329   0.50008   0.35516   0.00000  Uiso   1.00
C633   C     0.83338   0.49992   0.64484   0.00000  Uiso   1.00
C634   C     0.68756   0.45997   0.49115   0.00000  Uiso   1.00
C635   C     0.97910   0.54003   0.50885   0.00000  Uiso   1.00
C636   C     0.97827   0.46004   0.49110   0.00000  Uiso   1.00
H637   H     0.70339   0.42883   0.48399   0.00000  Uiso   1.00
H638   H     0.96327   0.57117   0.51601   0.00000  Uiso   1.00
H639   H     0.96175   0.42895   0.48382   0.00000  Uiso   1.00
H640   H     0.70492   0.57105   0.51618   0.00000  Uiso   1.00
H641   H     0.88826   0.41248   0.57801   0.00000  Uiso   1.00
H642   H     0.77841   0.58752   0.42199   0.00000  Uiso   1.00
H643   H     0.76915   0.41273   0.43339   0.00000  Uiso   1.00
H644   H     0.89751   0.58727   0.56661   0.00000  Uiso   1.00
N645   N     0.83333   0.61907   0.50000   0.00000  Uiso   1.00
N646   N     0.83333   0.38093   0.50000   0.00000  Uiso   1.00
O647   O     0.77226   0.53821   0.50000   0.00000  Uiso   1.00
O648   O     0.73726   0.63328   0.43851   0.00000  Uiso   1.00
O649   O     0.78253   0.36666   0.38413   0.00000  Uiso   1.00
O650   O     0.88413   0.63334   0.61587   0.00000  Uiso   1.00
O651   O     0.89441   0.46179   0.50000   0.00000  Uiso   1.00
O652   O     0.89441   0.53821   0.50000   0.00000  Uiso   1.00
O653   O     0.77226   0.46179   0.50000   0.00000  Uiso   1.00
O654   O     0.83334   0.53821   0.42845   0.00000  Uiso   1.00
O655   O     0.83333   0.46179   0.57155   0.00000  Uiso   1.00
O656   O     0.83333   0.53821   0.57155   0.00000  Uiso   1.00
O657   O     0.83334   0.46179   0.42845   0.00000  Uiso   1.00
O658   O     0.92940   0.36672   0.56149   0.00000  Uiso   1.00
Zn659  Zn    0.83333   0.55104   0.50000   0.00000  Uiso   1.00
Zn660  Zn    0.83333   0.44896   0.50000   0.00000  Uiso   1.00
C661   C     0.08675   0.83328   0.49993   0.00000  Uiso   1.00
C662   C     0.02173   0.87329   0.50890   0.00000  Uiso   1.00
C663   C     0.29080   0.83340   0.49999   0.00000  Uiso   1.00
C664   C     0.04253   0.83327   0.50001   0.00000  Uiso   1.00
C665   C     0.19374   0.69063   0.53101   0.00000  Uiso   1.00
C666   C     0.13959   0.97604   0.46899   0.00000  Uiso   1.00
C667   C     0.14103   0.69065   0.46726   0.00000  Uiso   1.00
C668   C     0.19230   0.97602   0.53274   0.00000  Uiso   1.00
C669   C     0.22730   0.71476   0.55938   0.00000  Uiso   1.00
C670   C     0.10603   0.95191   0.44062   0.00000  Uiso   1.00
C671   C     0.11766   0.71481   0.42672   0.00000  Uiso   1.00
C672   C     0.24659   0.83338   0.50007   0.00000  Uiso   1.00
C673   C     0.21567   0.95186   0.57328   0.00000  Uiso   1.00
C674   C     0.16655   0.83339   0.40634   0.00000  Uiso   1.00
C675   C     0.16678   0.83328   0.59366   0.00000  Uiso   1.00
C676   C     0.16662   0.83341   0.35516   0.00000  Uiso   1.00
C677   C     0.16671   0.83326   0.64484   0.00000  Uiso   1.00
C678   C     0.02090   0.79330   0.49115   0.00000  Uiso   1.00
C679   C     0.31244   0.87337   0.50885   0.00000  Uiso   1.00
C680   C     0.31160   0.79337   0.49110   0.00000  Uiso   1.00
H681   H     0.03673   0.76216   0.48399   0.00000  Uiso   1.00
H682   H     0.29661   0.90451   0.51601   0.00000  Uiso   1.00
H683   H     0.29508   0.76228   0.48382   0.00000  Uiso   1.00
H684   H     0.03825   0.90439   0.51618   0.00000  Uiso   1.00
H685   H     0.22159   0.74581   0.57801   0.00000  Uiso   1.00
H686   H     0.11174   0.92086   0.42199   0.00000  Uiso   1.00
H687   H     0.10249   0.74606   0.43339   0.00000  Uiso   1.00
H688   H     0.23084   0.92060   0.56661   0.00000  Uiso   1.00
N689   N     0.16667   0.95240   0.50000   0.00000  Uiso   1.00
N690   N     0.16667   0.71427   0.50000   0.00000  Uiso   1.00
O691   O     0.10559   0.87154   0.50000   0.00000  Uiso   1.00
O692   O     0.07060   0.96661   0.43851   0.00000  Uiso   1.00
O693   O     0.11587   0.69999   0.38413   0.00000  Uiso   1.00
O694   O     0.21747   0.96668   0.61587   0.00000  Uiso   1.00
O695   O     0.22774   0.79513   0.50000   0.00000  Uiso   1.00
O696   O     0.22774   0.87154   0.50000   0.00000  Uiso   1.00
O697   O     0.10559   0.79513   0.50000   0.00000  Uiso   1.00
O698   O     0.16667   0.87155   0.42845   0.00000  Uiso   1.00
O699   O     0.16666   0.79512   0.57155   0.00000  Uiso   1.00
O700   O     0.16666   0.87155   0.57155   0.00000  Uiso   1.00
O701   O     0.16667   0.79512   0.42845   0.00000  Uiso   1.00
O702   O     0.26274   0.70006   0.56149   0.00000  Uiso   1.00
Zn703  Zn    0.16667   0.88437   0.50000   0.00000  Uiso   1.00
Zn704  Zn    0.16667   0.78229   0.50000   0.00000  Uiso   1.00
C705   C     0.42008   0.83328   0.49993   0.00000  Uiso   1.00
C706   C     0.35507   0.87329   0.50890   0.00000  Uiso   1.00
C707   C     0.62413   0.83340   0.49999   0.00000  Uiso   1.00
C708   C     0.37586   0.83327   0.50001   0.00000  Uiso   1.00
C709   C     0.52708   0.69063   0.53101   0.00000  Uiso   1.00
C710   C     0.47292   0.97604   0.46899   0.00000  Uiso   1.00
C711   C     0.47436   0.69065   0.46726   0.00000  Uiso   1.00
C712   C     0.52563   0.97602   0.53274   0.00000  Uiso   1.00
C713   C     0.56063   0.71476   0.55938   0.00000  Uiso   1.00
C714   C     0.43937   0.95191   0.44062   0.00000  Uiso   1.00
C715   C     0.45100   0.71481   0.42672   0.00000  Uiso   1.00
C716   C     0.57992   0.83338   0.50007   0.00000  Uiso   1.00
C717   C     0.54900   0.95186   0.57328   0.00000  Uiso   1.00
C718   C     0.49988   0.83339   0.40634   0.00000  Uiso   1.00
C719   C     0.50012   0.83328   0.59366   0.00000  Uiso   1.00
C720   C     0.49996   0.83341   0.35516   0.00000  Uiso   1.00
C721   C     0.50004   0.83326   0.64484   0.00000  Uiso   1.00
C722   C     0.35423   0.79330   0.49115   0.00000  Uiso   1.00
C723   C     0.64577   0.87337   0.50885   0.00000  Uiso   1.00
C724   C     0.64493   0.79337   0.49110   0.00000  Uiso   1.00
H725   H     0.37006   0.76216   0.48399   0.00000  Uiso   1.00
H726   H     0.62994   0.90451   0.51601   0.00000  Uiso   1.00
H727   H     0.62841   0.76228   0.48382   0.00000  Uiso   1.00
H728   H     0.37159   0.90439   0.51618   0.00000  Uiso   1.00
H729   H     0.55492   0.74581   0.57801   0.00000  Uiso   1.00
H730   H     0.44507   0.92086   0.42199   0.00000  Uiso   1.00
H731   H     0.43582   0.74606   0.43339   0.00000  Uiso   1.00
H732   H     0.56418   0.92060   0.56661   0.00000  Uiso   1.00
N733   N     0.50000   0.95240   0.50000   0.00000  Uiso   1.00
N734   N     0.50000   0.71427   0.50000   0.00000  Uiso   1.00
O735   O     0.43892   0.87154   0.50000   0.00000  Uiso   1.00
O736   O     0.40393   0.96661   0.43851   0.00000  Uiso   1.00
O737   O     0.44920   0.69999   0.38413   0.00000  Uiso   1.00
O738   O     0.55080   0.96668   0.61587   0.00000  Uiso   1.00
O739   O     0.56108   0.79513   0.50000   0.00000  Uiso   1.00
O740   O     0.56108   0.87154   0.50000   0.00000  Uiso   1.00
O741   O     0.43892   0.79513   0.50000   0.00000  Uiso   1.00
O742   O     0.50000   0.87155   0.42845   0.00000  Uiso   1.00
O743   O     0.50000   0.79512   0.57155   0.00000  Uiso   1.00
O744   O     0.50000   0.87155   0.57155   0.00000  Uiso   1.00
O745   O     0.50000   0.79512   0.42845   0.00000  Uiso   1.00
O746   O     0.59607   0.70006   0.56149   0.00000  Uiso   1.00
Zn747  Zn    0.50000   0.88437   0.50000   0.00000  Uiso   1.00
Zn748  Zn    0.50000   0.78229   0.50000   0.00000  Uiso   1.00
C749   C     0.75341   0.83328   0.49993   0.00000  Uiso   1.00
C750   C     0.68840   0.87329   0.50890   0.00000  Uiso   1.00
C751   C     0.95747   0.83340   0.49999   0.00000  Uiso   1.00
C752   C     0.70920   0.83327   0.50001   0.00000  Uiso   1.00
C753   C     0.86041   0.69063   0.53101   0.00000  Uiso   1.00
C754   C     0.80625   0.97604   0.46899   0.00000  Uiso   1.00
C755   C     0.80770   0.69065   0.46726   0.00000  Uiso   1.00
C756   C     0.85897   0.97602   0.53274   0.00000  Uiso   1.00
C757   C     0.89397   0.71476   0.55938   0.00000  Uiso   1.00
C758   C     0.77270   0.95191   0.44062   0.00000  Uiso   1.00
C759   C     0.78433   0.71481   0.42672   0.00000  Uiso   1.00
C760   C     0.91325   0.83338   0.50007   0.00000  Uiso   1.00
C761   C     0.88234   0.95186   0.57328   0.00000  Uiso   1.00
C762   C     0.83322   0.83339   0.40634   0.00000  Uiso   1.00
C763   C     0.83345   0.83328   0.59366   0.00000  Uiso   1.00
C764   C     0.83329   0.83341   0.35516   0.00000  Uiso   1.00
C765   C     0.83338   0.83326   0.64484   0.00000  Uiso   1.00
C766   C     0.68756   0.79330   0.49115   0.00000  Uiso   1.00
C767   C     0.97910   0.87337   0.50885   0.00000  Uiso   1.00
C768   C     0.97827   0.79337   0.49110   0.00000  Uiso   1.00
H769   H     0.70339   0.76216   0.48399   0.00000  Uiso   1.00
H770   H     0.96327   0.90451   0.51601   0.00000  Uiso   1.00
H771   H     0.96175   0.76228   0.48382   0.00000  Uiso   1.00
H772   H     0.70492   0.90439   0.51618   0.00000  Uiso   1.00
H773   H     0.88826   0.74581   0.57801   0.00000  Uiso   1.00
H774   H     0.77841   0.92086   0.42199   0.00000  Uiso   1.00
H775   H     0.76915   0.74606   0.43339   0.00000  Uiso   1.00
H776   H     0.89751   0.92060   0.56661   0.00000  Uiso   1.00
N777   N     0.83333   0.95240   0.50000   0.00000  Uiso   1.00
N778   N     0.83333   0.71427   0.50000   0.00000  Uiso   1.00
O779   O     0.77226   0.87154   0.50000   0.00000  Uiso   1.00
O780   O     0.73726   0.96661   0.43851   0.00000  Uiso   1.00
O781   O     0.78253   0.69999   0.38413   0.00000  Uiso   1.00
O782   O     0.88413   0.96668   0.61587   0.00000  Uiso   1.00
O783   O     0.89441   0.79513   0.50000   0.00000  Uiso   1.00
O784   O     0.89441   0.87154   0.50000   0.00000  Uiso   1.00
O785   O     0.77226   0.79513   0.50000   0.00000  Uiso   1.00
O786   O     0.83334   0.87155   0.42845   0.00000  Uiso   1.00
O787   O     0.83333   0.79512   0.57155   0.00000  Uiso   1.00
O788   O     0.83333   0.87155   0.57155   0.00000  Uiso   1.00
O789   O     0.83334   0.79512   0.42845   0.00000  Uiso   1.00
O790   O     0.92940   0.70006   0.56149   0.00000  Uiso   1.00
Zn791  Zn    0.83333   0.88437   0.50000   0.00000  Uiso   1.00
Zn792  Zn    0.83333   0.78229   0.50000   0.00000  Uiso   1.00
C793   C     0.08675   0.16662   0.83327   0.00000  Uiso   1.00
C794   C     0.02173   0.20663   0.84224   0.00000  Uiso   1.00
C795   C     0.29080   0.16673   0.83332   0.00000  Uiso   1.00
C796   C     0.04253   0.16660   0.83334   0.00000  Uiso   1.00
C797   C     0.19374   0.02396   0.86434   0.00000  Uiso   1.00
C798   C     0.13959   0.30937   0.80232   0.00000  Uiso   1.00
C799   C     0.14103   0.02398   0.80059   0.00000  Uiso   1.00
C800   C     0.19230   0.30935   0.86607   0.00000  Uiso   1.00
C801   C     0.22730   0.04809   0.89271   0.00000  Uiso   1.00
C802   C     0.10603   0.28524   0.77395   0.00000  Uiso   1.00
C803   C     0.11766   0.04814   0.76005   0.00000  Uiso   1.00
C804   C     0.24659   0.16672   0.83340   0.00000  Uiso   1.00
C805   C     0.21567   0.28519   0.90662   0.00000  Uiso   1.00
C806   C     0.16655   0.16672   0.73967   0.00000  Uiso   1.00
C807   C     0.16678   0.16661   0.92699   0.00000  Uiso   1.00
C808   C     0.16662   0.16674   0.68849   0.00000  Uiso   1.00
C809   C     0.16671   0.16659   0.97817   0.00000  Uiso   1.00
C810   C     0.02090   0.12663   0.82448   0.00000  Uiso   1.00
C811   C     0.31244   0.20670   0.84219   0.00000  Uiso   1.00
C812   C     0.31160   0.12671   0.82443   0.00000  Uiso   1.00
H813   H     0.03673   0.09549   0.81732   0.00000  Uiso   1.00
H814   H     0.29661   0.23784   0.84934   0.00000  Uiso   1.00
H815   H     0.29508   0.09561   0.81715   0.00000  Uiso   1.00
H816   H     0.03825   0.23772   0.84951   0.00000  Uiso   1.00
H817   H     0.22159   0.07914   0.91134   0.00000  Uiso   1.00
H818   H     0.11174   0.25419   0.75532   0.00000  Uiso   1.00
H819   H     0.10249   0.07940   0.76673   0.00000  Uiso   1.00
H820   H     0.23084   0.25393   0.89994   0.00000  Uiso   1.00
N821   N     0.16667   0.28573   0.83333   0.00000  Uiso   1.00
N822   N     0.16667   0.04760   0.83333   0.00000  Uiso   1.00
O823   O     0.10559   0.20487   0.83333   0.00000  Uiso   1.00
O824   O     0.07060   0.29994   0.77185   0.00000  Uiso   1.00
O825   O     0.11587   0.03332   0.71747   0.00000  Uiso   1.00
O826   O     0.21747   0.30001   0.94920   0.00000  Uiso   1.00
O827   O     0.22774   0.12846   0.83334   0.00000  Uiso   1.00
O828   O     0.22774   0.20487   0.83334   0.00000  Uiso   1.00
O829   O     0.10559   0.12846   0.83333   0.00000  Uiso   1.00
O830   O     0.16667   0.20488   0.76178   0.00000  Uiso   1.00
O831   O     0.16666   0.12845   0.90489   0.00000  Uiso   1.00
O832   O     0.16666   0.20488   0.90489   0.00000  Uiso   1.00
O833   O     0.16667   0.12845   0.76178   0.00000  Uiso   1.00
O834   O     0.26274   0.03339   0.89482   0.00000  Uiso   1.00
Zn835  Zn    0.16667   0.21771   0.83333   0.00000  Uiso   1.00
Zn836  Zn    0.16667   0.11563   0.83333   0.00000  Uiso   1.00
C837   C     0.42008   0.16662   0.83327   0.00000  Uiso   1.00
C838   C     0.35507   0.20663   0.84224   0.00000  Uiso   1.00
C839   C     0.62413   0.16673   0.83332   0.00000  Uiso   1.00
C840   C     0.37586   0.16660   0.83334   0.00000  Uiso   1.00
C841   C     0.52708   0.02396   0.86434   0.00000  Uiso   1.00
C842   C     0.47292   0.30937   0.80232   0.00000  Uiso   1.00
C843   C     0.47436   0.02398   0.80059   0.00000  Uiso   1.00
C844   C     0.52563   0.30935   0.86607   0.00000  Uiso   1.00
C845   C     0.56063   0.04809   0.89271   0.00000  Uiso   1.00
C846   C     0.43937   0.28524   0.77395   0.00000  Uiso   1.00
C847   C     0.45100   0.04814   0.76005   0.00000  Uiso   1.00
C848   C     0.57992   0.16672   0.83340   0.00000  Uiso   1.00
C849   C     0.54900   0.28519   0.90662   0.00000  Uiso   1.00
C850   C     0.49988   0.16672   0.73967   0.00000  Uiso   1.00
C851   C     0.50012   0.16661   0.92699   0.00000  Uiso   1.00
C852   C     0.49996   0.16674   0.68849   0.00000  Uiso   1.00
C853   C     0.50004   0.16659   0.97817   0.00000  Uiso   1.00
C854   C     0.35423   0.12663   0.82448   0.00000  Uiso   1.00
C855   C     0.64577   0.20670   0.84219   0.00000  Uiso   1.00
C856   C     0.64493   0.12671   0.82443   0.00000  Uiso   1.00
H857   H     0.37006   0.09549   0.81732   0.00000  Uiso   1.00
H858   H     0.62994   0.23784   0.84934   0.00000  Uiso   1.00
H859   H     0.62841   0.09561   0.81715   0.00000  Uiso   1.00
H860   H     0.37159   0.23772   0.84951   0.00000  Uiso   1.00
H861   H     0.55492   0.07914   0.91134   0.00000  Uiso   1.00
H862   H     0.44507   0.25419   0.75532   0.00000  Uiso   1.00
H863   H     0.43582   0.07940   0.76673   0.00000  Uiso   1.00
H864   H     0.56418   0.25393   0.89994   0.00000  Uiso   1.00
N865   N     0.50000   0.28573   0.83333   0.00000  Uiso   1.00
N866   N     0.50000   0.04760   0.83333   0.00000  Uiso   1.00
O867   O     0.43892   0.20487   0.83333   0.00000  Uiso   1.00
O868   O     0.40393   0.29994   0.77185   0.00000  Uiso   1.00
O869   O     0.44920   0.03332   0.71747   0.00000  Uiso   1.00
O870   O     0.55080   0.30001   0.94920   0.00000  Uiso   1.00
O871   O     0.56108   0.12846   0.83334   0.00000  Uiso   1.00
O872   O     0.56108   0.20487   0.83334   0.00000  Uiso   1.00
O873   O     0.43892   0.12846   0.83333   0.00000  Uiso   1.00
O874   O     0.50000   0.20488   0.76178   0.00000  Uiso   1.00
O875   O     0.50000   0.12845   0.90489   0.00000  Uiso   1.00
O876   O     0.50000   0.20488   0.90489   0.00000  Uiso   1.00
O877   O     0.50000   0.12845   0.76178   0.00000  Uiso   1.00
O878   O     0.59607   0.03339   0.89482   0.00000  Uiso   1.00
Zn879  Zn    0.50000   0.21771   0.83333   0.00000  Uiso   1.00
Zn880  Zn    0.50000   0.11563   0.83333   0.00000  Uiso   1.00
C881   C     0.75341   0.16662   0.83327   0.00000  Uiso   1.00
C882   C     0.68840   0.20663   0.84224   0.00000  Uiso   1.00
C883   C     0.95747   0.16673   0.83332   0.00000  Uiso   1.00
C884   C     0.70920   0.16660   0.83334   0.00000  Uiso   1.00
C885   C     0.86041   0.02396   0.86434   0.00000  Uiso   1.00
C886   C     0.80625   0.30937   0.80232   0.00000  Uiso   1.00
C887   C     0.80770   0.02398   0.80059   0.00000  Uiso   1.00
C888   C     0.85897   0.30935   0.86607   0.00000  Uiso   1.00
C889   C     0.89397   0.04809   0.89271   0.00000  Uiso   1.00
C890   C     0.77270   0.28524   0.77395   0.00000  Uiso   1.00
C891   C     0.78433   0.04814   0.76005   0.00000  Uiso   1.00
C892   C     0.91325   0.16672   0.83340   0.00000  Uiso   1.00
C893   C     0.88234   0.28519   0.90662   0.00000  Uiso   1.00
C894   C     0.83322   0.16672   0.73967   0.00000  Uiso   1.00
C895   C     0.83345   0.16661   0.92699   0.00000  Uiso   1.00
C896   C     0.83329   0.16674   0.68849   0.00000  Uiso   1.00
C897   C     0.83338   0.16659   0.97817   0.00000  Uiso   1.00
C898   C     0.68756   0.12663   0.82448   0.00000  Uiso   1.00
C899   C     0.97910   0.20670   0.84219   0.00000  Uiso   1.00
C900   C     0.97827   0.12671   0.82443   0.00000  Uiso   1.00
H901   H     0.70339   0.09549   0.81732   0.00000  Uiso   1.00
H902   H     0.96327   0.23784   0.84934   0.00000  Uiso   1.00
H903   H     0.96175   0.09561   0.81715   0.00000  Uiso   1.00
H904   H     0.70492   0.23772   0.84951   0.00000  Uiso   1.00
H905   H     0.88826   0.07914   0.91134   0.00000  Uiso   1.00
H906   H     0.77841   0.25419   0.75532   0.00000  Uiso   1.00
H907   H     0.76915   0.07940   0.76673   0.00000  Uiso   1.00
H908   H     0.89751   0.25393   0.89994   0.00000  Uiso   1.00
N909   N     0.83333   0.28573   0.83333   0.00000  Uiso   1.00
N910   N     0.83333   0.04760   0.83333   0.00000  Uiso   1.00
O911   O     0.77226   0.20487   0.83333   0.00000  Uiso   1.00
O912   O     0.73726   0.29994   0.77185   0.00000  Uiso   1.00
O913   O     0.78253   0.03332   0.71747   0.00000  Uiso   1.00
O914   O     0.88413   0.30001   0.94920   0.00000  Uiso   1.00
O915   O     0.89441   0.12846   0.83334   0.00000  Uiso   1.00
O916   O     0.89441   0.20487   0.83334   0.00000  Uiso   1.00
O917   O     0.77226   0.12846   0.83333   0.00000  Uiso   1.00
O918   O     0.83334   0.20488   0.76178   0.00000  Uiso   1.00
O919   O     0.83333   0.12845   0.90489   0.00000  Uiso   1.00
O920   O     0.83333   0.20488   0.90489   0.00000  Uiso   1.00
O921   O     0.83334   0.12845   0.76178   0.00000  Uiso   1.00
O922   O     0.92940   0.03339   0.89482   0.00000  Uiso   1.00
Zn923  Zn    0.83333   0.21771   0.83333   0.00000  Uiso   1.00
Zn924  Zn    0.83333   0.11563   0.83333   0.00000  Uiso   1.00
C925   C     0.08675   0.49995   0.83327   0.00000  Uiso   1.00
C926   C     0.02173   0.53996   0.84224   0.00000  Uiso   1.00
C927   C     0.29080   0.50007   0.83332   0.00000  Uiso   1.00
C928   C     0.04253   0.49993   0.83334   0.00000  Uiso   1.00
C929   C     0.19374   0.35730   0.86434   0.00000  Uiso   1.00
C930   C     0.13959   0.64270   0.80232   0.00000  Uiso   1.00
C931   C     0.14103   0.35731   0.80059   0.00000  Uiso   1.00
C932   C     0.19230   0.64269   0.86607   0.00000  Uiso   1.00
C933   C     0.22730   0.38142   0.89271   0.00000  Uiso   1.00
C934   C     0.10603   0.61858   0.77395   0.00000  Uiso   1.00
C935   C     0.11766   0.38147   0.76005   0.00000  Uiso   1.00
C936   C     0.24659   0.50005   0.83340   0.00000  Uiso   1.00
C937   C     0.21567   0.61853   0.90662   0.00000  Uiso   1.00
C938   C     0.16655   0.50005   0.73967   0.00000  Uiso   1.00
C939   C     0.16678   0.49995   0.92699   0.00000  Uiso   1.00
C940   C     0.16662   0.50008   0.68849   0.00000  Uiso   1.00
C941   C     0.16671   0.49992   0.97817   0.00000  Uiso   1.00
C942   C     0.02090   0.45997   0.82448   0.00000  Uiso   1.00
C943   C     0.31244   0.54003   0.84219   0.00000  Uiso   1.00
C944   C     0.31160   0.46004   0.82443   0.00000  Uiso   1.00
H945   H     0.03673   0.42883   0.81732   0.00000  Uiso   1.00
H946   H     0.29661   0.57117   0.84934   0.00000  Uiso   1.00
H947   H     0.29508   0.42895   0.81715   0.00000  Uiso   1.00
H948   H     0.03825   0.57105   0.84951   0.00000  Uiso   1.00
H949   H     0.22159   0.41248   0.91134   0.00000  Uiso   1.00
H950   H     0.11174   0.58752   0.75532   0.00000  Uiso   1.00
H951   H     0.10249   0.41273   0.76673   0.00000  Uiso   1.00
H952   H     0.23084   0.58727   0.89994   0.00000  Uiso   1.00
N953   N     0.16667   0.61907   0.83333   0.00000  Uiso   1.00
N954   N     0.16667   0.38093   0.83333   0.00000  Uiso   1.00
O955   O     0.10559   0.53821   0.83333   0.00000  Uiso   1.00
O956   O     0.07060   0.63328   0.77185   0.00000  Uiso   1.00
O957   O     0.11587   0.36666   0.71747   0.00000  Uiso   1.00
O958   O     0.21747   0.63334   0.94920   0.00000  Uiso   1.00
O959   O     0.22774   0.46179   0.83334   0.00000  Uiso   1.00
O960   O     0.22774   0.53821   0.83334   0.00000  Uiso   1.00
O961   O     0.10559   0.46179   0.83333   0.00000  Uiso   1.00
O962   O     0.16667   0.53821   0.76178   0.00000  Uiso   1.00
O963   O     0.16666   0.46179   0.90489   0.00000  Uiso   1.00
O964   O     0.16666   0.53821   0.90489   0.00000  Uiso   1.00
O965   O     0.16667   0.46179   0.76178   0.00000  Uiso   1.00
O966   O     0.26274   0.36672   0.89482   0.00000  Uiso   1.00
Zn967  Zn    0.16667   0.55104   0.83333   0.00000  Uiso   1.00
Zn968  Zn    0.16667   0.44896   0.83333   0.00000  Uiso   1.00
C969   C     0.42008   0.49995   0.83327   0.00000  Uiso   1.00
C970   C     0.35507   0.53996   0.84224   0.00000  Uiso   1.00
C971   C     0.62413   0.50007   0.83332   0.00000  Uiso   1.00
C972   C     0.37586   0.49993   0.83334   0.00000  Uiso   1.00
C973   C     0.52708   0.35730   0.86434   0.00000  Uiso   1.00
C974   C     0.47292   0.64270   0.80232   0.00000  Uiso   1.00
C975   C     0.47436   0.35731   0.80059   0.00000  Uiso   1.00
C976   C     0.52563   0.64269   0.86607   0.00000  Uiso   1.00
C977   C     0.56063   0.38142   0.89271   0.00000  Uiso   1.00
C978   C     0.43937   0.61858   0.77395   0.00000  Uiso   1.00
C979   C     0.45100   0.38147   0.76005   0.00000  Uiso   1.00
C980   C     0.57992   0.50005   0.83340   0.00000  Uiso   1.00
C981   C     0.54900   0.61853   0.90662   0.00000  Uiso   1.00
C982   C     0.49988   0.50005   0.73967   0.00000  Uiso   1.00
C983   C     0.50012   0.49995   0.92699   0.00000  Uiso   1.00
C984   C     0.49996   0.50008   0.68849   0.00000  Uiso   1.00
C985   C     0.50004   0.49992   0.97817   0.00000  Uiso   1.00
C986   C     0.35423   0.45997   0.82448   0.00000  Uiso   1.00
C987   C     0.64577   0.54003   0.84219   0.00000  Uiso   1.00
C988   C     0.64493   0.46004   0.82443   0.00000  Uiso   1.00
H989   H     0.37006   0.42883   0.81732   0.00000  Uiso   1.00
H990   H     0.62994   0.57117   0.84934   0.00000  Uiso   1.00
H991   H     0.62841   0.42895   0.81715   0.00000  Uiso   1.00
H992   H     0.37159   0.57105   0.84951   0.00000  Uiso   1.00
H993   H     0.55492   0.41248   0.91134   0.00000  Uiso   1.00
H994   H     0.44507   0.58752   0.75532   0.00000  Uiso   1.00
H995   H     0.43582   0.41273   0.76673   0.00000  Uiso   1.00
H996   H     0.56418   0.58727   0.89994   0.00000  Uiso   1.00
N997   N     0.50000   0.61907   0.83333   0.00000  Uiso   1.00
N998   N     0.50000   0.38093   0.83333   0.00000  Uiso   1.00
O999   O     0.43892   0.53821   0.83333   0.00000  Uiso   1.00
O1000  O     0.40393   0.63328   0.77185   0.00000  Uiso   1.00
O1001  O     0.44920   0.36666   0.71747   0.00000  Uiso   1.00
O1002  O     0.55080   0.63334   0.94920   0.00000  Uiso   1.00
O1003  O     0.56108   0.46179   0.83334   0.00000  Uiso   1.00
O1004  O     0.56108   0.53821   0.83334   0.00000  Uiso   1.00
O1005  O     0.43892   0.46179   0.83333   0.00000  Uiso   1.00
O1006  O     0.50000   0.53821   0.76178   0.00000  Uiso   1.00
O1007  O     0.50000   0.46179   0.90489   0.00000  Uiso   1.00
O1008  O     0.50000   0.53821   0.90489   0.00000  Uiso   1.00
O1009  O     0.50000   0.46179   0.76178   0.00000  Uiso   1.00
O1010  O     0.59607   0.36672   0.89482   0.00000  Uiso   1.00
Zn1011 Zn    0.50000   0.55104   0.83333   0.00000  Uiso   1.00
Zn1012 Zn    0.50000   0.44896   0.83333   0.00000  Uiso   1.00
C1013  C     0.75341   0.49995   0.83327   0.00000  Uiso   1.00
C1014  C     0.68840   0.53996   0.84224   0.00000  Uiso   1.00
C1015  C     0.95747   0.50007   0.83332   0.00000  Uiso   1.00
C1016  C     0.70920   0.49993   0.83334   0.00000  Uiso   1.00
C1017  C     0.86041   0.35730   0.86434   0.00000  Uiso   1.00
C1018  C     0.80625   0.64270   0.80232   0.00000  Uiso   1.00
C1019  C     0.80770   0.35731   0.80059   0.00000  Uiso   1.00
C1020  C     0.85897   0.64269   0.86607   0.00000  Uiso   1.00
C1021  C     0.89397   0.38142   0.89271   0.00000  Uiso   1.00
C1022  C     0.77270   0.61858   0.77395   0.00000  Uiso   1.00
C1023  C     0.78433   0.38147   0.76005   0.00000  Uiso   1.00
C1024  C     0.91325   0.50005   0.83340   0.00000  Uiso   1.00
C1025  C     0.88234   0.61853   0.90662   0.00000  Uiso   1.00
C1026  C     0.83322   0.50005   0.73967   0.00000  Uiso   1.00
C1027  C     0.83345   0.49995   0.92699   0.00000  Uiso   1.00
C1028  C     0.83329   0.50008   0.68849   0.00000  Uiso   1.00
C1029  C     0.83338   0.49992   0.97817   0.00000  Uiso   1.00
C1030  C     0.68756   0.45997   0.82448   0.00000  Uiso   1.00
C1031  C     0.97910   0.54003   0.84219   0.00000  Uiso   1.00
C1032  C     0.97827   0.46004   0.82443   0.00000  Uiso   1.00
H1033  H     0.70339   0.42883   0.81732   0.00000  Uiso   1.00
H1034  H     0.96327   0.57117   0.84934   0.00000  Uiso   1.00
H1035  H     0.96175   0.42895   0.81715   0.00000  Uiso   1.00
H1036  H     0.70492   0.57105   0.84951   0.00000  Uiso   1.00
H1037  H     0.88826   0.41248   0.91134   0.00000  Uiso   1.00
H1038  H     0.77841   0.58752   0.75532   0.00000  Uiso   1.00
H1039  H     0.76915   0.41273   0.76673   0.00000  Uiso   1.00
H1040  H     0.89751   0.58727   0.89994   0.00000  Uiso   1.00
N1041  N     0.83333   0.61907   0.83333   0.00000  Uiso   1.00
N1042  N     0.83333   0.38093   0.83333   0.00000  Uiso   1.00
O1043  O     0.77226   0.53821   0.83333   0.00000  Uiso   1.00
O1044  O     0.73726   0.63328   0.77185   0.00000  Uiso   1.00
O1045  O     0.78253   0.36666   0.71747   0.00000  Uiso   1.00
O1046  O     0.88413   0.63334   0.94920   0.00000  Uiso   1.00
O1047  O     0.89441   0.46179   0.83334   0.00000  Uiso   1.00
O1048  O     0.89441   0.53821   0.83334   0.00000  Uiso   1.00
O1049  O     0.77226   0.46179   0.83333   0.00000  Uiso   1.00
O1050  O     0.83334   0.53821   0.76178   0.00000  Uiso   1.00
O1051  O     0.83333   0.46179   0.90489   0.00000  Uiso   1.00
O1052  O     0.83333   0.53821   0.90489   0.00000  Uiso   1.00
O1053  O     0.83334   0.46179   0.76178   0.00000  Uiso   1.00
O1054  O     0.92940   0.36672   0.89482   0.00000  Uiso   1.00
Zn1055 Zn    0.83333   0.55104   0.83333   0.00000  Uiso   1.00
Zn1056 Zn    0.83333   0.44896   0.83333   0.00000  Uiso   1.00
C1057  C     0.08675   0.83328   0.83327   0.00000  Uiso   1.00
C1058  C     0.02173   0.87329   0.84224   0.00000  Uiso   1.00
C1059  C     0.29080   0.83340   0.83332   0.00000  Uiso   1.00
C1060  C     0.04253   0.83327   0.83334   0.00000  Uiso   1.00
C1061  C     0.19374   0.69063   0.86434   0.00000  Uiso   1.00
C1062  C     0.13959   0.97604   0.80232   0.00000  Uiso   1.00
C1063  C     0.14103   0.69065   0.80059   0.00000  Uiso   1.00
C1064  C     0.19230   0.97602   0.86607   0.00000  Uiso   1.00
C1065  C     0.22730   0.71476   0.89271   0.00000  Uiso   1.00
C1066  C     0.10603   0.95191   0.77395   0.00000  Uiso   1.00
C1067  C     0.11766   0.71481   0.76005   0.00000  Uiso   1.00
C1068  C     0.24659   0.83338   0.83340   0.00000  Uiso   1.00
C1069  C     0.21567   0.95186   0.90662   0.00000  Uiso   1.00
C1070  C     0.16655   0.83339   0.73967   0.00000  Uiso   1.00
C1071  C     0.16678   0.83328   0.92699   0.00000  Uiso   1.00
C1072  C     0.16662   0.83341   0.68849   0.00000  Uiso   1.00
C1073  C     0.16671   0.83326   0.97817   0.00000  Uiso   1.00
C1074  C     0.02090   0.79330   0.82448   0.00000  Uiso   1.00
C1075  C     0.31244   0.87337   0.84219   0.00000  Uiso   1.00
C1076  C     0.31160   0.79337   0.82443   0.00000  Uiso   1.00
H1077  H     0.03673   0.76216   0.81732   0.00000  Uiso   1.00
H1078  H     0.29661   0.90451   0.84934   0.00000  Uiso   1.00
H1079  H     0.29508   0.76228   0.81715   0.00000  Uiso   1.00
H1080  H     0.03825   0.90439   0.84951   0.00000  Uiso   1.00
H1081  H     0.22159   0.74581   0.91134   0.00000  Uiso   1.00
H1082  H     0.11174   0.92086   0.75532   0.00000  Uiso   1.00
H1083  H     0.10249   0.74606   0.76673   0.00000  Uiso   1.00
H1084  H     0.23084   0.92060   0.89994   0.00000  Uiso   1.00
N1085  N     0.16667   0.95240   0.83333   0.00000  Uiso   1.00
N1086  N     0.16667   0.71427   0.83333   0.00000  Uiso   1.00
O1087  O     0.10559   0.87154   0.83333   0.00000  Uiso   1.00
O1088  O     0.07060   0.96661   0.77185   0.00000  Uiso   1.00
O1089  O     0.11587   0.69999   0.71747   0.00000  Uiso   1.00
O1090  O     0.21747   0.96668   0.94920   0.00000  Uiso   1.00
O1091  O     0.22774   0.79513   0.83334   0.00000  Uiso   1.00
O1092  O     0.22774   0.87154   0.83334   0.00000  Uiso   1.00
O1093  O     0.10559   0.79513   0.83333   0.00000  Uiso   1.00
O1094  O     0.16667   0.87155   0.76178   0.00000  Uiso   1.00
O1095  O     0.16666   0.79512   0.90489   0.00000  Uiso   1.00
O1096  O     0.16666   0.87155   0.90489   0.00000  Uiso   1.00
O1097  O     0.16667   0.79512   0.76178   0.00000  Uiso   1.00
O1098  O     0.26274   0.70006   0.89482   0.00000  Uiso   1.00
Zn1099 Zn    0.16667   0.88437   0.83333   0.00000  Uiso   1.00
Zn1100 Zn    0.16667   0.78229   0.83333   0.00000  Uiso   1.00
C1101  C     0.42008   0.83328   0.83327   0.00000  Uiso   1.00
C1102  C     0.35507   0.87329   0.84224   0.00000  Uiso   1.00
C1103  C     0.62413   0.83340   0.83332   0.00000  Uiso   1.00
C1104  C     0.37586   0.83327   0.83334   0.00000  Uiso   1.00
C1105  C     0.52708   0.69063   0.86434   0.00000  Uiso   1.00
C1106  C     0.47292   0.97604   0.80232   0.00000  Uiso   1.00
C1107  C     0.47436   0.69065   0.80059   0.00000  Uiso   1.00
C1108  C     0.52563   0.97602   0.86607   0.00000  Uiso   1.00
C1109  C     0.56063   0.71476   0.89271   0.00000  Uiso   1.00
C1110  C     0.43937   0.95191   0.77395   0.00000  Uiso   1.00
C1111  C     0.45100   0.71481   0.76005   0.00000  Uiso   1.00
C1112  C     0.57992   0.83338   0.83340   0.00000  Uiso   1.00
C1113  C     0.54900   0.95186   0.90662   0.00000  Uiso   1.00
C1114  C     0.49988   0.83339   0.73967   0.00000  Uiso   1.00
C1115  C     0.50012   0.83328   0.92699   0.00000  Uiso   1.00
C1116  C     0.49996   0.83341   0.68849   0.00000  Uiso   1.00
C1117  C     0.50004   0.83326   0.97817   0.00000  Uiso   1.00
C1118  C     0.35423   0.79330   0.82448   0.00000  Uiso   1.00
C1119  C     0.64577   0.87337   0.84219   0.00000  Uiso   1.00
C1120  C     0.64493   0.79337   0.82443   0.00000  Uiso   1.00
H1121  H     0.37006   0.76216   0.81732   0.00000  Uiso   1.00
H1122  H     0.62994   0.90451   0.84934   0.00000  Uiso   1.00
H1123  H     0.62841   0.76228   0.81715   0.00000  Uiso   1.00
H1124  H     0.37159   0.90439   0.84951   0.00000  Uiso   1.00
H1125  H     0.55492   0.74581   0.91134   0.00000  Uiso   1.00
H1126  H     0.44507   0.92086   0.75532   0.00000  Uiso   1.00
H1127  H     0.43582   0.74606   0.76673   0.00000  Uiso   1.00
H1128  H     0.56418   0.92060   0.89994   0.00000  Uiso   1.00
N1129  N     0.50000   0.95240   0.83333   0.00000  Uiso   1.00
N1130  N     0.50000   0.71427   0.83333   0.00000  Uiso   1.00
O1131  O     0.43892   0.87154   0.83333   0.00000  Uiso   1.00
O1132  O     0.40393   0.96661   0.77185   0.00000  Uiso   1.00
O1133  O     0.44920   0.69999   0.71747   0.00000  Uiso   1.00
O1134  O     0.55080   0.96668   0.94920   0.00000  Uiso   1.00
O1135  O     0.56108   0.79513   0.83334   0.00000  Uiso   1.00
O1136  O     0.56108   0.87154   0.83334   0.00000  Uiso   1.00
O1137  O     0.43892   0.79513   0.83333   0.00000  Uiso   1.00
O1138  O     0.50000   0.87155   0.76178   0.00000  Uiso   1.00
O1139  O     0.50000   0.79512   0.90489   0.00000  Uiso   1.00
O1140  O     0.50000   0.87155   0.90489   0.00000  Uiso   1.00
O1141  O     0.50000   0.79512   0.76178   0.00000  Uiso   1.00
O1142  O     0.59607   0.70006   0.89482   0.00000  Uiso   1.00
Zn1143 Zn    0.50000   0.88437   0.83333   0.00000  Uiso   1.00
Zn1144 Zn    0.50000   0.78229   0.83333   0.00000  Uiso   1.00
C1145  C     0.75341   0.83328   0.83327   0.00000  Uiso   1.00
C1146  C     0.68840   0.87329   0.84224   0.00000  Uiso   1.00
C1147  C     0.95747   0.83340   0.83332   0.00000  Uiso   1.00
C1148  C     0.70920   0.83327   0.83334   0.00000  Uiso   1.00
C1149  C     0.86041   0.69063   0.86434   0.00000  Uiso   1.00
C1150  C     0.80625   0.97604   0.80232   0.00000  Uiso   1.00
C1151  C     0.80770   0.69065   0.80059   0.00000  Uiso   1.00
C1152  C     0.85897   0.97602   0.86607   0.00000  Uiso   1.00
C1153  C     0.89397   0.71476   0.89271   0.00000  Uiso   1.00
C1154  C     0.77270   0.95191   0.77395   0.00000  Uiso   1.00
C1155  C     0.78433   0.71481   0.76005   0.00000  Uiso   1.00
C1156  C     0.91325   0.83338   0.83340   0.00000  Uiso   1.00
C1157  C     0.88234   0.95186   0.90662   0.00000  Uiso   1.00
C1158  C     0.83322   0.83339   0.73967   0.00000  Uiso   1.00
C1159  C     0.83345   0.83328   0.92699   0.00000  Uiso   1.00
C1160  C     0.83329   0.83341   0.68849   0.00000  Uiso   1.00
C1161  C     0.83338   0.83326   0.97817   0.00000  Uiso   1.00
C1162  C     0.68756   0.79330   0.82448   0.00000  Uiso   1.00
C1163  C     0.97910   0.87337   0.84219   0.00000  Uiso   1.00
C1164  C     0.97827   0.79337   0.82443   0.00000  Uiso   1.00
H1165  H     0.70339   0.76216   0.81732   0.00000  Uiso   1.00
H1166  H     0.96327   0.90451   0.84934   0.00000  Uiso   1.00
H1167  H     0.96175   0.76228   0.81715   0.00000  Uiso   1.00
H1168  H     0.70492   0.90439   0.84951   0.00000  Uiso   1.00
H1169  H     0.88826   0.74581   0.91134   0.00000  Uiso   1.00
H1170  H     0.77841   0.92086   0.75532   0.00000  Uiso   1.00
H1171  H     0.76915   0.74606   0.76673   0.00000  Uiso   1.00
H1172  H     0.89751   0.92060   0.89994   0.00000  Uiso   1.00
N1173  N     0.83333   0.95240   0.83333   0.00000  Uiso   1.00
N1174  N     0.83333   0.71427   0.83333   0.00000  Uiso   1.00
O1175  O     0.77226   0.87154   0.83333   0.00000  Uiso   1.00
O1176  O     0.73726   0.96661   0.77185   0.00000  Uiso   1.00
O1177  O     0.78253   0.69999   0.71747   0.00000  Uiso   1.00
O1178  O     0.88413   0.96668   0.94920   0.00000  Uiso   1.00
O1179  O     0.89441   0.79513   0.83334   0.00000  Uiso   1.00
O1180  O     0.89441   0.87154   0.83334   0.00000  Uiso   1.00
O1181  O     0.77226   0.79513   0.83333   0.00000  Uiso   1.00
O1182  O     0.83334   0.87155   0.76178   0.00000  Uiso   1.00
O1183  O     0.83333   0.79512   0.90489   0.00000  Uiso   1.00
O1184  O     0.83333   0.87155   0.90489   0.00000  Uiso   1.00
O1185  O     0.83334   0.79512   0.76178   0.00000  Uiso   1.00
O1186  O     0.92940   0.70006   0.89482   0.00000  Uiso   1.00
Zn1187 Zn    0.83333   0.88437   0.83333   0.00000  Uiso   1.00
Zn1188 Zn    0.83333   0.78229   0.83333   0.00000  Uiso   1.00
loop_
_geom_bond_atom_site_label_1
_geom_bond_atom_site_label_2
_geom_bond_distance
_geom_bond_site_symmetry_2
_ccdc_geom_bond_type
C1     O37     1.293   .     A
C1     C4      1.421   .     S
C1     O31     1.292   .     A
C2     C4      1.398   .     A
C2     H24     1.083   .     S
C2     C107    1.370   1_455 S
C3     C20     1.398   .     A
C3     C19     1.397   .     A
C3     C12     1.421   .     S
C4     C18     1.397   .     A
C5     C9      1.482   .     S
C5     N30     1.375   .     A
C5     C272    1.434   1_545 S
C6     C10     1.482   .     S
C6     N29     1.375   .     A
C6     C139    1.434   .     S
C7     N30     1.375   .     A
C7     C11     1.482   .     S
C7     C270    1.434   1_545 S
C8     C13     1.482   .     S
C8     N29     1.375   .     A
C8     C137    1.434   .     S
C9     H25     1.074   .     S
C9     O42     1.221   .     D
C10    H26     1.074   .     S
C10    O32     1.221   .     D
C11    H27     1.074   .     S
C11    O33     1.221   .     D
C12    O35     1.292   .     A
C12    O36     1.293   .     A
C13    H28     1.074   .     S
C13    O34     1.221   .     D
C14    O38     1.286   .     A
C14    O41     1.285   .     A
C14    C16     1.367   .     S
C15    O39     1.286   .     A
C15    O40     1.285   .     A
C15    C17     1.367   .     S
C16    C809    1.166   1_554 S
C17    C412    1.166   .     S
C18    H21     1.083   .     S
C18    C108    1.370   1_455 S
C19    H22     1.083   .     S
C19    C46     1.370   .     S
C20    H23     1.083   .     S
C20    C62     1.370   .     S
N29    Zn43    2.033   .     S
N30    Zn44    2.033   .     S
O31    Zn43    1.999   .     S
O35    Zn44    1.999   .     S
O36    Zn43    2.001   .     S
O37    Zn44    2.001   .     S
O38    Zn43    1.950   .     S
O39    Zn44    1.950   .     S
O40    Zn43    1.947   .     S
O41    Zn44    1.947   .     S
C45    O81     1.293   .     A
C45    C48     1.421   .     S
C45    O75     1.292   .     A
C46    C48     1.398   .     A
C46    H68     1.083   .     S
C47    C64     1.398   .     A
C47    C63     1.397   .     A
C47    C56     1.421   .     S
C48    C62     1.397   .     A
C49    C53     1.482   .     S
C49    N74     1.375   .     A
C49    C316    1.434   1_545 S
C50    C54     1.482   .     S
C50    N73     1.375   .     A
C50    C183    1.434   .     S
C51    N74     1.375   .     A
C51    C55     1.482   .     S
C51    C314    1.434   1_545 S
C52    C57     1.482   .     S
C52    N73     1.375   .     A
C52    C181    1.434   .     S
C53    H69     1.074   .     S
C53    O86     1.221   .     D
C54    H70     1.074   .     S
C54    O76     1.221   .     D
C55    H71     1.074   .     S
C55    O77     1.221   .     D
C56    O79     1.292   .     A
C56    O80     1.293   .     A
C57    H72     1.074   .     S
C57    O78     1.221   .     D
C58    O82     1.286   .     A
C58    O85     1.285   .     A
C58    C60     1.367   .     S
C59    O83     1.286   .     A
C59    O84     1.285   .     A
C59    C61     1.367   .     S
C60    C853    1.166   1_554 S
C61    C456    1.166   .     S
C62    H65     1.083   .     S
C63    H66     1.083   .     S
C63    C90     1.370   .     S
C64    H67     1.083   .     S
C64    C106    1.370   .     S
N73    Zn87    2.033   .     S
N74    Zn88    2.033   .     S
O75    Zn87    1.999   .     S
O79    Zn88    1.999   .     S
O80    Zn87    2.001   .     S
O81    Zn88    2.001   .     S
O82    Zn87    1.950   .     S
O83    Zn88    1.950   .     S
O84    Zn87    1.947   .     S
O85    Zn88    1.947   .     S
C89    O125    1.293   .     A
C89    C92     1.421   .     S
C89    O119    1.292   .     A
C90    C92     1.398   .     A
C90    H112    1.083   .     S
C91    C108    1.398   .     A
C91    C107    1.397   .     A
C91    C100    1.421   .     S
C92    C106    1.397   .     A
C93    C97     1.482   .     S
C93    N118    1.375   .     A
C93    C360    1.434   1_545 S
C94    C98     1.482   .     S
C94    N117    1.375   .     A
C94    C227    1.434   .     S
C95    N118    1.375   .     A
C95    C99     1.482   .     S
C95    C358    1.434   1_545 S
C96    C101    1.482   .     S
C96    N117    1.375   .     A
C96    C225    1.434   .     S
C97    H113    1.074   .     S
C97    O130    1.221   .     D
C98    H114    1.074   .     S
C98    O120    1.221   .     D
C99    H115    1.074   .     S
C99    O121    1.221   .     D
C100   O123    1.292   .     A
C100   O124    1.293   .     A
C101   H116    1.074   .     S
C101   O122    1.221   .     D
C102   O126    1.286   .     A
C102   O129    1.285   .     A
C102   C104    1.367   .     S
C103   O127    1.286   .     A
C103   O128    1.285   .     A
C103   C105    1.367   .     S
C104   C897    1.166   1_554 S
C105   C500    1.166   .     S
C106   H109    1.083   .     S
C107   H110    1.083   .     S
C107   C2      1.370   1_655 S
C108   H111    1.083   .     S
C108   C18     1.370   1_655 S
N117   Zn131   2.033   .     S
N118   Zn132   2.033   .     S
O119   Zn131   1.999   .     S
O123   Zn132   1.999   .     S
O124   Zn131   2.001   .     S
O125   Zn132   2.001   .     S
O126   Zn131   1.950   .     S
O127   Zn132   1.950   .     S
O128   Zn131   1.947   .     S
O129   Zn132   1.947   .     S
C133   O169    1.293   .     A
C133   C136    1.421   .     S
C133   O163    1.292   .     A
C134   C136    1.398   .     A
C134   H156    1.083   .     S
C134   C239    1.370   1_455 S
C135   C152    1.398   .     A
C135   C151    1.397   .     A
C135   C144    1.421   .     S
C136   C150    1.397   .     A
C137   C141    1.482   .     S
C137   N162    1.375   .     A
C138   C142    1.482   .     S
C138   N161    1.375   .     A
C138   C271    1.434   .     S
C139   N162    1.375   .     A
C139   C143    1.482   .     S
C140   C145    1.482   .     S
C140   N161    1.375   .     A
C140   C269    1.434   .     S
C141   H157    1.074   .     S
C141   O174    1.221   .     D
C142   H158    1.074   .     S
C142   O164    1.221   .     D
C143   H159    1.074   .     S
C143   O165    1.221   .     D
C144   O167    1.292   .     A
C144   O168    1.293   .     A
C145   H160    1.074   .     S
C145   O166    1.221   .     D
C146   O170    1.286   .     A
C146   O173    1.285   .     A
C146   C148    1.367   .     S
C147   O171    1.286   .     A
C147   O172    1.285   .     A
C147   C149    1.367   .     S
C148   C941    1.166   1_554 S
C149   C544    1.166   .     S
C150   H153    1.083   .     S
C150   C240    1.370   1_455 S
C151   H154    1.083   .     S
C151   C178    1.370   .     S
C152   H155    1.083   .     S
C152   C194    1.370   .     S
N161   Zn175   2.033   .     S
N162   Zn176   2.033   .     S
O163   Zn175   1.999   .     S
O167   Zn176   1.999   .     S
O168   Zn175   2.001   .     S
O169   Zn176   2.001   .     S
O170   Zn175   1.950   .     S
O171   Zn176   1.950   .     S
O172   Zn175   1.947   .     S
O173   Zn176   1.947   .     S
C177   O213    1.293   .     A
C177   C180    1.421   .     S
C177   O207    1.292   .     A
C178   C180    1.398   .     A
C178   H200    1.083   .     S
C179   C196    1.398   .     A
C179   C195    1.397   .     A
C179   C188    1.421   .     S
C180   C194    1.397   .     A
C181   C185    1.482   .     S
C181   N206    1.375   .     A
C182   C186    1.482   .     S
C182   N205    1.375   .     A
C182   C315    1.434   .     S
C183   N206    1.375   .     A
C183   C187    1.482   .     S
C184   C189    1.482   .     S
C184   N205    1.375   .     A
C184   C313    1.434   .     S
C185   H201    1.074   .     S
C185   O218    1.221   .     D
C186   H202    1.074   .     S
C186   O208    1.221   .     D
C187   H203    1.074   .     S
C187   O209    1.221   .     D
C188   O211    1.292   .     A
C188   O212    1.293   .     A
C189   H204    1.074   .     S
C189   O210    1.221   .     D
C190   O214    1.286   .     A
C190   O217    1.285   .     A
C190   C192    1.367   .     S
C191   O215    1.286   .     A
C191   O216    1.285   .     A
C191   C193    1.367   .     S
C192   C985    1.166   1_554 S
C193   C588    1.166   .     S
C194   H197    1.083   .     S
C195   H198    1.083   .     S
C195   C222    1.370   .     S
C196   H199    1.083   .     S
C196   C238    1.370   .     S
N205   Zn219   2.033   .     S
N206   Zn220   2.033   .     S
O207   Zn219   1.999   .     S
O211   Zn220   1.999   .     S
O212   Zn219   2.001   .     S
O213   Zn220   2.001   .     S
O214   Zn219   1.950   .     S
O215   Zn220   1.950   .     S
O216   Zn219   1.947   .     S
O217   Zn220   1.947   .     S
C221   O257    1.293   .     A
C221   C224    1.421   .     S
C221   O251    1.292   .     A
C222   C224    1.398   .     A
C222   H244    1.083   .     S
C223   C240    1.398   .     A
C223   C239    1.397   .     A
C223   C232    1.421   .     S
C224   C238    1.397   .     A
C225   C229    1.482   .     S
C225   N250    1.375   .     A
C226   C230    1.482   .     S
C226   N249    1.375   .     A
C226   C359    1.434   .     S
C227   N250    1.375   .     A
C227   C231    1.482   .     S
C228   C233    1.482   .     S
C228   N249    1.375   .     A
C228   C357    1.434   .     S
C229   H245    1.074   .     S
C229   O262    1.221   .     D
C230   H246    1.074   .     S
C230   O252    1.221   .     D
C231   H247    1.074   .     S
C231   O253    1.221   .     D
C232   O255    1.292   .     A
C232   O256    1.293   .     A
C233   H248    1.074   .     S
C233   O254    1.221   .     D
C234   O258    1.286   .     A
C234   O261    1.285   .     A
C234   C236    1.367   .     S
C235   O259    1.286   .     A
C235   O260    1.285   .     A
C235   C237    1.367   .     S
C236   C1029   1.166   1_554 S
C237   C632    1.166   .     S
C238   H241    1.083   .     S
C239   H242    1.083   .     S
C239   C134    1.370   1_655 S
C240   H243    1.083   .     S
C240   C150    1.370   1_655 S
N249   Zn263   2.033   .     S
N250   Zn264   2.033   .     S
O251   Zn263   1.999   .     S
O255   Zn264   1.999   .     S
O256   Zn263   2.001   .     S
O257   Zn264   2.001   .     S
O258   Zn263   1.950   .     S
O259   Zn264   1.950   .     S
O260   Zn263   1.947   .     S
O261   Zn264   1.947   .     S
C265   O301    1.293   .     A
C265   C268    1.421   .     S
C265   O295    1.292   .     A
C266   C268    1.398   .     A
C266   H288    1.083   .     S
C266   C371    1.370   1_455 S
C267   C284    1.398   .     A
C267   C283    1.397   .     A
C267   C276    1.421   .     S
C268   C282    1.397   .     A
C269   C273    1.482   .     S
C269   N294    1.375   .     A
C270   C274    1.482   .     S
C270   N293    1.375   .     A
C270   C7      1.434   1_565 S
C271   N294    1.375   .     A
C271   C275    1.482   .     S
C272   C277    1.482   .     S
C272   N293    1.375   .     A
C272   C5      1.434   1_565 S
C273   H289    1.074   .     S
C273   O306    1.221   .     D
C274   H290    1.074   .     S
C274   O296    1.221   .     D
C275   H291    1.074   .     S
C275   O297    1.221   .     D
C276   O299    1.292   .     A
C276   O300    1.293   .     A
C277   H292    1.074   .     S
C277   O298    1.221   .     D
C278   O302    1.286   .     A
C278   O305    1.285   .     A
C278   C280    1.367   .     S
C279   O303    1.286   .     A
C279   O304    1.285   .     A
C279   C281    1.367   .     S
C280   C1073   1.166   1_554 S
C281   C676    1.166   .     S
C282   H285    1.083   .     S
C282   C372    1.370   1_455 S
C283   H286    1.083   .     S
C283   C310    1.370   .     S
C284   H287    1.083   .     S
C284   C326    1.370   .     S
N293   Zn307   2.033   .     S
N294   Zn308   2.033   .     S
O295   Zn307   1.999   .     S
O299   Zn308   1.999   .     S
O300   Zn307   2.001   .     S
O301   Zn308   2.001   .     S
O302   Zn307   1.950   .     S
O303   Zn308   1.950   .     S
O304   Zn307   1.947   .     S
O305   Zn308   1.947   .     S
C309   O345    1.293   .     A
C309   C312    1.421   .     S
C309   O339    1.292   .     A
C310   C312    1.398   .     A
C310   H332    1.083   .     S
C311   C328    1.398   .     A
C311   C327    1.397   .     A
C311   C320    1.421   .     S
C312   C326    1.397   .     A
C313   C317    1.482   .     S
C313   N338    1.375   .     A
C314   C318    1.482   .     S
C314   N337    1.375   .     A
C314   C51     1.434   1_565 S
C315   N338    1.375   .     A
C315   C319    1.482   .     S
C316   C321    1.482   .     S
C316   N337    1.375   .     A
C316   C49     1.434   1_565 S
C317   H333    1.074   .     S
C317   O350    1.221   .     D
C318   H334    1.074   .     S
C318   O340    1.221   .     D
C319   H335    1.074   .     S
C319   O341    1.221   .     D
C320   O343    1.292   .     A
C320   O344    1.293   .     A
C321   H336    1.074   .     S
C321   O342    1.221   .     D
C322   O346    1.286   .     A
C322   O349    1.285   .     A
C322   C324    1.367   .     S
C323   O347    1.286   .     A
C323   O348    1.285   .     A
C323   C325    1.367   .     S
C324   C1117   1.166   1_554 S
C325   C720    1.166   .     S
C326   H329    1.083   .     S
C327   H330    1.083   .     S
C327   C354    1.370   .     S
C328   H331    1.083   .     S
C328   C370    1.370   .     S
N337   Zn351   2.033   .     S
N338   Zn352   2.033   .     S
O339   Zn351   1.999   .     S
O343   Zn352   1.999   .     S
O344   Zn351   2.001   .     S
O345   Zn352   2.001   .     S
O346   Zn351   1.950   .     S
O347   Zn352   1.950   .     S
O348   Zn351   1.947   .     S
O349   Zn352   1.947   .     S
C353   O389    1.293   .     A
C353   C356    1.421   .     S
C353   O383    1.292   .     A
C354   C356    1.398   .     A
C354   H376    1.083   .     S
C355   C372    1.398   .     A
C355   C371    1.397   .     A
C355   C364    1.421   .     S
C356   C370    1.397   .     A
C357   C361    1.482   .     S
C357   N382    1.375   .     A
C358   C362    1.482   .     S
C358   N381    1.375   .     A
C358   C95     1.434   1_565 S
C359   N382    1.375   .     A
C359   C363    1.482   .     S
C360   C365    1.482   .     S
C360   N381    1.375   .     A
C360   C93     1.434   1_565 S
C361   H377    1.074   .     S
C361   O394    1.221   .     D
C362   H378    1.074   .     S
C362   O384    1.221   .     D
C363   H379    1.074   .     S
C363   O385    1.221   .     D
C364   O387    1.292   .     A
C364   O388    1.293   .     A
C365   H380    1.074   .     S
C365   O386    1.221   .     D
C366   O390    1.286   .     A
C366   O393    1.285   .     A
C366   C368    1.367   .     S
C367   O391    1.286   .     A
C367   O392    1.285   .     A
C367   C369    1.367   .     S
C368   C1161   1.166   1_554 S
C369   C764    1.166   .     S
C370   H373    1.083   .     S
C371   H374    1.083   .     S
C371   C266    1.370   1_655 S
C372   H375    1.083   .     S
C372   C282    1.370   1_655 S
N381   Zn395   2.033   .     S
N382   Zn396   2.033   .     S
O383   Zn395   1.999   .     S
O387   Zn396   1.999   .     S
O388   Zn395   2.001   .     S
O389   Zn396   2.001   .     S
O390   Zn395   1.950   .     S
O391   Zn396   1.950   .     S
O392   Zn395   1.947   .     S
O393   Zn396   1.947   .     S
C397   O433    1.293   .     A
C397   C400    1.421   .     S
C397   O427    1.292   .     A
C398   C400    1.398   .     A
C398   H420    1.083   .     S
C398   C503    1.370   1_455 S
C399   C416    1.398   .     A
C399   C415    1.397   .     A
C399   C408    1.421   .     S
C400   C414    1.397   .     A
C401   C405    1.482   .     S
C401   N426    1.375   .     A
C401   C668    1.434   1_545 S
C402   C406    1.482   .     S
C402   N425    1.375   .     A
C402   C535    1.434   .     S
C403   N426    1.375   .     A
C403   C407    1.482   .     S
C403   C666    1.434   1_545 S
C404   C409    1.482   .     S
C404   N425    1.375   .     A
C404   C533    1.434   .     S
C405   H421    1.074   .     S
C405   O438    1.221   .     D
C406   H422    1.074   .     S
C406   O428    1.221   .     D
C407   H423    1.074   .     S
C407   O429    1.221   .     D
C408   O431    1.292   .     A
C408   O432    1.293   .     A
C409   H424    1.074   .     S
C409   O430    1.221   .     D
C410   O434    1.286   .     A
C410   O437    1.285   .     A
C410   C412    1.367   .     S
C411   O435    1.286   .     A
C411   O436    1.285   .     A
C411   C413    1.367   .     S
C413   C808    1.166   .     S
C414   H417    1.083   .     S
C414   C504    1.370   1_455 S
C415   H418    1.083   .     S
C415   C442    1.370   .     S
C416   H419    1.083   .     S
C416   C458    1.370   .     S
N425   Zn439   2.033   .     S
N426   Zn440   2.033   .     S
O427   Zn439   1.999   .     S
O431   Zn440   1.999   .     S
O432   Zn439   2.001   .     S
O433   Zn440   2.001   .     S
O434   Zn439   1.950   .     S
O435   Zn440   1.950   .     S
O436   Zn439   1.947   .     S
O437   Zn440   1.947   .     S
C441   O477    1.293   .     A
C441   C444    1.421   .     S
C441   O471    1.292   .     A
C442   C444    1.398   .     A
C442   H464    1.083   .     S
C443   C460    1.398   .     A
C443   C459    1.397   .     A
C443   C452    1.421   .     S
C444   C458    1.397   .     A
C445   C449    1.482   .     S
C445   N470    1.375   .     A
C445   C712    1.434   1_545 S
C446   C450    1.482   .     S
C446   N469    1.375   .     A
C446   C579    1.434   .     S
C447   N470    1.375   .     A
C447   C451    1.482   .     S
C447   C710    1.434   1_545 S
C448   C453    1.482   .     S
C448   N469    1.375   .     A
C448   C577    1.434   .     S
C449   H465    1.074   .     S
C449   O482    1.221   .     D
C450   H466    1.074   .     S
C450   O472    1.221   .     D
C451   H467    1.074   .     S
C451   O473    1.221   .     D
C452   O475    1.292   .     A
C452   O476    1.293   .     A
C453   H468    1.074   .     S
C453   O474    1.221   .     D
C454   O478    1.286   .     A
C454   O481    1.285   .     A
C454   C456    1.367   .     S
C455   O479    1.286   .     A
C455   O480    1.285   .     A
C455   C457    1.367   .     S
C457   C852    1.166   .     S
C458   H461    1.083   .     S
C459   H462    1.083   .     S
C459   C486    1.370   .     S
C460   H463    1.083   .     S
C460   C502    1.370   .     S
N469   Zn483   2.033   .     S
N470   Zn484   2.033   .     S
O471   Zn483   1.999   .     S
O475   Zn484   1.999   .     S
O476   Zn483   2.001   .     S
O477   Zn484   2.001   .     S
O478   Zn483   1.950   .     S
O479   Zn484   1.950   .     S
O480   Zn483   1.947   .     S
O481   Zn484   1.947   .     S
C485   O521    1.293   .     A
C485   C488    1.421   .     S
C485   O515    1.292   .     A
C486   C488    1.398   .     A
C486   H508    1.083   .     S
C487   C504    1.398   .     A
C487   C503    1.397   .     A
C487   C496    1.421   .     S
C488   C502    1.397   .     A
C489   C493    1.482   .     S
C489   N514    1.375   .     A
C489   C756    1.434   1_545 S
C490   C494    1.482   .     S
C490   N513    1.375   .     A
C490   C623    1.434   .     S
C491   N514    1.375   .     A
C491   C495    1.482   .     S
C491   C754    1.434   1_545 S
C492   C497    1.482   .     S
C492   N513    1.375   .     A
C492   C621    1.434   .     S
C493   H509    1.074   .     S
C493   O526    1.221   .     D
C494   H510    1.074   .     S
C494   O516    1.221   .     D
C495   H511    1.074   .     S
C495   O517    1.221   .     D
C496   O519    1.292   .     A
C496   O520    1.293   .     A
C497   H512    1.074   .     S
C497   O518    1.221   .     D
C498   O522    1.286   .     A
C498   O525    1.285   .     A
C498   C500    1.367   .     S
C499   O523    1.286   .     A
C499   O524    1.285   .     A
C499   C501    1.367   .     S
C501   C896    1.166   .     S
C502   H505    1.083   .     S
C503   H506    1.083   .     S
C503   C398    1.370   1_655 S
C504   H507    1.083   .     S
C504   C414    1.370   1_655 S
N513   Zn527   2.033   .     S
N514   Zn528   2.033   .     S
O515   Zn527   1.999   .     S
O519   Zn528   1.999   .     S
O520   Zn527   2.001   .     S
O521   Zn528   2.001   .     S
O522   Zn527   1.950   .     S
O523   Zn528   1.950   .     S
O524   Zn527   1.947   .     S
O525   Zn528   1.947   .     S
C529   O565    1.293   .     A
C529   C532    1.421   .     S
C529   O559    1.292   .     A
C530   C532    1.398   .     A
C530   H552    1.083   .     S
C530   C635    1.370   1_455 S
C531   C548    1.398   .     A
C531   C547    1.397   .     A
C531   C540    1.421   .     S
C532   C546    1.397   .     A
C533   C537    1.482   .     S
C533   N558    1.375   .     A
C534   C538    1.482   .     S
C534   N557    1.375   .     A
C534   C667    1.434   .     S
C535   N558    1.375   .     A
C535   C539    1.482   .     S
C536   C541    1.482   .     S
C536   N557    1.375   .     A
C536   C665    1.434   .     S
C537   H553    1.074   .     S
C537   O570    1.221   .     D
C538   H554    1.074   .     S
C538   O560    1.221   .     D
C539   H555    1.074   .     S
C539   O561    1.221   .     D
C540   O563    1.292   .     A
C540   O564    1.293   .     A
C541   H556    1.074   .     S
C541   O562    1.221   .     D
C542   O566    1.286   .     A
C542   O569    1.285   .     A
C542   C544    1.367   .     S
C543   O567    1.286   .     A
C543   O568    1.285   .     A
C543   C545    1.367   .     S
C545   C940    1.166   .     S
C546   H549    1.083   .     S
C546   C636    1.370   1_455 S
C547   H550    1.083   .     S
C547   C574    1.370   .     S
C548   H551    1.083   .     S
C548   C590    1.370   .     S
N557   Zn571   2.033   .     S
N558   Zn572   2.033   .     S
O559   Zn571   1.999   .     S
O563   Zn572   1.999   .     S
O564   Zn571   2.001   .     S
O565   Zn572   2.001   .     S
O566   Zn571   1.950   .     S
O567   Zn572   1.950   .     S
O568   Zn571   1.947   .     S
O569   Zn572   1.947   .     S
C573   O609    1.293   .     A
C573   C576    1.421   .     S
C573   O603    1.292   .     A
C574   C576    1.398   .     A
C574   H596    1.083   .     S
C575   C592    1.398   .     A
C575   C591    1.397   .     A
C575   C584    1.421   .     S
C576   C590    1.397   .     A
C577   C581    1.482   .     S
C577   N602    1.375   .     A
C578   C582    1.482   .     S
C578   N601    1.375   .     A
C578   C711    1.434   .     S
C579   N602    1.375   .     A
C579   C583    1.482   .     S
C580   C585    1.482   .     S
C580   N601    1.375   .     A
C580   C709    1.434   .     S
C581   H597    1.074   .     S
C581   O614    1.221   .     D
C582   H598    1.074   .     S
C582   O604    1.221   .     D
C583   H599    1.074   .     S
C583   O605    1.221   .     D
C584   O607    1.292   .     A
C584   O608    1.293   .     A
C585   H600    1.074   .     S
C585   O606    1.221   .     D
C586   O610    1.286   .     A
C586   O613    1.285   .     A
C586   C588    1.367   .     S
C587   O611    1.286   .     A
C587   O612    1.285   .     A
C587   C589    1.367   .     S
C589   C984    1.166   .     S
C590   H593    1.083   .     S
C591   H594    1.083   .     S
C591   C618    1.370   .     S
C592   H595    1.083   .     S
C592   C634    1.370   .     S
N601   Zn615   2.033   .     S
N602   Zn616   2.033   .     S
O603   Zn615   1.999   .     S
O607   Zn616   1.999   .     S
O608   Zn615   2.001   .     S
O609   Zn616   2.001   .     S
O610   Zn615   1.950   .     S
O611   Zn616   1.950   .     S
O612   Zn615   1.947   .     S
O613   Zn616   1.947   .     S
C617   O653    1.293   .     A
C617   C620    1.421   .     S
C617   O647    1.292   .     A
C618   C620    1.398   .     A
C618   H640    1.083   .     S
C619   C636    1.398   .     A
C619   C635    1.397   .     A
C619   C628    1.421   .     S
C620   C634    1.397   .     A
C621   C625    1.482   .     S
C621   N646    1.375   .     A
C622   C626    1.482   .     S
C622   N645    1.375   .     A
C622   C755    1.434   .     S
C623   N646    1.375   .     A
C623   C627    1.482   .     S
C624   C629    1.482   .     S
C624   N645    1.375   .     A
C624   C753    1.434   .     S
C625   H641    1.074   .     S
C625   O658    1.221   .     D
C626   H642    1.074   .     S
C626   O648    1.221   .     D
C627   H643    1.074   .     S
C627   O649    1.221   .     D
C628   O651    1.292   .     A
C628   O652    1.293   .     A
C629   H644    1.074   .     S
C629   O650    1.221   .     D
C630   O654    1.286   .     A
C630   O657    1.285   .     A
C630   C632    1.367   .     S
C631   O655    1.286   .     A
C631   O656    1.285   .     A
C631   C633    1.367   .     S
C633   C1028   1.166   .     S
C634   H637    1.083   .     S
C635   H638    1.083   .     S
C635   C530    1.370   1_655 S
C636   H639    1.083   .     S
C636   C546    1.370   1_655 S
N645   Zn659   2.033   .     S
N646   Zn660   2.033   .     S
O647   Zn659   1.999   .     S
O651   Zn660   1.999   .     S
O652   Zn659   2.001   .     S
O653   Zn660   2.001   .     S
O654   Zn659   1.950   .     S
O655   Zn660   1.950   .     S
O656   Zn659   1.947   .     S
O657   Zn660   1.947   .     S
C661   O697    1.293   .     A
C661   C664    1.421   .     S
C661   O691    1.292   .     A
C662   C664    1.398   .     A
C662   H684    1.083   .     S
C662   C767    1.370   1_455 S
C663   C680    1.398   .     A
C663   C679    1.397   .     A
C663   C672    1.421   .     S
C664   C678    1.397   .     A
C665   C669    1.482   .     S
C665   N690    1.375   .     A
C666   C670    1.482   .     S
C666   N689    1.375   .     A
C666   C403    1.434   1_565 S
C667   N690    1.375   .     A
C667   C671    1.482   .     S
C668   C673    1.482   .     S
C668   N689    1.375   .     A
C668   C401    1.434   1_565 S
C669   H685    1.074   .     S
C669   O702    1.221   .     D
C670   H686    1.074   .     S
C670   O692    1.221   .     D
C671   H687    1.074   .     S
C671   O693    1.221   .     D
C672   O695    1.292   .     A
C672   O696    1.293   .     A
C673   H688    1.074   .     S
C673   O694    1.221   .     D
C674   O698    1.286   .     A
C674   O701    1.285   .     A
C674   C676    1.367   .     S
C675   O699    1.286   .     A
C675   O700    1.285   .     A
C675   C677    1.367   .     S
C677   C1072   1.166   .     S
C678   H681    1.083   .     S
C678   C768    1.370   1_455 S
C679   H682    1.083   .     S
C679   C706    1.370   .     S
C680   H683    1.083   .     S
C680   C722    1.370   .     S
N689   Zn703   2.033   .     S
N690   Zn704   2.033   .     S
O691   Zn703   1.999   .     S
O695   Zn704   1.999   .     S
O696   Zn703   2.001   .     S
O697   Zn704   2.001   .     S
O698   Zn703   1.950   .     S
O699   Zn704   1.950   .     S
O700   Zn703   1.947   .     S
O701   Zn704   1.947   .     S
C705   O741    1.293   .     A
C705   C708    1.421   .     S
C705   O735    1.292   .     A
C706   C708    1.398   .     A
C706   H728    1.083   .     S
C707   C724    1.398   .     A
C707   C723    1.397   .     A
C707   C716    1.421   .     S
C708   C722    1.397   .     A
C709   C713    1.482   .     S
C709   N734    1.375   .     A
C710   C714    1.482   .     S
C710   N733    1.375   .     A
C710   C447    1.434   1_565 S
C711   N734    1.375   .     A
C711   C715    1.482   .     S
C712   C717    1.482   .     S
C712   N733    1.375   .     A
C712   C445    1.434   1_565 S
C713   H729    1.074   .     S
C713   O746    1.221   .     D
C714   H730    1.074   .     S
C714   O736    1.221   .     D
C715   H731    1.074   .     S
C715   O737    1.221   .     D
C716   O739    1.292   .     A
C716   O740    1.293   .     A
C717   H732    1.074   .     S
C717   O738    1.221   .     D
C718   O742    1.286   .     A
C718   O745    1.285   .     A
C718   C720    1.367   .     S
C719   O743    1.286   .     A
C719   O744    1.285   .     A
C719   C721    1.367   .     S
C721   C1116   1.166   .     S
C722   H725    1.083   .     S
C723   H726    1.083   .     S
C723   C750    1.370   .     S
C724   H727    1.083   .     S
C724   C766    1.370   .     S
N733   Zn747   2.033   .     S
N734   Zn748   2.033   .     S
O735   Zn747   1.999   .     S
O739   Zn748   1.999   .     S
O740   Zn747   2.001   .     S
O741   Zn748   2.001   .     S
O742   Zn747   1.950   .     S
O743   Zn748   1.950   .     S
O744   Zn747   1.947   .     S
O745   Zn748   1.947   .     S
C749   O785    1.293   .     A
C749   C752    1.421   .     S
C749   O779    1.292   .     A
C750   C752    1.398   .     A
C750   H772    1.083   .     S
C751   C768    1.398   .     A
C751   C767    1.397   .     A
C751   C760    1.421   .     S
C752   C766    1.397   .     A
C753   C757    1.482   .     S
C753   N778    1.375   .     A
C754   C758    1.482   .     S
C754   N777    1.375   .     A
C754   C491    1.434   1_565 S
C755   N778    1.375   .     A
C755   C759    1.482   .     S
C756   C761    1.482   .     S
C756   N777    1.375   .     A
C756   C489    1.434   1_565 S
C757   H773    1.074   .     S
C757   O790    1.221   .     D
C758   H774    1.074   .     S
C758   O780    1.221   .     D
C759   H775    1.074   .     S
C759   O781    1.221   .     D
C760   O783    1.292   .     A
C760   O784    1.293   .     A
C761   H776    1.074   .     S
C761   O782    1.221   .     D
C762   O786    1.286   .     A
C762   O789    1.285   .     A
C762   C764    1.367   .     S
C763   O787    1.286   .     A
C763   O788    1.285   .     A
C763   C765    1.367   .     S
C765   C1160   1.166   .     S
C766   H769    1.083   .     S
C767   H770    1.083   .     S
C767   C662    1.370   1_655 S
C768   H771    1.083   .     S
C768   C678    1.370   1_655 S
N777   Zn791   2.033   .     S
N778   Zn792   2.033   .     S
O779   Zn791   1.999   .     S
O783   Zn792   1.999   .     S
O784   Zn791   2.001   .     S
O785   Zn792   2.001   .     S
O786   Zn791   1.950   .     S
O787   Zn792   1.950   .     S
O788   Zn791   1.947   .     S
O789   Zn792   1.947   .     S
C793   O829    1.293   .     A
C793   C796    1.421   .     S
C793   O823    1.292   .     A
C794   C796    1.398   .     A
C794   H816    1.083   .     S
C794   C899    1.370   1_455 S
C795   C812    1.398   .     A
C795   C811    1.397   .     A
C795   C804    1.421   .     S
C796   C810    1.397   .     A
C797   C801    1.482   .     S
C797   N822    1.375   .     A
C797   C1064   1.434   1_545 S
C798   C802    1.482   .     S
C798   N821    1.375   .     A
C798   C931    1.434   .     S
C799   N822    1.375   .     A
C799   C803    1.482   .     S
C799   C1062   1.434   1_545 S
C800   C805    1.482   .     S
C800   N821    1.375   .     A
C800   C929    1.434   .     S
C801   H817    1.074   .     S
C801   O834    1.221   .     D
C802   H818    1.074   .     S
C802   O824    1.221   .     D
C803   H819    1.074   .     S
C803   O825    1.221   .     D
C804   O827    1.292   .     A
C804   O828    1.293   .     A
C805   H820    1.074   .     S
C805   O826    1.221   .     D
C806   O830    1.286   .     A
C806   O833    1.285   .     A
C806   C808    1.367   .     S
C807   O831    1.286   .     A
C807   O832    1.285   .     A
C807   C809    1.367   .     S
C809   C16     1.166   1_556 S
C810   H813    1.083   .     S
C810   C900    1.370   1_455 S
C811   H814    1.083   .     S
C811   C838    1.370   .     S
C812   H815    1.083   .     S
C812   C854    1.370   .     S
N821   Zn835   2.033   .     S
N822   Zn836   2.033   .     S
O823   Zn835   1.999   .     S
O827   Zn836   1.999   .     S
O828   Zn835   2.001   .     S
O829   Zn836   2.001   .     S
O830   Zn835   1.950   .     S
O831   Zn836   1.950   .     S
O832   Zn835   1.947   .     S
O833   Zn836   1.947   .     S
C837   O873    1.293   .     A
C837   C840    1.421   .     S
C837   O867    1.292   .     A
C838   C840    1.398   .     A
C838   H860    1.083   .     S
C839   C856    1.398   .     A
C839   C855    1.397   .     A
C839   C848    1.421   .     S
C840   C854    1.397   .     A
C841   C845    1.482   .     S
C841   N866    1.375   .     A
C841   C1108   1.434   1_545 S
C842   C846    1.482   .     S
C842   N865    1.375   .     A
C842   C975    1.434   .     S
C843   N866    1.375   .     A
C843   C847    1.482   .     S
C843   C1106   1.434   1_545 S
C844   C849    1.482   .     S
C844   N865    1.375   .     A
C844   C973    1.434   .     S
C845   H861    1.074   .     S
C845   O878    1.221   .     D
C846   H862    1.074   .     S
C846   O868    1.221   .     D
C847   H863    1.074   .     S
C847   O869    1.221   .     D
C848   O871    1.292   .     A
C848   O872    1.293   .     A
C849   H864    1.074   .     S
C849   O870    1.221   .     D
C850   O874    1.286   .     A
C850   O877    1.285   .     A
C850   C852    1.367   .     S
C851   O875    1.286   .     A
C851   O876    1.285   .     A
C851   C853    1.367   .     S
C853   C60     1.166   1_556 S
C854   H857    1.083   .     S
C855   H858    1.083   .     S
C855   C882    1.370   .     S
C856   H859    1.083   .     S
C856   C898    1.370   .     S
N865   Zn879   2.033   .     S
N866   Zn880   2.033   .     S
O867   Zn879   1.999   .     S
O871   Zn880   1.999   .     S
O872   Zn879   2.001   .     S
O873   Zn880   2.001   .     S
O874   Zn879   1.950   .     S
O875   Zn880   1.950   .     S
O876   Zn879   1.947   .     S
O877   Zn880   1.947   .     S
C881   O917    1.293   .     A
C881   C884    1.421   .     S
C881   O911    1.292   .     A
C882   C884    1.398   .     A
C882   H904    1.083   .     S
C883   C900    1.398   .     A
C883   C899    1.397   .     A
C883   C892    1.421   .     S
C884   C898    1.397   .     A
C885   C889    1.482   .     S
C885   N910    1.375   .     A
C885   C1152   1.434   1_545 S
C886   C890    1.482   .     S
C886   N909    1.375   .     A
C886   C1019   1.434   .     S
C887   N910    1.375   .     A
C887   C891    1.482   .     S
C887   C1150   1.434   1_545 S
C888   C893    1.482   .     S
C888   N909    1.375   .     A
C888   C1017   1.434   .     S
C889   H905    1.074   .     S
C889   O922    1.221   .     D
C890   H906    1.074   .     S
C890   O912    1.221   .     D
C891   H907    1.074   .     S
C891   O913    1.221   .     D
C892   O915    1.292   .     A
C892   O916    1.293   .     A
C893   H908    1.074   .     S
C893   O914    1.221   .     D
C894   O918    1.286   .     A
C894   O921    1.285   .     A
C894   C896    1.367   .     S
C895   O919    1.286   .     A
C895   O920    1.285   .     A
C895   C897    1.367   .     S
C897   C104    1.166   1_556 S
C898   H901    1.083   .     S
C899   H902    1.083   .     S
C899   C794    1.370   1_655 S
C900   H903    1.083   .     S
C900   C810    1.370   1_655 S
N909   Zn923   2.033   .     S
N910   Zn924   2.033   .     S
O911   Zn923   1.999   .     S
O915   Zn924   1.999   .     S
O916   Zn923   2.001   .     S
O917   Zn924   2.001   .     S
O918   Zn923   1.950   .     S
O919   Zn924   1.950   .     S
O920   Zn923   1.947   .     S
O921   Zn924   1.947   .     S
C925   O961    1.293   .     A
C925   C928    1.421   .     S
C925   O955    1.292   .     A
C926   C928    1.398   .     A
C926   H948    1.083   .     S
C926   C1031   1.370   1_455 S
C927   C944    1.398   .     A
C927   C943    1.397   .     A
C927   C936    1.421   .     S
C928   C942    1.397   .     A
C929   C933    1.482   .     S
C929   N954    1.375   .     A
C930   C934    1.482   .     S
C930   N953    1.375   .     A
C930   C1063   1.434   .     S
C931   N954    1.375   .     A
C931   C935    1.482   .     S
C932   C937    1.482   .     S
C932   N953    1.375   .     A
C932   C1061   1.434   .     S
C933   H949    1.074   .     S
C933   O966    1.221   .     D
C934   H950    1.074   .     S
C934   O956    1.221   .     D
C935   H951    1.074   .     S
C935   O957    1.221   .     D
C936   O959    1.292   .     A
C936   O960    1.293   .     A
C937   H952    1.074   .     S
C937   O958    1.221   .     D
C938   O962    1.286   .     A
C938   O965    1.285   .     A
C938   C940    1.367   .     S
C939   O963    1.286   .     A
C939   O964    1.285   .     A
C939   C941    1.367   .     S
C941   C148    1.166   1_556 S
C942   H945    1.083   .     S
C942   C1032   1.370   1_455 S
C943   H946    1.083   .     S
C943   C970    1.370   .     S
C944   H947    1.083   .     S
C944   C986    1.370   .     S
N953   Zn967   2.033   .     S
N954   Zn968   2.033   .     S
O955   Zn967   1.999   .     S
O959   Zn968   1.999   .     S
O960   Zn967   2.001   .     S
O961   Zn968   2.001   .     S
O962   Zn967   1.950   .     S
O963   Zn968   1.950   .     S
O964   Zn967   1.947   .     S
O965   Zn968   1.947   .     S
C969   O1005   1.293   .     A
C969   C972    1.421   .     S
C969   O999    1.292   .     A
C970   C972    1.398   .     A
C970   H992    1.083   .     S
C971   C988    1.398   .     A
C971   C987    1.397   .     A
C971   C980    1.421   .     S
C972   C986    1.397   .     A
C973   C977    1.482   .     S
C973   N998    1.375   .     A
C974   C978    1.482   .     S
C974   N997    1.375   .     A
C974   C1107   1.434   .     S
C975   N998    1.375   .     A
C975   C979    1.482   .     S
C976   C981    1.482   .     S
C976   N997    1.375   .     A
C976   C1105   1.434   .     S
C977   H993    1.074   .     S
C977   O1010   1.221   .     D
C978   H994    1.074   .     S
C978   O1000   1.221   .     D
C979   H995    1.074   .     S
C979   O1001   1.221   .     D
C980   O1003   1.292   .     A
C980   O1004   1.293   .     A
C981   H996    1.074   .     S
C981   O1002   1.221   .     D
C982   O1006   1.286   .     A
C982   O1009   1.285   .     A
C982   C984    1.367   .     S
C983   O1007   1.286   .     A
C983   O1008   1.285   .     A
C983   C985    1.367   .     S
C985   C192    1.166   1_556 S
C986   H989    1.083   .     S
C987   H990    1.083   .     S
C987   C1014   1.370   .     S
C988   H991    1.083   .     S
C988   C1030   1.370   .     S
N997   Zn1011  2.033   .     S
N998   Zn1012  2.033   .     S
O999   Zn1011  1.999   .     S
O1003  Zn1012  1.999   .     S
O1004  Zn1011  2.001   .     S
O1005  Zn1012  2.001   .     S
O1006  Zn1011  1.950   .     S
O1007  Zn1012  1.950   .     S
O1008  Zn1011  1.947   .     S
O1009  Zn1012  1.947   .     S
C1013  O1049   1.293   .     A
C1013  C1016   1.421   .     S
C1013  O1043   1.292   .     A
C1014  C1016   1.398   .     A
C1014  H1036   1.083   .     S
C1015  C1032   1.398   .     A
C1015  C1031   1.397   .     A
C1015  C1024   1.421   .     S
C1016  C1030   1.397   .     A
C1017  C1021   1.482   .     S
C1017  N1042   1.375   .     A
C1018  C1022   1.482   .     S
C1018  N1041   1.375   .     A
C1018  C1151   1.434   .     S
C1019  N1042   1.375   .     A
C1019  C1023   1.482   .     S
C1020  C1025   1.482   .     S
C1020  N1041   1.375   .     A
C1020  C1149   1.434   .     S
C1021  H1037   1.074   .     S
C1021  O1054   1.221   .     D
C1022  H1038   1.074   .     S
C1022  O1044   1.221   .     D
C1023  H1039   1.074   .     S
C1023  O1045   1.221   .     D
C1024  O1047   1.292   .     A
C1024  O1048   1.293   .     A
C1025  H1040   1.074   .     S
C1025  O1046   1.221   .     D
C1026  O1050   1.286   .     A
C1026  O1053   1.285   .     A
C1026  C1028   1.367   .     S
C1027  O1051   1.286   .     A
C1027  O1052   1.285   .     A
C1027  C1029   1.367   .     S
C1029  C236    1.166   1_556 S
C1030  H1033   1.083   .     S
C1031  H1034   1.083   .     S
C1031  C926    1.370   1_655 S
C1032  H1035   1.083   .     S
C1032  C942    1.370   1_655 S
N1041  Zn1055  2.033   .     S
N1042  Zn1056  2.033   .     S
O1043  Zn1055  1.999   .     S
O1047  Zn1056  1.999   .     S
O1048  Zn1055  2.001   .     S
O1049  Zn1056  2.001   .     S
O1050  Zn1055  1.950   .     S
O1051  Zn1056  1.950   .     S
O1052  Zn1055  1.947   .     S
O1053  Zn1056  1.947   .     S
C1057  O1093   1.293   .     A
C1057  C1060   1.421   .     S
C1057  O1087   1.292   .     A
C1058  C1060   1.398   .     A
C1058  H1080   1.083   .     S
C1058  C1163   1.370   1_455 S
C1059  C1076   1.398   .     A
C1059  C1075   1.397   .     A
C1059  C1068   1.421   .     S
C1060  C1074   1.397   .     A
C1061  C1065   1.482   .     S
C1061  N1086   1.375   .     A
C1062  C1066   1.482   .     S
C1062  N1085   1.375   .     A
C1062  C799    1.434   1_565 S
C1063  N1086   1.375   .     A
C1063  C1067   1.482   .     S
C1064  C1069   1.482   .     S
C1064  N1085   1.375   .     A
C1064  C797    1.434   1_565 S
C1065  H1081   1.074   .     S
C1065  O1098   1.221   .     D
C1066  H1082   1.074   .     S
C1066  O1088   1.221   .     D
C1067  H1083   1.074   .     S
C1067  O1089   1.221   .     D
C1068  O1091   1.292   .     A
C1068  O1092   1.293   .     A
C1069  H1084   1.074   .     S
C1069  O1090   1.221   .     D
C1070  O1094   1.286   .     A
C1070  O1097   1.285   .     A
C1070  C1072   1.367   .     S
C1071  O1095   1.286   .     A
C1071  O1096   1.285   .     A
C1071  C1073   1.367   .     S
C1073  C280    1.166   1_556 S
C1074  H1077   1.083   .     S
C1074  C1164   1.370   1_455 S
C1075  H1078   1.083   .     S
C1075  C1102   1.370   .     S
C1076  H1079   1.083   .     S
C1076  C1118   1.370   .     S
N1085  Zn1099  2.033   .     S
N1086  Zn1100  2.033   .     S
O1087  Zn1099  1.999   .     S
O1091  Zn1100  1.999   .     S
O1092  Zn1099  2.001   .     S
O1093  Zn1100  2.001   .     S
O1094  Zn1099  1.950   .     S
O1095  Zn1100  1.950   .     S
O1096  Zn1099  1.947   .     S
O1097  Zn1100  1.947   .     S
C1101  O1137   1.293   .     A
C1101  C1104   1.421   .     S
C1101  O1131   1.292   .     A
C1102  C1104   1.398   .     A
C1102  H1124   1.083   .     S
C1103  C1120   1.398   .     A
C1103  C1119   1.397   .     A
C1103  C1112   1.421   .     S
C1104  C1118   1.397   .     A
C1105  C1109   1.482   .     S
C1105  N1130   1.375   .     A
C1106  C1110   1.482   .     S
C1106  N1129   1.375   .     A
C1106  C843    1.434   1_565 S
C1107  N1130   1.375   .     A
C1107  C1111   1.482   .     S
C1108  C1113   1.482   .     S
C1108  N1129   1.375   .     A
C1108  C841    1.434   1_565 S
C1109  H1125   1.074   .     S
C1109  O1142   1.221   .     D
C1110  H1126   1.074   .     S
C1110  O1132   1.221   .     D
C1111  H1127   1.074   .     S
C1111  O1133   1.221   .     D
C1112  O1135   1.292   .     A
C1112  O1136   1.293   .     A
C1113  H1128   1.074   .     S
C1113  O1134   1.221   .     D
C1114  O1138   1.286   .     A
C1114  O1141   1.285   .     A
C1114  C1116   1.367   .     S
C1115  O1139   1.286   .     A
C1115  O1140   1.285   .     A
C1115  C1117   1.367   .     S
C1117  C324    1.166   1_556 S
C1118  H1121   1.083   .     S
C1119  H1122   1.083   .     S
C1119  C1146   1.370   .     S
C1120  H1123   1.083   .     S
C1120  C1162   1.370   .     S
N1129  Zn1143  2.033   .     S
N1130  Zn1144  2.033   .     S
O1131  Zn1143  1.999   .     S
O1135  Zn1144  1.999   .     S
O1136  Zn1143  2.001   .     S
O1137  Zn1144  2.001   .     S
O1138  Zn1143  1.950   .     S
O1139  Zn1144  1.950   .     S
O1140  Zn1143  1.947   .     S
O1141  Zn1144  1.947   .     S
C1145  O1181   1.293   .     A
C1145  C1148   1.421   .     S
C1145  O1175   1.292   .     A
C1146  C1148   1.398   .     A
C1146  H1168   1.083   .     S
C1147  C1164   1.398   .     A
C1147  C1163   1.397   .     A
C1147  C1156   1.421   .     S
C1148  C1162   1.397   .     A
C1149  C1153   1.482   .     S
C1149  N1174   1.375   .     A
C1150  C1154   1.482   .     S
C1150  N1173   1.375   .     A
C1150  C887    1.434   1_565 S
C1151  N1174   1.375   .     A
C1151  C1155   1.482   .     S
C1152  C1157   1.482   .     S
C1152  N1173   1.375   .     A
C1152  C885    1.434   1_565 S
C1153  H1169   1.074   .     S
C1153  O1186   1.221   .     D
C1154  H1170   1.074   .     S
C1154  O1176   1.221   .     D
C1155  H1171   1.074   .     S
C1155  O1177   1.221   .     D
C1156  O1179   1.292   .     A
C1156  O1180   1.293   .     A
C1157  H1172   1.074   .     S
C1157  O1178   1.221   .     D
C1158  O1182   1.286   .     A
C1158  O1185   1.285   .     A
C1158  C1160   1.367   .     S
C1159  O1183   1.286   .     A
C1159  O1184   1.285   .     A
C1159  C1161   1.367   .     S
C1161  C368    1.166   1_556 S
C1162  H1165   1.083   .     S
C1163  H1166   1.083   .     S
C1163  C1058   1.370   1_655 S
C1164  H1167   1.083   .     S
C1164  C1074   1.370   1_655 S
N1173  Zn1187  2.033   .     S
N1174  Zn1188  2.033   .     S
O1175  Zn1187  1.999   .     S
O1179  Zn1188  1.999   .     S
O1180  Zn1187  2.001   .     S
O1181  Zn1188  2.001   .     S
O1182  Zn1187  1.950   .     S
O1183  Zn1188  1.950   .     S
O1184  Zn1187  1.947   .     S
O1185  Zn1188  1.947   .     S
