data_str_m2_o2_o10_pcu_sym.101
_audit_creation_date              2020-01-03
_audit_creation_method            'Materials Studio'
_symmetry_space_group_name_H-M    'P1'
_symmetry_Int_Tables_number       1
_symmetry_cell_setting            triclinic
loop_
_symmetry_equiv_pos_as_xyz
  x,y,z
_cell_length_a                    26.1571
_cell_length_b                    30.2758
_cell_length_c                    27.7285
_cell_angle_alpha                 90.0714
_cell_angle_beta                  98.0917
_cell_angle_gamma                 90.0659
loop_
_atom_site_label
_atom_site_type_symbol
_atom_site_fract_x
_atom_site_fract_y
_atom_site_fract_z
_atom_site_U_iso_or_equiv
_atom_site_adp_type
_atom_site_occupancy
C1     C     0.16667   0.16495   0.24998   0.00000  Uiso   1.00
C2     C     0.18421   0.28814   0.44832   0.00000  Uiso   1.00
C3     C     0.16470   0.25047   0.02694   0.00000  Uiso   1.00
C4     C     0.16573   0.25126   0.47250   0.00000  Uiso   1.00
C5     C     0.06788   0.24996   0.23752   0.00000  Uiso   1.00
C6     C     0.26546   0.25001   0.26249   0.00000  Uiso   1.00
C7     C     0.01258   0.24990   0.23066   0.00000  Uiso   1.00
C8     C     0.32077   0.25002   0.26937   0.00000  Uiso   1.00
C9     C     0.18330   0.04774   0.29318   0.00000  Uiso   1.00
C10    C     0.18182   0.45236   0.21057   0.00000  Uiso   1.00
C11    C     0.18284   0.09364   0.29322   0.00000  Uiso   1.00
C12    C     0.16674   0.33506   0.25004   0.00000  Uiso   1.00
C13    C     0.18142   0.40646   0.21042   0.00000  Uiso   1.00
C14    C     0.16673   0.11673   0.24998   0.00000  Uiso   1.00
C15    C     0.16689   0.38330   0.25010   0.00000  Uiso   1.00
C16    C     0.15070   0.09344   0.20677   0.00000  Uiso   1.00
C17    C     0.15249   0.40654   0.28981   0.00000  Uiso   1.00
C18    C     0.15042   0.04753   0.20687   0.00000  Uiso   1.00
C19    C     0.15216   0.45244   0.28965   0.00000  Uiso   1.00
C20    C     0.16691   0.02430   0.25005   0.00000  Uiso   1.00
C21    C     0.16697   0.47573   0.25009   0.00000  Uiso   1.00
C22    C     0.06892   0.23029   0.01788   0.00000  Uiso   1.00
C23    C     0.21004   0.26014   0.05894   0.00000  Uiso   1.00
C24    C     0.04837   0.25845   0.47962   0.00000  Uiso   1.00
C25    C     0.00093   0.24878   0.45161   0.00000  Uiso   1.00
C26    C     0.30610   0.21173   0.46227   0.00000  Uiso   1.00
C27    C     0.32561   0.18395   0.00064   0.00000  Uiso   1.00
C28    C     0.04014   0.19302   0.02821   0.00000  Uiso   1.00
C29    C     0.20143   0.32964   0.47446   0.00000  Uiso   1.00
C30    C     0.16982   0.35109   0.00427   0.00000  Uiso   1.00
C31    C     0.18668   0.38974   0.02925   0.00000  Uiso   1.00
C32    C     0.23490   0.40764   0.02433   0.00000  Uiso   1.00
C33    C     0.26625   0.38703   0.49423   0.00000  Uiso   1.00
C34    C     0.14848   0.21425   0.44397   0.00000  Uiso   1.00
C35    C     0.24957   0.34834   0.46924   0.00000  Uiso   1.00
C36    C     0.21005   0.26045   0.10960   0.00000  Uiso   1.00
C37    C     0.14849   0.21451   0.39331   0.00000  Uiso   1.00
C38    C     0.12235   0.23939   0.09928   0.00000  Uiso   1.00
C39    C     0.18499   0.28598   0.39743   0.00000  Uiso   1.00
C40    C     0.11959   0.23994   0.04789   0.00000  Uiso   1.00
Cu41   Cu    0.16667   0.24999   0.29821   0.00000  Uiso   1.00
Cu42   Cu    0.16667   0.25000   0.20178   0.00000  Uiso   1.00
H43    H     0.32584   0.24972   0.19357   0.00000  Uiso   1.00
H44    H     0.13969   0.46968   0.32018   0.00000  Uiso   1.00
H45    H     0.24554   0.26774   0.04472   0.00000  Uiso   1.00
H46    H     0.13464   0.18517   0.46084   0.00000  Uiso   1.00
H47    H     0.24522   0.26914   0.13291   0.00000  Uiso   1.00
H48    H     0.13387   0.18601   0.37223   0.00000  Uiso   1.00
H49    H     0.08814   0.23107   0.11505   0.00000  Uiso   1.00
H50    H     0.19947   0.31385   0.37910   0.00000  Uiso   1.00
H51    H     0.06894   0.28781   0.47123   0.00000  Uiso   1.00
H52    H     0.31932   0.27001   0.42156   0.00000  Uiso   1.00
H53    H     0.26924   0.20450   0.44073   0.00000  Uiso   1.00
H54    H     0.00754   0.25015   0.30648   0.00000  Uiso   1.00
H55    H     0.30377   0.15522   0.00887   0.00000  Uiso   1.00
H56    H     0.05492   0.17075   0.05741   0.00000  Uiso   1.00
H57    H     0.13218   0.33801   0.00830   0.00000  Uiso   1.00
H58    H     0.16229   0.40585   0.05240   0.00000  Uiso   1.00
H59    H     0.24790   0.43756   0.04371   0.00000  Uiso   1.00
H60    H     0.30353   0.40101   0.49028   0.00000  Uiso   1.00
H61    H     0.27441   0.33285   0.44617   0.00000  Uiso   1.00
H62    H     0.19707   0.03062   0.32676   0.00000  Uiso   1.00
H63    H     0.19430   0.46953   0.18003   0.00000  Uiso   1.00
H64    H     0.19577   0.11104   0.32690   0.00000  Uiso   1.00
H65    H     0.19312   0.38913   0.17957   0.00000  Uiso   1.00
H66    H     0.13768   0.11070   0.17308   0.00000  Uiso   1.00
H67    H     0.14079   0.38926   0.32066   0.00000  Uiso   1.00
H68    H     0.13671   0.03024   0.17332   0.00000  Uiso   1.00
N69    N     0.16667   0.25001   0.12934   0.00000  Uiso   1.00
N70    N     0.16667   0.24999   0.37065   0.00000  Uiso   1.00
O71    O     0.16667   0.18572   0.29071   0.00000  Uiso   1.00
O72    O     0.16666   0.31427   0.20928   0.00000  Uiso   1.00
O73    O     0.16667   0.18573   0.20928   0.00000  Uiso   1.00
O74    O     0.16666   0.31427   0.29072   0.00000  Uiso   1.00
O75    O     0.09161   0.24999   0.28132   0.00000  Uiso   1.00
O76    O     0.24172   0.25000   0.21868   0.00000  Uiso   1.00
O77    O     0.09161   0.25000   0.19988   0.00000  Uiso   1.00
O78    O     0.24172   0.25000   0.30011   0.00000  Uiso   1.00
C79    C     0.50000   0.16495   0.24998   0.00000  Uiso   1.00
C80    C     0.51755   0.28814   0.44832   0.00000  Uiso   1.00
C81    C     0.49803   0.25047   0.02694   0.00000  Uiso   1.00
C82    C     0.49906   0.25126   0.47250   0.00000  Uiso   1.00
C83    C     0.40121   0.24996   0.23752   0.00000  Uiso   1.00
C84    C     0.59879   0.25001   0.26249   0.00000  Uiso   1.00
C85    C     0.34591   0.24990   0.23066   0.00000  Uiso   1.00
C86    C     0.65411   0.25002   0.26937   0.00000  Uiso   1.00
C87    C     0.51663   0.04774   0.29318   0.00000  Uiso   1.00
C88    C     0.51515   0.45236   0.21057   0.00000  Uiso   1.00
C89    C     0.51617   0.09364   0.29322   0.00000  Uiso   1.00
C90    C     0.50007   0.33506   0.25004   0.00000  Uiso   1.00
C91    C     0.51475   0.40646   0.21042   0.00000  Uiso   1.00
C92    C     0.50007   0.11673   0.24998   0.00000  Uiso   1.00
C93    C     0.50023   0.38330   0.25010   0.00000  Uiso   1.00
C94    C     0.48404   0.09344   0.20677   0.00000  Uiso   1.00
C95    C     0.48583   0.40654   0.28981   0.00000  Uiso   1.00
C96    C     0.48376   0.04753   0.20687   0.00000  Uiso   1.00
C97    C     0.48550   0.45244   0.28965   0.00000  Uiso   1.00
C98    C     0.50024   0.02430   0.25005   0.00000  Uiso   1.00
C99    C     0.50031   0.47573   0.25009   0.00000  Uiso   1.00
C100   C     0.40226   0.23029   0.01788   0.00000  Uiso   1.00
C101   C     0.54338   0.26014   0.05894   0.00000  Uiso   1.00
C102   C     0.38170   0.25845   0.47962   0.00000  Uiso   1.00
C103   C     0.33426   0.24878   0.45161   0.00000  Uiso   1.00
C104   C     0.63944   0.21173   0.46227   0.00000  Uiso   1.00
C105   C     0.65895   0.18395   0.00064   0.00000  Uiso   1.00
C106   C     0.37348   0.19302   0.02821   0.00000  Uiso   1.00
C107   C     0.53476   0.32964   0.47446   0.00000  Uiso   1.00
C108   C     0.50315   0.35109   0.00427   0.00000  Uiso   1.00
C109   C     0.52001   0.38974   0.02925   0.00000  Uiso   1.00
C110   C     0.56824   0.40764   0.02433   0.00000  Uiso   1.00
C111   C     0.59958   0.38703   0.49423   0.00000  Uiso   1.00
C112   C     0.48181   0.21425   0.44397   0.00000  Uiso   1.00
C113   C     0.58291   0.34834   0.46924   0.00000  Uiso   1.00
C114   C     0.54338   0.26045   0.10960   0.00000  Uiso   1.00
C115   C     0.48183   0.21451   0.39331   0.00000  Uiso   1.00
C116   C     0.45568   0.23939   0.09928   0.00000  Uiso   1.00
C117   C     0.51833   0.28598   0.39743   0.00000  Uiso   1.00
C118   C     0.45292   0.23994   0.04789   0.00000  Uiso   1.00
Cu119  Cu    0.50000   0.24999   0.29821   0.00000  Uiso   1.00
Cu120  Cu    0.50000   0.25000   0.20178   0.00000  Uiso   1.00
H121   H     0.65917   0.24972   0.19357   0.00000  Uiso   1.00
H122   H     0.47303   0.46968   0.32018   0.00000  Uiso   1.00
H123   H     0.57887   0.26774   0.04472   0.00000  Uiso   1.00
H124   H     0.46798   0.18517   0.46084   0.00000  Uiso   1.00
H125   H     0.57856   0.26914   0.13291   0.00000  Uiso   1.00
H126   H     0.46721   0.18601   0.37223   0.00000  Uiso   1.00
H127   H     0.42147   0.23107   0.11505   0.00000  Uiso   1.00
H128   H     0.53281   0.31385   0.37910   0.00000  Uiso   1.00
H129   H     0.40227   0.28781   0.47123   0.00000  Uiso   1.00
H130   H     0.65265   0.27001   0.42156   0.00000  Uiso   1.00
H131   H     0.60257   0.20450   0.44073   0.00000  Uiso   1.00
H132   H     0.34087   0.25015   0.30648   0.00000  Uiso   1.00
H133   H     0.63710   0.15522   0.00887   0.00000  Uiso   1.00
H134   H     0.38825   0.17075   0.05741   0.00000  Uiso   1.00
H135   H     0.46552   0.33801   0.00830   0.00000  Uiso   1.00
H136   H     0.49563   0.40585   0.05240   0.00000  Uiso   1.00
H137   H     0.58123   0.43756   0.04371   0.00000  Uiso   1.00
H138   H     0.63687   0.40101   0.49028   0.00000  Uiso   1.00
H139   H     0.60775   0.33285   0.44617   0.00000  Uiso   1.00
H140   H     0.53040   0.03062   0.32676   0.00000  Uiso   1.00
H141   H     0.52763   0.46953   0.18003   0.00000  Uiso   1.00
H142   H     0.52910   0.11104   0.32690   0.00000  Uiso   1.00
H143   H     0.52645   0.38913   0.17957   0.00000  Uiso   1.00
H144   H     0.47101   0.11070   0.17308   0.00000  Uiso   1.00
H145   H     0.47412   0.38926   0.32066   0.00000  Uiso   1.00
H146   H     0.47005   0.03024   0.17332   0.00000  Uiso   1.00
N147   N     0.50000   0.25001   0.12934   0.00000  Uiso   1.00
N148   N     0.50000   0.24999   0.37065   0.00000  Uiso   1.00
O149   O     0.50000   0.18572   0.29071   0.00000  Uiso   1.00
O150   O     0.50000   0.31427   0.20928   0.00000  Uiso   1.00
O151   O     0.50000   0.18573   0.20928   0.00000  Uiso   1.00
O152   O     0.50000   0.31427   0.29072   0.00000  Uiso   1.00
O153   O     0.42495   0.24999   0.28132   0.00000  Uiso   1.00
O154   O     0.57505   0.25000   0.21868   0.00000  Uiso   1.00
O155   O     0.42495   0.25000   0.19988   0.00000  Uiso   1.00
O156   O     0.57505   0.25000   0.30011   0.00000  Uiso   1.00
C157   C     0.83333   0.16495   0.24998   0.00000  Uiso   1.00
C158   C     0.85088   0.28814   0.44832   0.00000  Uiso   1.00
C159   C     0.83137   0.25047   0.02694   0.00000  Uiso   1.00
C160   C     0.83240   0.25126   0.47250   0.00000  Uiso   1.00
C161   C     0.73455   0.24996   0.23752   0.00000  Uiso   1.00
C162   C     0.93213   0.25001   0.26249   0.00000  Uiso   1.00
C163   C     0.67924   0.24990   0.23066   0.00000  Uiso   1.00
C164   C     0.98744   0.25002   0.26937   0.00000  Uiso   1.00
C165   C     0.84997   0.04774   0.29318   0.00000  Uiso   1.00
C166   C     0.84848   0.45236   0.21057   0.00000  Uiso   1.00
C167   C     0.84950   0.09364   0.29322   0.00000  Uiso   1.00
C168   C     0.83341   0.33506   0.25004   0.00000  Uiso   1.00
C169   C     0.84809   0.40646   0.21042   0.00000  Uiso   1.00
C170   C     0.83340   0.11673   0.24998   0.00000  Uiso   1.00
C171   C     0.83356   0.38330   0.25010   0.00000  Uiso   1.00
C172   C     0.81737   0.09344   0.20677   0.00000  Uiso   1.00
C173   C     0.81916   0.40654   0.28981   0.00000  Uiso   1.00
C174   C     0.81709   0.04753   0.20687   0.00000  Uiso   1.00
C175   C     0.81883   0.45244   0.28965   0.00000  Uiso   1.00
C176   C     0.83358   0.02430   0.25005   0.00000  Uiso   1.00
C177   C     0.83364   0.47573   0.25009   0.00000  Uiso   1.00
C178   C     0.73559   0.23029   0.01788   0.00000  Uiso   1.00
C179   C     0.87671   0.26014   0.05894   0.00000  Uiso   1.00
C180   C     0.71504   0.25845   0.47962   0.00000  Uiso   1.00
C181   C     0.66760   0.24878   0.45161   0.00000  Uiso   1.00
C182   C     0.97277   0.21173   0.46227   0.00000  Uiso   1.00
C183   C     0.99228   0.18395   0.00064   0.00000  Uiso   1.00
C184   C     0.70681   0.19302   0.02821   0.00000  Uiso   1.00
C185   C     0.86809   0.32964   0.47446   0.00000  Uiso   1.00
C186   C     0.83648   0.35109   0.00427   0.00000  Uiso   1.00
C187   C     0.85334   0.38974   0.02925   0.00000  Uiso   1.00
C188   C     0.90157   0.40764   0.02433   0.00000  Uiso   1.00
C189   C     0.93292   0.38703   0.49423   0.00000  Uiso   1.00
C190   C     0.81514   0.21425   0.44397   0.00000  Uiso   1.00
C191   C     0.91624   0.34834   0.46924   0.00000  Uiso   1.00
C192   C     0.87672   0.26045   0.10960   0.00000  Uiso   1.00
C193   C     0.81516   0.21451   0.39331   0.00000  Uiso   1.00
C194   C     0.78901   0.23939   0.09928   0.00000  Uiso   1.00
C195   C     0.85166   0.28598   0.39743   0.00000  Uiso   1.00
C196   C     0.78625   0.23994   0.04789   0.00000  Uiso   1.00
Cu197  Cu    0.83333   0.24999   0.29821   0.00000  Uiso   1.00
Cu198  Cu    0.83333   0.25000   0.20178   0.00000  Uiso   1.00
H199   H     0.99251   0.24972   0.19357   0.00000  Uiso   1.00
H200   H     0.80636   0.46968   0.32018   0.00000  Uiso   1.00
H201   H     0.91221   0.26774   0.04472   0.00000  Uiso   1.00
H202   H     0.80131   0.18517   0.46084   0.00000  Uiso   1.00
H203   H     0.91189   0.26914   0.13291   0.00000  Uiso   1.00
H204   H     0.80054   0.18601   0.37223   0.00000  Uiso   1.00
H205   H     0.75480   0.23107   0.11505   0.00000  Uiso   1.00
H206   H     0.86614   0.31385   0.37910   0.00000  Uiso   1.00
H207   H     0.73560   0.28781   0.47123   0.00000  Uiso   1.00
H208   H     0.98599   0.27001   0.42156   0.00000  Uiso   1.00
H209   H     0.93590   0.20450   0.44073   0.00000  Uiso   1.00
H210   H     0.67421   0.25015   0.30648   0.00000  Uiso   1.00
H211   H     0.97043   0.15522   0.00887   0.00000  Uiso   1.00
H212   H     0.72158   0.17075   0.05741   0.00000  Uiso   1.00
H213   H     0.79885   0.33801   0.00830   0.00000  Uiso   1.00
H214   H     0.82896   0.40585   0.05240   0.00000  Uiso   1.00
H215   H     0.91457   0.43756   0.04371   0.00000  Uiso   1.00
H216   H     0.97020   0.40101   0.49028   0.00000  Uiso   1.00
H217   H     0.94108   0.33285   0.44617   0.00000  Uiso   1.00
H218   H     0.86373   0.03062   0.32676   0.00000  Uiso   1.00
H219   H     0.86097   0.46953   0.18003   0.00000  Uiso   1.00
H220   H     0.86244   0.11104   0.32690   0.00000  Uiso   1.00
H221   H     0.85979   0.38913   0.17957   0.00000  Uiso   1.00
H222   H     0.80434   0.11070   0.17308   0.00000  Uiso   1.00
H223   H     0.80745   0.38926   0.32066   0.00000  Uiso   1.00
H224   H     0.80338   0.03024   0.17332   0.00000  Uiso   1.00
N225   N     0.83333   0.25001   0.12934   0.00000  Uiso   1.00
N226   N     0.83333   0.24999   0.37065   0.00000  Uiso   1.00
O227   O     0.83334   0.18572   0.29071   0.00000  Uiso   1.00
O228   O     0.83333   0.31427   0.20928   0.00000  Uiso   1.00
O229   O     0.83334   0.18573   0.20928   0.00000  Uiso   1.00
O230   O     0.83333   0.31427   0.29072   0.00000  Uiso   1.00
O231   O     0.75828   0.24999   0.28132   0.00000  Uiso   1.00
O232   O     0.90839   0.25000   0.21868   0.00000  Uiso   1.00
O233   O     0.75828   0.25000   0.19988   0.00000  Uiso   1.00
O234   O     0.90839   0.25000   0.30011   0.00000  Uiso   1.00
C235   C     0.16667   0.66495   0.24998   0.00000  Uiso   1.00
C236   C     0.18421   0.78814   0.44832   0.00000  Uiso   1.00
C237   C     0.16470   0.75047   0.02694   0.00000  Uiso   1.00
C238   C     0.16573   0.75126   0.47250   0.00000  Uiso   1.00
C239   C     0.06788   0.74996   0.23752   0.00000  Uiso   1.00
C240   C     0.26546   0.75001   0.26249   0.00000  Uiso   1.00
C241   C     0.01258   0.74990   0.23066   0.00000  Uiso   1.00
C242   C     0.32077   0.75002   0.26937   0.00000  Uiso   1.00
C243   C     0.18330   0.54774   0.29318   0.00000  Uiso   1.00
C244   C     0.18182   0.95236   0.21057   0.00000  Uiso   1.00
C245   C     0.18284   0.59364   0.29322   0.00000  Uiso   1.00
C246   C     0.16674   0.83506   0.25004   0.00000  Uiso   1.00
C247   C     0.18142   0.90646   0.21042   0.00000  Uiso   1.00
C248   C     0.16673   0.61673   0.24998   0.00000  Uiso   1.00
C249   C     0.16689   0.88330   0.25010   0.00000  Uiso   1.00
C250   C     0.15070   0.59344   0.20677   0.00000  Uiso   1.00
C251   C     0.15249   0.90654   0.28981   0.00000  Uiso   1.00
C252   C     0.15042   0.54753   0.20687   0.00000  Uiso   1.00
C253   C     0.15216   0.95244   0.28965   0.00000  Uiso   1.00
C254   C     0.16691   0.52430   0.25005   0.00000  Uiso   1.00
C255   C     0.16697   0.97573   0.25009   0.00000  Uiso   1.00
C256   C     0.06892   0.73029   0.01788   0.00000  Uiso   1.00
C257   C     0.21004   0.76014   0.05894   0.00000  Uiso   1.00
C258   C     0.04837   0.75845   0.47962   0.00000  Uiso   1.00
C259   C     0.00093   0.74878   0.45161   0.00000  Uiso   1.00
C260   C     0.30610   0.71173   0.46227   0.00000  Uiso   1.00
C261   C     0.32561   0.68395   0.00064   0.00000  Uiso   1.00
C262   C     0.04014   0.69302   0.02821   0.00000  Uiso   1.00
C263   C     0.20143   0.82964   0.47446   0.00000  Uiso   1.00
C264   C     0.16982   0.85109   0.00427   0.00000  Uiso   1.00
C265   C     0.18668   0.88974   0.02925   0.00000  Uiso   1.00
C266   C     0.23490   0.90764   0.02433   0.00000  Uiso   1.00
C267   C     0.26625   0.88703   0.49423   0.00000  Uiso   1.00
C268   C     0.14848   0.71425   0.44397   0.00000  Uiso   1.00
C269   C     0.24957   0.84834   0.46924   0.00000  Uiso   1.00
C270   C     0.21005   0.76045   0.10960   0.00000  Uiso   1.00
C271   C     0.14849   0.71451   0.39331   0.00000  Uiso   1.00
C272   C     0.12235   0.73939   0.09928   0.00000  Uiso   1.00
C273   C     0.18499   0.78598   0.39743   0.00000  Uiso   1.00
C274   C     0.11959   0.73994   0.04789   0.00000  Uiso   1.00
Cu275  Cu    0.16667   0.74999   0.29821   0.00000  Uiso   1.00
Cu276  Cu    0.16667   0.75000   0.20178   0.00000  Uiso   1.00
H277   H     0.32584   0.74972   0.19357   0.00000  Uiso   1.00
H278   H     0.13969   0.96968   0.32018   0.00000  Uiso   1.00
H279   H     0.24554   0.76774   0.04472   0.00000  Uiso   1.00
H280   H     0.13464   0.68517   0.46084   0.00000  Uiso   1.00
H281   H     0.24522   0.76914   0.13291   0.00000  Uiso   1.00
H282   H     0.13387   0.68601   0.37223   0.00000  Uiso   1.00
H283   H     0.08814   0.73107   0.11505   0.00000  Uiso   1.00
H284   H     0.19947   0.81385   0.37910   0.00000  Uiso   1.00
H285   H     0.06894   0.78781   0.47123   0.00000  Uiso   1.00
H286   H     0.31932   0.77001   0.42156   0.00000  Uiso   1.00
H287   H     0.26924   0.70450   0.44073   0.00000  Uiso   1.00
H288   H     0.00754   0.75015   0.30648   0.00000  Uiso   1.00
H289   H     0.30377   0.65522   0.00887   0.00000  Uiso   1.00
H290   H     0.05492   0.67075   0.05741   0.00000  Uiso   1.00
H291   H     0.13218   0.83801   0.00830   0.00000  Uiso   1.00
H292   H     0.16229   0.90585   0.05240   0.00000  Uiso   1.00
H293   H     0.24790   0.93756   0.04371   0.00000  Uiso   1.00
H294   H     0.30353   0.90101   0.49028   0.00000  Uiso   1.00
H295   H     0.27441   0.83285   0.44617   0.00000  Uiso   1.00
H296   H     0.19707   0.53062   0.32676   0.00000  Uiso   1.00
H297   H     0.19430   0.96953   0.18003   0.00000  Uiso   1.00
H298   H     0.19577   0.61104   0.32690   0.00000  Uiso   1.00
H299   H     0.19312   0.88913   0.17957   0.00000  Uiso   1.00
H300   H     0.13768   0.61070   0.17308   0.00000  Uiso   1.00
H301   H     0.14079   0.88926   0.32066   0.00000  Uiso   1.00
H302   H     0.13671   0.53024   0.17332   0.00000  Uiso   1.00
N303   N     0.16667   0.75001   0.12934   0.00000  Uiso   1.00
N304   N     0.16667   0.74999   0.37065   0.00000  Uiso   1.00
O305   O     0.16667   0.68572   0.29071   0.00000  Uiso   1.00
O306   O     0.16666   0.81427   0.20928   0.00000  Uiso   1.00
O307   O     0.16667   0.68573   0.20928   0.00000  Uiso   1.00
O308   O     0.16666   0.81427   0.29072   0.00000  Uiso   1.00
O309   O     0.09161   0.74999   0.28132   0.00000  Uiso   1.00
O310   O     0.24172   0.75000   0.21868   0.00000  Uiso   1.00
O311   O     0.09161   0.75000   0.19988   0.00000  Uiso   1.00
O312   O     0.24172   0.75000   0.30011   0.00000  Uiso   1.00
C313   C     0.50000   0.66495   0.24998   0.00000  Uiso   1.00
C314   C     0.51755   0.78814   0.44832   0.00000  Uiso   1.00
C315   C     0.49803   0.75047   0.02694   0.00000  Uiso   1.00
C316   C     0.49906   0.75126   0.47250   0.00000  Uiso   1.00
C317   C     0.40121   0.74996   0.23752   0.00000  Uiso   1.00
C318   C     0.59879   0.75001   0.26249   0.00000  Uiso   1.00
C319   C     0.34591   0.74990   0.23066   0.00000  Uiso   1.00
C320   C     0.65411   0.75002   0.26937   0.00000  Uiso   1.00
C321   C     0.51663   0.54774   0.29318   0.00000  Uiso   1.00
C322   C     0.51515   0.95236   0.21057   0.00000  Uiso   1.00
C323   C     0.51617   0.59364   0.29322   0.00000  Uiso   1.00
C324   C     0.50007   0.83506   0.25004   0.00000  Uiso   1.00
C325   C     0.51475   0.90646   0.21042   0.00000  Uiso   1.00
C326   C     0.50007   0.61673   0.24998   0.00000  Uiso   1.00
C327   C     0.50023   0.88330   0.25010   0.00000  Uiso   1.00
C328   C     0.48404   0.59344   0.20677   0.00000  Uiso   1.00
C329   C     0.48583   0.90654   0.28981   0.00000  Uiso   1.00
C330   C     0.48376   0.54753   0.20687   0.00000  Uiso   1.00
C331   C     0.48550   0.95244   0.28965   0.00000  Uiso   1.00
C332   C     0.50024   0.52430   0.25005   0.00000  Uiso   1.00
C333   C     0.50031   0.97573   0.25009   0.00000  Uiso   1.00
C334   C     0.40226   0.73029   0.01788   0.00000  Uiso   1.00
C335   C     0.54338   0.76014   0.05894   0.00000  Uiso   1.00
C336   C     0.38170   0.75845   0.47962   0.00000  Uiso   1.00
C337   C     0.33426   0.74878   0.45161   0.00000  Uiso   1.00
C338   C     0.63944   0.71173   0.46227   0.00000  Uiso   1.00
C339   C     0.65895   0.68395   0.00064   0.00000  Uiso   1.00
C340   C     0.37348   0.69302   0.02821   0.00000  Uiso   1.00
C341   C     0.53476   0.82964   0.47446   0.00000  Uiso   1.00
C342   C     0.50315   0.85109   0.00427   0.00000  Uiso   1.00
C343   C     0.52001   0.88974   0.02925   0.00000  Uiso   1.00
C344   C     0.56824   0.90764   0.02433   0.00000  Uiso   1.00
C345   C     0.59958   0.88703   0.49423   0.00000  Uiso   1.00
C346   C     0.48181   0.71425   0.44397   0.00000  Uiso   1.00
C347   C     0.58291   0.84834   0.46924   0.00000  Uiso   1.00
C348   C     0.54338   0.76045   0.10960   0.00000  Uiso   1.00
C349   C     0.48183   0.71451   0.39331   0.00000  Uiso   1.00
C350   C     0.45568   0.73939   0.09928   0.00000  Uiso   1.00
C351   C     0.51833   0.78598   0.39743   0.00000  Uiso   1.00
C352   C     0.45292   0.73994   0.04789   0.00000  Uiso   1.00
Cu353  Cu    0.50000   0.74999   0.29821   0.00000  Uiso   1.00
Cu354  Cu    0.50000   0.75000   0.20178   0.00000  Uiso   1.00
H355   H     0.65917   0.74972   0.19357   0.00000  Uiso   1.00
H356   H     0.47303   0.96968   0.32018   0.00000  Uiso   1.00
H357   H     0.57887   0.76774   0.04472   0.00000  Uiso   1.00
H358   H     0.46798   0.68517   0.46084   0.00000  Uiso   1.00
H359   H     0.57856   0.76914   0.13291   0.00000  Uiso   1.00
H360   H     0.46721   0.68601   0.37223   0.00000  Uiso   1.00
H361   H     0.42147   0.73107   0.11505   0.00000  Uiso   1.00
H362   H     0.53281   0.81385   0.37910   0.00000  Uiso   1.00
H363   H     0.40227   0.78781   0.47123   0.00000  Uiso   1.00
H364   H     0.65265   0.77001   0.42156   0.00000  Uiso   1.00
H365   H     0.60257   0.70450   0.44073   0.00000  Uiso   1.00
H366   H     0.34087   0.75015   0.30648   0.00000  Uiso   1.00
H367   H     0.63710   0.65522   0.00887   0.00000  Uiso   1.00
H368   H     0.38825   0.67075   0.05741   0.00000  Uiso   1.00
H369   H     0.46552   0.83801   0.00830   0.00000  Uiso   1.00
H370   H     0.49563   0.90585   0.05240   0.00000  Uiso   1.00
H371   H     0.58123   0.93756   0.04371   0.00000  Uiso   1.00
H372   H     0.63687   0.90101   0.49028   0.00000  Uiso   1.00
H373   H     0.60775   0.83285   0.44617   0.00000  Uiso   1.00
H374   H     0.53040   0.53062   0.32676   0.00000  Uiso   1.00
H375   H     0.52763   0.96953   0.18003   0.00000  Uiso   1.00
H376   H     0.52910   0.61104   0.32690   0.00000  Uiso   1.00
H377   H     0.52645   0.88913   0.17957   0.00000  Uiso   1.00
H378   H     0.47101   0.61070   0.17308   0.00000  Uiso   1.00
H379   H     0.47412   0.88926   0.32066   0.00000  Uiso   1.00
H380   H     0.47005   0.53024   0.17332   0.00000  Uiso   1.00
N381   N     0.50000   0.75001   0.12934   0.00000  Uiso   1.00
N382   N     0.50000   0.74999   0.37065   0.00000  Uiso   1.00
O383   O     0.50000   0.68572   0.29071   0.00000  Uiso   1.00
O384   O     0.50000   0.81427   0.20928   0.00000  Uiso   1.00
O385   O     0.50000   0.68573   0.20928   0.00000  Uiso   1.00
O386   O     0.50000   0.81427   0.29072   0.00000  Uiso   1.00
O387   O     0.42495   0.74999   0.28132   0.00000  Uiso   1.00
O388   O     0.57505   0.75000   0.21868   0.00000  Uiso   1.00
O389   O     0.42495   0.75000   0.19988   0.00000  Uiso   1.00
O390   O     0.57505   0.75000   0.30011   0.00000  Uiso   1.00
C391   C     0.83333   0.66495   0.24998   0.00000  Uiso   1.00
C392   C     0.85088   0.78814   0.44832   0.00000  Uiso   1.00
C393   C     0.83137   0.75047   0.02694   0.00000  Uiso   1.00
C394   C     0.83240   0.75126   0.47250   0.00000  Uiso   1.00
C395   C     0.73455   0.74996   0.23752   0.00000  Uiso   1.00
C396   C     0.93213   0.75001   0.26249   0.00000  Uiso   1.00
C397   C     0.67924   0.74990   0.23066   0.00000  Uiso   1.00
C398   C     0.98744   0.75002   0.26937   0.00000  Uiso   1.00
C399   C     0.84997   0.54774   0.29318   0.00000  Uiso   1.00
C400   C     0.84848   0.95236   0.21057   0.00000  Uiso   1.00
C401   C     0.84950   0.59364   0.29322   0.00000  Uiso   1.00
C402   C     0.83341   0.83506   0.25004   0.00000  Uiso   1.00
C403   C     0.84809   0.90646   0.21042   0.00000  Uiso   1.00
C404   C     0.83340   0.61673   0.24998   0.00000  Uiso   1.00
C405   C     0.83356   0.88330   0.25010   0.00000  Uiso   1.00
C406   C     0.81737   0.59344   0.20677   0.00000  Uiso   1.00
C407   C     0.81916   0.90654   0.28981   0.00000  Uiso   1.00
C408   C     0.81709   0.54753   0.20687   0.00000  Uiso   1.00
C409   C     0.81883   0.95244   0.28965   0.00000  Uiso   1.00
C410   C     0.83358   0.52430   0.25005   0.00000  Uiso   1.00
C411   C     0.83364   0.97573   0.25009   0.00000  Uiso   1.00
C412   C     0.73559   0.73029   0.01788   0.00000  Uiso   1.00
C413   C     0.87671   0.76014   0.05894   0.00000  Uiso   1.00
C414   C     0.71504   0.75845   0.47962   0.00000  Uiso   1.00
C415   C     0.66760   0.74878   0.45161   0.00000  Uiso   1.00
C416   C     0.97277   0.71173   0.46227   0.00000  Uiso   1.00
C417   C     0.99228   0.68395   0.00064   0.00000  Uiso   1.00
C418   C     0.70681   0.69302   0.02821   0.00000  Uiso   1.00
C419   C     0.86809   0.82964   0.47446   0.00000  Uiso   1.00
C420   C     0.83648   0.85109   0.00427   0.00000  Uiso   1.00
C421   C     0.85334   0.88974   0.02925   0.00000  Uiso   1.00
C422   C     0.90157   0.90764   0.02433   0.00000  Uiso   1.00
C423   C     0.93292   0.88703   0.49423   0.00000  Uiso   1.00
C424   C     0.81514   0.71425   0.44397   0.00000  Uiso   1.00
C425   C     0.91624   0.84834   0.46924   0.00000  Uiso   1.00
C426   C     0.87672   0.76045   0.10960   0.00000  Uiso   1.00
C427   C     0.81516   0.71451   0.39331   0.00000  Uiso   1.00
C428   C     0.78901   0.73939   0.09928   0.00000  Uiso   1.00
C429   C     0.85166   0.78598   0.39743   0.00000  Uiso   1.00
C430   C     0.78625   0.73994   0.04789   0.00000  Uiso   1.00
Cu431  Cu    0.83333   0.74999   0.29821   0.00000  Uiso   1.00
Cu432  Cu    0.83333   0.75000   0.20178   0.00000  Uiso   1.00
H433   H     0.99251   0.74972   0.19357   0.00000  Uiso   1.00
H434   H     0.80636   0.96968   0.32018   0.00000  Uiso   1.00
H435   H     0.91221   0.76774   0.04472   0.00000  Uiso   1.00
H436   H     0.80131   0.68517   0.46084   0.00000  Uiso   1.00
H437   H     0.91189   0.76914   0.13291   0.00000  Uiso   1.00
H438   H     0.80054   0.68601   0.37223   0.00000  Uiso   1.00
H439   H     0.75480   0.73107   0.11505   0.00000  Uiso   1.00
H440   H     0.86614   0.81385   0.37910   0.00000  Uiso   1.00
H441   H     0.73560   0.78781   0.47123   0.00000  Uiso   1.00
H442   H     0.98599   0.77001   0.42156   0.00000  Uiso   1.00
H443   H     0.93590   0.70450   0.44073   0.00000  Uiso   1.00
H444   H     0.67421   0.75015   0.30648   0.00000  Uiso   1.00
H445   H     0.97043   0.65522   0.00887   0.00000  Uiso   1.00
H446   H     0.72158   0.67075   0.05741   0.00000  Uiso   1.00
H447   H     0.79885   0.83801   0.00830   0.00000  Uiso   1.00
H448   H     0.82896   0.90585   0.05240   0.00000  Uiso   1.00
H449   H     0.91457   0.93756   0.04371   0.00000  Uiso   1.00
H450   H     0.97020   0.90101   0.49028   0.00000  Uiso   1.00
H451   H     0.94108   0.83285   0.44617   0.00000  Uiso   1.00
H452   H     0.86373   0.53062   0.32676   0.00000  Uiso   1.00
H453   H     0.86097   0.96953   0.18003   0.00000  Uiso   1.00
H454   H     0.86244   0.61104   0.32690   0.00000  Uiso   1.00
H455   H     0.85979   0.88913   0.17957   0.00000  Uiso   1.00
H456   H     0.80434   0.61070   0.17308   0.00000  Uiso   1.00
H457   H     0.80745   0.88926   0.32066   0.00000  Uiso   1.00
H458   H     0.80338   0.53024   0.17332   0.00000  Uiso   1.00
N459   N     0.83333   0.75001   0.12934   0.00000  Uiso   1.00
N460   N     0.83333   0.74999   0.37065   0.00000  Uiso   1.00
O461   O     0.83334   0.68572   0.29071   0.00000  Uiso   1.00
O462   O     0.83333   0.81427   0.20928   0.00000  Uiso   1.00
O463   O     0.83334   0.68573   0.20928   0.00000  Uiso   1.00
O464   O     0.83333   0.81427   0.29072   0.00000  Uiso   1.00
O465   O     0.75828   0.74999   0.28132   0.00000  Uiso   1.00
O466   O     0.90839   0.75000   0.21868   0.00000  Uiso   1.00
O467   O     0.75828   0.75000   0.19988   0.00000  Uiso   1.00
O468   O     0.90839   0.75000   0.30011   0.00000  Uiso   1.00
C469   C     0.16667   0.16495   0.74998   0.00000  Uiso   1.00
C470   C     0.18421   0.28814   0.94832   0.00000  Uiso   1.00
C471   C     0.16470   0.25047   0.52694   0.00000  Uiso   1.00
C472   C     0.16573   0.25126   0.97250   0.00000  Uiso   1.00
C473   C     0.06788   0.24996   0.73752   0.00000  Uiso   1.00
C474   C     0.26546   0.25001   0.76249   0.00000  Uiso   1.00
C475   C     0.01258   0.24990   0.73066   0.00000  Uiso   1.00
C476   C     0.32077   0.25002   0.76937   0.00000  Uiso   1.00
C477   C     0.18330   0.04774   0.79318   0.00000  Uiso   1.00
C478   C     0.18182   0.45236   0.71057   0.00000  Uiso   1.00
C479   C     0.18284   0.09364   0.79322   0.00000  Uiso   1.00
C480   C     0.16674   0.33506   0.75004   0.00000  Uiso   1.00
C481   C     0.18142   0.40646   0.71042   0.00000  Uiso   1.00
C482   C     0.16673   0.11673   0.74998   0.00000  Uiso   1.00
C483   C     0.16689   0.38330   0.75010   0.00000  Uiso   1.00
C484   C     0.15070   0.09344   0.70677   0.00000  Uiso   1.00
C485   C     0.15249   0.40654   0.78981   0.00000  Uiso   1.00
C486   C     0.15042   0.04753   0.70687   0.00000  Uiso   1.00
C487   C     0.15216   0.45244   0.78965   0.00000  Uiso   1.00
C488   C     0.16691   0.02430   0.75005   0.00000  Uiso   1.00
C489   C     0.16697   0.47573   0.75009   0.00000  Uiso   1.00
C490   C     0.06892   0.23029   0.51788   0.00000  Uiso   1.00
C491   C     0.21004   0.26014   0.55894   0.00000  Uiso   1.00
C492   C     0.04837   0.25845   0.97962   0.00000  Uiso   1.00
C493   C     0.00093   0.24878   0.95161   0.00000  Uiso   1.00
C494   C     0.30610   0.21173   0.96227   0.00000  Uiso   1.00
C495   C     0.32561   0.18395   0.50064   0.00000  Uiso   1.00
C496   C     0.04014   0.19302   0.52821   0.00000  Uiso   1.00
C497   C     0.20143   0.32964   0.97446   0.00000  Uiso   1.00
C498   C     0.16982   0.35109   0.50427   0.00000  Uiso   1.00
C499   C     0.18668   0.38974   0.52925   0.00000  Uiso   1.00
C500   C     0.23490   0.40764   0.52433   0.00000  Uiso   1.00
C501   C     0.26625   0.38703   0.99423   0.00000  Uiso   1.00
C502   C     0.14848   0.21425   0.94397   0.00000  Uiso   1.00
C503   C     0.24957   0.34834   0.96924   0.00000  Uiso   1.00
C504   C     0.21005   0.26045   0.60960   0.00000  Uiso   1.00
C505   C     0.14849   0.21451   0.89331   0.00000  Uiso   1.00
C506   C     0.12235   0.23939   0.59928   0.00000  Uiso   1.00
C507   C     0.18499   0.28598   0.89743   0.00000  Uiso   1.00
C508   C     0.11959   0.23994   0.54789   0.00000  Uiso   1.00
Cu509  Cu    0.16667   0.24999   0.79821   0.00000  Uiso   1.00
Cu510  Cu    0.16667   0.25000   0.70178   0.00000  Uiso   1.00
H511   H     0.32584   0.24972   0.69357   0.00000  Uiso   1.00
H512   H     0.13969   0.46968   0.82018   0.00000  Uiso   1.00
H513   H     0.24554   0.26774   0.54472   0.00000  Uiso   1.00
H514   H     0.13464   0.18517   0.96084   0.00000  Uiso   1.00
H515   H     0.24522   0.26914   0.63291   0.00000  Uiso   1.00
H516   H     0.13387   0.18601   0.87223   0.00000  Uiso   1.00
H517   H     0.08814   0.23107   0.61505   0.00000  Uiso   1.00
H518   H     0.19947   0.31385   0.87910   0.00000  Uiso   1.00
H519   H     0.06894   0.28781   0.97123   0.00000  Uiso   1.00
H520   H     0.31932   0.27001   0.92156   0.00000  Uiso   1.00
H521   H     0.26924   0.20450   0.94073   0.00000  Uiso   1.00
H522   H     0.00754   0.25015   0.80648   0.00000  Uiso   1.00
H523   H     0.30377   0.15522   0.50887   0.00000  Uiso   1.00
H524   H     0.05492   0.17075   0.55741   0.00000  Uiso   1.00
H525   H     0.13218   0.33801   0.50830   0.00000  Uiso   1.00
H526   H     0.16229   0.40585   0.55240   0.00000  Uiso   1.00
H527   H     0.24790   0.43756   0.54371   0.00000  Uiso   1.00
H528   H     0.30353   0.40101   0.99028   0.00000  Uiso   1.00
H529   H     0.27441   0.33285   0.94617   0.00000  Uiso   1.00
H530   H     0.19707   0.03062   0.82676   0.00000  Uiso   1.00
H531   H     0.19430   0.46953   0.68003   0.00000  Uiso   1.00
H532   H     0.19577   0.11104   0.82690   0.00000  Uiso   1.00
H533   H     0.19312   0.38913   0.67957   0.00000  Uiso   1.00
H534   H     0.13768   0.11070   0.67308   0.00000  Uiso   1.00
H535   H     0.14079   0.38926   0.82066   0.00000  Uiso   1.00
H536   H     0.13671   0.03024   0.67332   0.00000  Uiso   1.00
N537   N     0.16667   0.25001   0.62934   0.00000  Uiso   1.00
N538   N     0.16667   0.24999   0.87065   0.00000  Uiso   1.00
O539   O     0.16667   0.18572   0.79071   0.00000  Uiso   1.00
O540   O     0.16666   0.31427   0.70928   0.00000  Uiso   1.00
O541   O     0.16667   0.18573   0.70928   0.00000  Uiso   1.00
O542   O     0.16666   0.31427   0.79072   0.00000  Uiso   1.00
O543   O     0.09161   0.24999   0.78132   0.00000  Uiso   1.00
O544   O     0.24172   0.25000   0.71868   0.00000  Uiso   1.00
O545   O     0.09161   0.25000   0.69988   0.00000  Uiso   1.00
O546   O     0.24172   0.25000   0.80011   0.00000  Uiso   1.00
C547   C     0.50000   0.16495   0.74998   0.00000  Uiso   1.00
C548   C     0.51755   0.28814   0.94832   0.00000  Uiso   1.00
C549   C     0.49803   0.25047   0.52694   0.00000  Uiso   1.00
C550   C     0.49906   0.25126   0.97250   0.00000  Uiso   1.00
C551   C     0.40121   0.24996   0.73752   0.00000  Uiso   1.00
C552   C     0.59879   0.25001   0.76249   0.00000  Uiso   1.00
C553   C     0.34591   0.24990   0.73066   0.00000  Uiso   1.00
C554   C     0.65411   0.25002   0.76937   0.00000  Uiso   1.00
C555   C     0.51663   0.04774   0.79318   0.00000  Uiso   1.00
C556   C     0.51515   0.45236   0.71057   0.00000  Uiso   1.00
C557   C     0.51617   0.09364   0.79322   0.00000  Uiso   1.00
C558   C     0.50007   0.33506   0.75004   0.00000  Uiso   1.00
C559   C     0.51475   0.40646   0.71042   0.00000  Uiso   1.00
C560   C     0.50007   0.11673   0.74998   0.00000  Uiso   1.00
C561   C     0.50023   0.38330   0.75010   0.00000  Uiso   1.00
C562   C     0.48404   0.09344   0.70677   0.00000  Uiso   1.00
C563   C     0.48583   0.40654   0.78981   0.00000  Uiso   1.00
C564   C     0.48376   0.04753   0.70687   0.00000  Uiso   1.00
C565   C     0.48550   0.45244   0.78965   0.00000  Uiso   1.00
C566   C     0.50024   0.02430   0.75005   0.00000  Uiso   1.00
C567   C     0.50031   0.47573   0.75009   0.00000  Uiso   1.00
C568   C     0.40226   0.23029   0.51788   0.00000  Uiso   1.00
C569   C     0.54338   0.26014   0.55894   0.00000  Uiso   1.00
C570   C     0.38170   0.25845   0.97962   0.00000  Uiso   1.00
C571   C     0.33426   0.24878   0.95161   0.00000  Uiso   1.00
C572   C     0.63944   0.21173   0.96227   0.00000  Uiso   1.00
C573   C     0.65895   0.18395   0.50064   0.00000  Uiso   1.00
C574   C     0.37348   0.19302   0.52821   0.00000  Uiso   1.00
C575   C     0.53476   0.32964   0.97446   0.00000  Uiso   1.00
C576   C     0.50315   0.35109   0.50427   0.00000  Uiso   1.00
C577   C     0.52001   0.38974   0.52925   0.00000  Uiso   1.00
C578   C     0.56824   0.40764   0.52433   0.00000  Uiso   1.00
C579   C     0.59958   0.38703   0.99423   0.00000  Uiso   1.00
C580   C     0.48181   0.21425   0.94397   0.00000  Uiso   1.00
C581   C     0.58291   0.34834   0.96924   0.00000  Uiso   1.00
C582   C     0.54338   0.26045   0.60960   0.00000  Uiso   1.00
C583   C     0.48183   0.21451   0.89331   0.00000  Uiso   1.00
C584   C     0.45568   0.23939   0.59928   0.00000  Uiso   1.00
C585   C     0.51833   0.28598   0.89743   0.00000  Uiso   1.00
C586   C     0.45292   0.23994   0.54789   0.00000  Uiso   1.00
Cu587  Cu    0.50000   0.24999   0.79821   0.00000  Uiso   1.00
Cu588  Cu    0.50000   0.25000   0.70178   0.00000  Uiso   1.00
H589   H     0.65917   0.24972   0.69357   0.00000  Uiso   1.00
H590   H     0.47303   0.46968   0.82018   0.00000  Uiso   1.00
H591   H     0.57887   0.26774   0.54472   0.00000  Uiso   1.00
H592   H     0.46798   0.18517   0.96084   0.00000  Uiso   1.00
H593   H     0.57856   0.26914   0.63291   0.00000  Uiso   1.00
H594   H     0.46721   0.18601   0.87223   0.00000  Uiso   1.00
H595   H     0.42147   0.23107   0.61505   0.00000  Uiso   1.00
H596   H     0.53281   0.31385   0.87910   0.00000  Uiso   1.00
H597   H     0.40227   0.28781   0.97123   0.00000  Uiso   1.00
H598   H     0.65265   0.27001   0.92156   0.00000  Uiso   1.00
H599   H     0.60257   0.20450   0.94073   0.00000  Uiso   1.00
H600   H     0.34087   0.25015   0.80648   0.00000  Uiso   1.00
H601   H     0.63710   0.15522   0.50887   0.00000  Uiso   1.00
H602   H     0.38825   0.17075   0.55741   0.00000  Uiso   1.00
H603   H     0.46552   0.33801   0.50830   0.00000  Uiso   1.00
H604   H     0.49563   0.40585   0.55240   0.00000  Uiso   1.00
H605   H     0.58123   0.43756   0.54371   0.00000  Uiso   1.00
H606   H     0.63687   0.40101   0.99028   0.00000  Uiso   1.00
H607   H     0.60775   0.33285   0.94617   0.00000  Uiso   1.00
H608   H     0.53040   0.03062   0.82676   0.00000  Uiso   1.00
H609   H     0.52763   0.46953   0.68003   0.00000  Uiso   1.00
H610   H     0.52910   0.11104   0.82690   0.00000  Uiso   1.00
H611   H     0.52645   0.38913   0.67957   0.00000  Uiso   1.00
H612   H     0.47101   0.11070   0.67308   0.00000  Uiso   1.00
H613   H     0.47412   0.38926   0.82066   0.00000  Uiso   1.00
H614   H     0.47005   0.03024   0.67332   0.00000  Uiso   1.00
N615   N     0.50000   0.25001   0.62934   0.00000  Uiso   1.00
N616   N     0.50000   0.24999   0.87065   0.00000  Uiso   1.00
O617   O     0.50000   0.18572   0.79071   0.00000  Uiso   1.00
O618   O     0.50000   0.31427   0.70928   0.00000  Uiso   1.00
O619   O     0.50000   0.18573   0.70928   0.00000  Uiso   1.00
O620   O     0.50000   0.31427   0.79072   0.00000  Uiso   1.00
O621   O     0.42495   0.24999   0.78132   0.00000  Uiso   1.00
O622   O     0.57505   0.25000   0.71868   0.00000  Uiso   1.00
O623   O     0.42495   0.25000   0.69988   0.00000  Uiso   1.00
O624   O     0.57505   0.25000   0.80011   0.00000  Uiso   1.00
C625   C     0.83333   0.16495   0.74998   0.00000  Uiso   1.00
C626   C     0.85088   0.28814   0.94832   0.00000  Uiso   1.00
C627   C     0.83137   0.25047   0.52694   0.00000  Uiso   1.00
C628   C     0.83240   0.25126   0.97250   0.00000  Uiso   1.00
C629   C     0.73455   0.24996   0.73752   0.00000  Uiso   1.00
C630   C     0.93213   0.25001   0.76249   0.00000  Uiso   1.00
C631   C     0.67924   0.24990   0.73066   0.00000  Uiso   1.00
C632   C     0.98744   0.25002   0.76937   0.00000  Uiso   1.00
C633   C     0.84997   0.04774   0.79318   0.00000  Uiso   1.00
C634   C     0.84848   0.45236   0.71057   0.00000  Uiso   1.00
C635   C     0.84950   0.09364   0.79322   0.00000  Uiso   1.00
C636   C     0.83341   0.33506   0.75004   0.00000  Uiso   1.00
C637   C     0.84809   0.40646   0.71042   0.00000  Uiso   1.00
C638   C     0.83340   0.11673   0.74998   0.00000  Uiso   1.00
C639   C     0.83356   0.38330   0.75010   0.00000  Uiso   1.00
C640   C     0.81737   0.09344   0.70677   0.00000  Uiso   1.00
C641   C     0.81916   0.40654   0.78981   0.00000  Uiso   1.00
C642   C     0.81709   0.04753   0.70687   0.00000  Uiso   1.00
C643   C     0.81883   0.45244   0.78965   0.00000  Uiso   1.00
C644   C     0.83358   0.02430   0.75005   0.00000  Uiso   1.00
C645   C     0.83364   0.47573   0.75009   0.00000  Uiso   1.00
C646   C     0.73559   0.23029   0.51788   0.00000  Uiso   1.00
C647   C     0.87671   0.26014   0.55894   0.00000  Uiso   1.00
C648   C     0.71504   0.25845   0.97962   0.00000  Uiso   1.00
C649   C     0.66760   0.24878   0.95161   0.00000  Uiso   1.00
C650   C     0.97277   0.21173   0.96227   0.00000  Uiso   1.00
C651   C     0.99228   0.18395   0.50064   0.00000  Uiso   1.00
C652   C     0.70681   0.19302   0.52821   0.00000  Uiso   1.00
C653   C     0.86809   0.32964   0.97446   0.00000  Uiso   1.00
C654   C     0.83648   0.35109   0.50427   0.00000  Uiso   1.00
C655   C     0.85334   0.38974   0.52925   0.00000  Uiso   1.00
C656   C     0.90157   0.40764   0.52433   0.00000  Uiso   1.00
C657   C     0.93292   0.38703   0.99423   0.00000  Uiso   1.00
C658   C     0.81514   0.21425   0.94397   0.00000  Uiso   1.00
C659   C     0.91624   0.34834   0.96924   0.00000  Uiso   1.00
C660   C     0.87672   0.26045   0.60960   0.00000  Uiso   1.00
C661   C     0.81516   0.21451   0.89331   0.00000  Uiso   1.00
C662   C     0.78901   0.23939   0.59928   0.00000  Uiso   1.00
C663   C     0.85166   0.28598   0.89743   0.00000  Uiso   1.00
C664   C     0.78625   0.23994   0.54789   0.00000  Uiso   1.00
Cu665  Cu    0.83333   0.24999   0.79821   0.00000  Uiso   1.00
Cu666  Cu    0.83333   0.25000   0.70178   0.00000  Uiso   1.00
H667   H     0.99251   0.24972   0.69357   0.00000  Uiso   1.00
H668   H     0.80636   0.46968   0.82018   0.00000  Uiso   1.00
H669   H     0.91221   0.26774   0.54472   0.00000  Uiso   1.00
H670   H     0.80131   0.18517   0.96084   0.00000  Uiso   1.00
H671   H     0.91189   0.26914   0.63291   0.00000  Uiso   1.00
H672   H     0.80054   0.18601   0.87223   0.00000  Uiso   1.00
H673   H     0.75480   0.23107   0.61505   0.00000  Uiso   1.00
H674   H     0.86614   0.31385   0.87910   0.00000  Uiso   1.00
H675   H     0.73560   0.28781   0.97123   0.00000  Uiso   1.00
H676   H     0.98599   0.27001   0.92156   0.00000  Uiso   1.00
H677   H     0.93590   0.20450   0.94073   0.00000  Uiso   1.00
H678   H     0.67421   0.25015   0.80648   0.00000  Uiso   1.00
H679   H     0.97043   0.15522   0.50887   0.00000  Uiso   1.00
H680   H     0.72158   0.17075   0.55741   0.00000  Uiso   1.00
H681   H     0.79885   0.33801   0.50830   0.00000  Uiso   1.00
H682   H     0.82896   0.40585   0.55240   0.00000  Uiso   1.00
H683   H     0.91457   0.43756   0.54371   0.00000  Uiso   1.00
H684   H     0.97020   0.40101   0.99028   0.00000  Uiso   1.00
H685   H     0.94108   0.33285   0.94617   0.00000  Uiso   1.00
H686   H     0.86373   0.03062   0.82676   0.00000  Uiso   1.00
H687   H     0.86097   0.46953   0.68003   0.00000  Uiso   1.00
H688   H     0.86244   0.11104   0.82690   0.00000  Uiso   1.00
H689   H     0.85979   0.38913   0.67957   0.00000  Uiso   1.00
H690   H     0.80434   0.11070   0.67308   0.00000  Uiso   1.00
H691   H     0.80745   0.38926   0.82066   0.00000  Uiso   1.00
H692   H     0.80338   0.03024   0.67332   0.00000  Uiso   1.00
N693   N     0.83333   0.25001   0.62934   0.00000  Uiso   1.00
N694   N     0.83333   0.24999   0.87065   0.00000  Uiso   1.00
O695   O     0.83334   0.18572   0.79071   0.00000  Uiso   1.00
O696   O     0.83333   0.31427   0.70928   0.00000  Uiso   1.00
O697   O     0.83334   0.18573   0.70928   0.00000  Uiso   1.00
O698   O     0.83333   0.31427   0.79072   0.00000  Uiso   1.00
O699   O     0.75828   0.24999   0.78132   0.00000  Uiso   1.00
O700   O     0.90839   0.25000   0.71868   0.00000  Uiso   1.00
O701   O     0.75828   0.25000   0.69988   0.00000  Uiso   1.00
O702   O     0.90839   0.25000   0.80011   0.00000  Uiso   1.00
C703   C     0.16667   0.66495   0.74998   0.00000  Uiso   1.00
C704   C     0.18421   0.78814   0.94832   0.00000  Uiso   1.00
C705   C     0.16470   0.75047   0.52694   0.00000  Uiso   1.00
C706   C     0.16573   0.75126   0.97250   0.00000  Uiso   1.00
C707   C     0.06788   0.74996   0.73752   0.00000  Uiso   1.00
C708   C     0.26546   0.75001   0.76249   0.00000  Uiso   1.00
C709   C     0.01258   0.74990   0.73066   0.00000  Uiso   1.00
C710   C     0.32077   0.75002   0.76937   0.00000  Uiso   1.00
C711   C     0.18330   0.54774   0.79318   0.00000  Uiso   1.00
C712   C     0.18182   0.95236   0.71057   0.00000  Uiso   1.00
C713   C     0.18284   0.59364   0.79322   0.00000  Uiso   1.00
C714   C     0.16674   0.83506   0.75004   0.00000  Uiso   1.00
C715   C     0.18142   0.90646   0.71042   0.00000  Uiso   1.00
C716   C     0.16673   0.61673   0.74998   0.00000  Uiso   1.00
C717   C     0.16689   0.88330   0.75010   0.00000  Uiso   1.00
C718   C     0.15070   0.59344   0.70677   0.00000  Uiso   1.00
C719   C     0.15249   0.90654   0.78981   0.00000  Uiso   1.00
C720   C     0.15042   0.54753   0.70687   0.00000  Uiso   1.00
C721   C     0.15216   0.95244   0.78965   0.00000  Uiso   1.00
C722   C     0.16691   0.52430   0.75005   0.00000  Uiso   1.00
C723   C     0.16697   0.97573   0.75009   0.00000  Uiso   1.00
C724   C     0.06892   0.73029   0.51788   0.00000  Uiso   1.00
C725   C     0.21004   0.76014   0.55894   0.00000  Uiso   1.00
C726   C     0.04837   0.75845   0.97962   0.00000  Uiso   1.00
C727   C     0.00093   0.74878   0.95161   0.00000  Uiso   1.00
C728   C     0.30610   0.71173   0.96227   0.00000  Uiso   1.00
C729   C     0.32561   0.68395   0.50064   0.00000  Uiso   1.00
C730   C     0.04014   0.69302   0.52821   0.00000  Uiso   1.00
C731   C     0.20143   0.82964   0.97446   0.00000  Uiso   1.00
C732   C     0.16982   0.85109   0.50427   0.00000  Uiso   1.00
C733   C     0.18668   0.88974   0.52925   0.00000  Uiso   1.00
C734   C     0.23490   0.90764   0.52433   0.00000  Uiso   1.00
C735   C     0.26625   0.88703   0.99423   0.00000  Uiso   1.00
C736   C     0.14848   0.71425   0.94397   0.00000  Uiso   1.00
C737   C     0.24957   0.84834   0.96924   0.00000  Uiso   1.00
C738   C     0.21005   0.76045   0.60960   0.00000  Uiso   1.00
C739   C     0.14849   0.71451   0.89331   0.00000  Uiso   1.00
C740   C     0.12235   0.73939   0.59928   0.00000  Uiso   1.00
C741   C     0.18499   0.78598   0.89743   0.00000  Uiso   1.00
C742   C     0.11959   0.73994   0.54789   0.00000  Uiso   1.00
Cu743  Cu    0.16667   0.74999   0.79821   0.00000  Uiso   1.00
Cu744  Cu    0.16667   0.75000   0.70178   0.00000  Uiso   1.00
H745   H     0.32584   0.74972   0.69357   0.00000  Uiso   1.00
H746   H     0.13969   0.96968   0.82018   0.00000  Uiso   1.00
H747   H     0.24554   0.76774   0.54472   0.00000  Uiso   1.00
H748   H     0.13464   0.68517   0.96084   0.00000  Uiso   1.00
H749   H     0.24522   0.76914   0.63291   0.00000  Uiso   1.00
H750   H     0.13387   0.68601   0.87223   0.00000  Uiso   1.00
H751   H     0.08814   0.73107   0.61505   0.00000  Uiso   1.00
H752   H     0.19947   0.81385   0.87910   0.00000  Uiso   1.00
H753   H     0.06894   0.78781   0.97123   0.00000  Uiso   1.00
H754   H     0.31932   0.77001   0.92156   0.00000  Uiso   1.00
H755   H     0.26924   0.70450   0.94073   0.00000  Uiso   1.00
H756   H     0.00754   0.75015   0.80648   0.00000  Uiso   1.00
H757   H     0.30377   0.65522   0.50887   0.00000  Uiso   1.00
H758   H     0.05492   0.67075   0.55741   0.00000  Uiso   1.00
H759   H     0.13218   0.83801   0.50830   0.00000  Uiso   1.00
H760   H     0.16229   0.90585   0.55240   0.00000  Uiso   1.00
H761   H     0.24790   0.93756   0.54371   0.00000  Uiso   1.00
H762   H     0.30353   0.90101   0.99028   0.00000  Uiso   1.00
H763   H     0.27441   0.83285   0.94617   0.00000  Uiso   1.00
H764   H     0.19707   0.53062   0.82676   0.00000  Uiso   1.00
H765   H     0.19430   0.96953   0.68003   0.00000  Uiso   1.00
H766   H     0.19577   0.61104   0.82690   0.00000  Uiso   1.00
H767   H     0.19312   0.88913   0.67957   0.00000  Uiso   1.00
H768   H     0.13768   0.61070   0.67308   0.00000  Uiso   1.00
H769   H     0.14079   0.88926   0.82066   0.00000  Uiso   1.00
H770   H     0.13671   0.53024   0.67332   0.00000  Uiso   1.00
N771   N     0.16667   0.75001   0.62934   0.00000  Uiso   1.00
N772   N     0.16667   0.74999   0.87065   0.00000  Uiso   1.00
O773   O     0.16667   0.68572   0.79071   0.00000  Uiso   1.00
O774   O     0.16666   0.81427   0.70928   0.00000  Uiso   1.00
O775   O     0.16667   0.68573   0.70928   0.00000  Uiso   1.00
O776   O     0.16666   0.81427   0.79072   0.00000  Uiso   1.00
O777   O     0.09161   0.74999   0.78132   0.00000  Uiso   1.00
O778   O     0.24172   0.75000   0.71868   0.00000  Uiso   1.00
O779   O     0.09161   0.75000   0.69988   0.00000  Uiso   1.00
O780   O     0.24172   0.75000   0.80011   0.00000  Uiso   1.00
C781   C     0.50000   0.66495   0.74998   0.00000  Uiso   1.00
C782   C     0.51755   0.78814   0.94832   0.00000  Uiso   1.00
C783   C     0.49803   0.75047   0.52694   0.00000  Uiso   1.00
C784   C     0.49906   0.75126   0.97250   0.00000  Uiso   1.00
C785   C     0.40121   0.74996   0.73752   0.00000  Uiso   1.00
C786   C     0.59879   0.75001   0.76249   0.00000  Uiso   1.00
C787   C     0.34591   0.74990   0.73066   0.00000  Uiso   1.00
C788   C     0.65411   0.75002   0.76937   0.00000  Uiso   1.00
C789   C     0.51663   0.54774   0.79318   0.00000  Uiso   1.00
C790   C     0.51515   0.95236   0.71057   0.00000  Uiso   1.00
C791   C     0.51617   0.59364   0.79322   0.00000  Uiso   1.00
C792   C     0.50007   0.83506   0.75004   0.00000  Uiso   1.00
C793   C     0.51475   0.90646   0.71042   0.00000  Uiso   1.00
C794   C     0.50007   0.61673   0.74998   0.00000  Uiso   1.00
C795   C     0.50023   0.88330   0.75010   0.00000  Uiso   1.00
C796   C     0.48404   0.59344   0.70677   0.00000  Uiso   1.00
C797   C     0.48583   0.90654   0.78981   0.00000  Uiso   1.00
C798   C     0.48376   0.54753   0.70687   0.00000  Uiso   1.00
C799   C     0.48550   0.95244   0.78965   0.00000  Uiso   1.00
C800   C     0.50024   0.52430   0.75005   0.00000  Uiso   1.00
C801   C     0.50031   0.97573   0.75009   0.00000  Uiso   1.00
C802   C     0.40226   0.73029   0.51788   0.00000  Uiso   1.00
C803   C     0.54338   0.76014   0.55894   0.00000  Uiso   1.00
C804   C     0.38170   0.75845   0.97962   0.00000  Uiso   1.00
C805   C     0.33426   0.74878   0.95161   0.00000  Uiso   1.00
C806   C     0.63944   0.71173   0.96227   0.00000  Uiso   1.00
C807   C     0.65895   0.68395   0.50064   0.00000  Uiso   1.00
C808   C     0.37348   0.69302   0.52821   0.00000  Uiso   1.00
C809   C     0.53476   0.82964   0.97446   0.00000  Uiso   1.00
C810   C     0.50315   0.85109   0.50427   0.00000  Uiso   1.00
C811   C     0.52001   0.88974   0.52925   0.00000  Uiso   1.00
C812   C     0.56824   0.90764   0.52433   0.00000  Uiso   1.00
C813   C     0.59958   0.88703   0.99423   0.00000  Uiso   1.00
C814   C     0.48181   0.71425   0.94397   0.00000  Uiso   1.00
C815   C     0.58291   0.84834   0.96924   0.00000  Uiso   1.00
C816   C     0.54338   0.76045   0.60960   0.00000  Uiso   1.00
C817   C     0.48183   0.71451   0.89331   0.00000  Uiso   1.00
C818   C     0.45568   0.73939   0.59928   0.00000  Uiso   1.00
C819   C     0.51833   0.78598   0.89743   0.00000  Uiso   1.00
C820   C     0.45292   0.73994   0.54789   0.00000  Uiso   1.00
Cu821  Cu    0.50000   0.74999   0.79821   0.00000  Uiso   1.00
Cu822  Cu    0.50000   0.75000   0.70178   0.00000  Uiso   1.00
H823   H     0.65917   0.74972   0.69357   0.00000  Uiso   1.00
H824   H     0.47303   0.96968   0.82018   0.00000  Uiso   1.00
H825   H     0.57887   0.76774   0.54472   0.00000  Uiso   1.00
H826   H     0.46798   0.68517   0.96084   0.00000  Uiso   1.00
H827   H     0.57856   0.76914   0.63291   0.00000  Uiso   1.00
H828   H     0.46721   0.68601   0.87223   0.00000  Uiso   1.00
H829   H     0.42147   0.73107   0.61505   0.00000  Uiso   1.00
H830   H     0.53281   0.81385   0.87910   0.00000  Uiso   1.00
H831   H     0.40227   0.78781   0.97123   0.00000  Uiso   1.00
H832   H     0.65265   0.77001   0.92156   0.00000  Uiso   1.00
H833   H     0.60257   0.70450   0.94073   0.00000  Uiso   1.00
H834   H     0.34087   0.75015   0.80648   0.00000  Uiso   1.00
H835   H     0.63710   0.65522   0.50887   0.00000  Uiso   1.00
H836   H     0.38825   0.67075   0.55741   0.00000  Uiso   1.00
H837   H     0.46552   0.83801   0.50830   0.00000  Uiso   1.00
H838   H     0.49563   0.90585   0.55240   0.00000  Uiso   1.00
H839   H     0.58123   0.93756   0.54371   0.00000  Uiso   1.00
H840   H     0.63687   0.90101   0.99028   0.00000  Uiso   1.00
H841   H     0.60775   0.83285   0.94617   0.00000  Uiso   1.00
H842   H     0.53040   0.53062   0.82676   0.00000  Uiso   1.00
H843   H     0.52763   0.96953   0.68003   0.00000  Uiso   1.00
H844   H     0.52910   0.61104   0.82690   0.00000  Uiso   1.00
H845   H     0.52645   0.88913   0.67957   0.00000  Uiso   1.00
H846   H     0.47101   0.61070   0.67308   0.00000  Uiso   1.00
H847   H     0.47412   0.88926   0.82066   0.00000  Uiso   1.00
H848   H     0.47005   0.53024   0.67332   0.00000  Uiso   1.00
N849   N     0.50000   0.75001   0.62934   0.00000  Uiso   1.00
N850   N     0.50000   0.74999   0.87065   0.00000  Uiso   1.00
O851   O     0.50000   0.68572   0.79071   0.00000  Uiso   1.00
O852   O     0.50000   0.81427   0.70928   0.00000  Uiso   1.00
O853   O     0.50000   0.68573   0.70928   0.00000  Uiso   1.00
O854   O     0.50000   0.81427   0.79072   0.00000  Uiso   1.00
O855   O     0.42495   0.74999   0.78132   0.00000  Uiso   1.00
O856   O     0.57505   0.75000   0.71868   0.00000  Uiso   1.00
O857   O     0.42495   0.75000   0.69988   0.00000  Uiso   1.00
O858   O     0.57505   0.75000   0.80011   0.00000  Uiso   1.00
C859   C     0.83333   0.66495   0.74998   0.00000  Uiso   1.00
C860   C     0.85088   0.78814   0.94832   0.00000  Uiso   1.00
C861   C     0.83137   0.75047   0.52694   0.00000  Uiso   1.00
C862   C     0.83240   0.75126   0.97250   0.00000  Uiso   1.00
C863   C     0.73455   0.74996   0.73752   0.00000  Uiso   1.00
C864   C     0.93213   0.75001   0.76249   0.00000  Uiso   1.00
C865   C     0.67924   0.74990   0.73066   0.00000  Uiso   1.00
C866   C     0.98744   0.75002   0.76937   0.00000  Uiso   1.00
C867   C     0.84997   0.54774   0.79318   0.00000  Uiso   1.00
C868   C     0.84848   0.95236   0.71057   0.00000  Uiso   1.00
C869   C     0.84950   0.59364   0.79322   0.00000  Uiso   1.00
C870   C     0.83341   0.83506   0.75004   0.00000  Uiso   1.00
C871   C     0.84809   0.90646   0.71042   0.00000  Uiso   1.00
C872   C     0.83340   0.61673   0.74998   0.00000  Uiso   1.00
C873   C     0.83356   0.88330   0.75010   0.00000  Uiso   1.00
C874   C     0.81737   0.59344   0.70677   0.00000  Uiso   1.00
C875   C     0.81916   0.90654   0.78981   0.00000  Uiso   1.00
C876   C     0.81709   0.54753   0.70687   0.00000  Uiso   1.00
C877   C     0.81883   0.95244   0.78965   0.00000  Uiso   1.00
C878   C     0.83358   0.52430   0.75005   0.00000  Uiso   1.00
C879   C     0.83364   0.97573   0.75009   0.00000  Uiso   1.00
C880   C     0.73559   0.73029   0.51788   0.00000  Uiso   1.00
C881   C     0.87671   0.76014   0.55894   0.00000  Uiso   1.00
C882   C     0.71504   0.75845   0.97962   0.00000  Uiso   1.00
C883   C     0.66760   0.74878   0.95161   0.00000  Uiso   1.00
C884   C     0.97277   0.71173   0.96227   0.00000  Uiso   1.00
C885   C     0.99228   0.68395   0.50064   0.00000  Uiso   1.00
C886   C     0.70681   0.69302   0.52821   0.00000  Uiso   1.00
C887   C     0.86809   0.82964   0.97446   0.00000  Uiso   1.00
C888   C     0.83648   0.85109   0.50427   0.00000  Uiso   1.00
C889   C     0.85334   0.88974   0.52925   0.00000  Uiso   1.00
C890   C     0.90157   0.90764   0.52433   0.00000  Uiso   1.00
C891   C     0.93292   0.88703   0.99423   0.00000  Uiso   1.00
C892   C     0.81514   0.71425   0.94397   0.00000  Uiso   1.00
C893   C     0.91624   0.84834   0.96924   0.00000  Uiso   1.00
C894   C     0.87672   0.76045   0.60960   0.00000  Uiso   1.00
C895   C     0.81516   0.71451   0.89331   0.00000  Uiso   1.00
C896   C     0.78901   0.73939   0.59928   0.00000  Uiso   1.00
C897   C     0.85166   0.78598   0.89743   0.00000  Uiso   1.00
C898   C     0.78625   0.73994   0.54789   0.00000  Uiso   1.00
Cu899  Cu    0.83333   0.74999   0.79821   0.00000  Uiso   1.00
Cu900  Cu    0.83333   0.75000   0.70178   0.00000  Uiso   1.00
H901   H     0.99251   0.74972   0.69357   0.00000  Uiso   1.00
H902   H     0.80636   0.96968   0.82018   0.00000  Uiso   1.00
H903   H     0.91221   0.76774   0.54472   0.00000  Uiso   1.00
H904   H     0.80131   0.68517   0.96084   0.00000  Uiso   1.00
H905   H     0.91189   0.76914   0.63291   0.00000  Uiso   1.00
H906   H     0.80054   0.68601   0.87223   0.00000  Uiso   1.00
H907   H     0.75480   0.73107   0.61505   0.00000  Uiso   1.00
H908   H     0.86614   0.81385   0.87910   0.00000  Uiso   1.00
H909   H     0.73560   0.78781   0.97123   0.00000  Uiso   1.00
H910   H     0.98599   0.77001   0.92156   0.00000  Uiso   1.00
H911   H     0.93590   0.70450   0.94073   0.00000  Uiso   1.00
H912   H     0.67421   0.75015   0.80648   0.00000  Uiso   1.00
H913   H     0.97043   0.65522   0.50887   0.00000  Uiso   1.00
H914   H     0.72158   0.67075   0.55741   0.00000  Uiso   1.00
H915   H     0.79885   0.83801   0.50830   0.00000  Uiso   1.00
H916   H     0.82896   0.90585   0.55240   0.00000  Uiso   1.00
H917   H     0.91457   0.93756   0.54371   0.00000  Uiso   1.00
H918   H     0.97020   0.90101   0.99028   0.00000  Uiso   1.00
H919   H     0.94108   0.83285   0.94617   0.00000  Uiso   1.00
H920   H     0.86373   0.53062   0.82676   0.00000  Uiso   1.00
H921   H     0.86097   0.96953   0.68003   0.00000  Uiso   1.00
H922   H     0.86244   0.61104   0.82690   0.00000  Uiso   1.00
H923   H     0.85979   0.88913   0.67957   0.00000  Uiso   1.00
H924   H     0.80434   0.61070   0.67308   0.00000  Uiso   1.00
H925   H     0.80745   0.88926   0.82066   0.00000  Uiso   1.00
H926   H     0.80338   0.53024   0.67332   0.00000  Uiso   1.00
N927   N     0.83333   0.75001   0.62934   0.00000  Uiso   1.00
N928   N     0.83333   0.74999   0.87065   0.00000  Uiso   1.00
O929   O     0.83334   0.68572   0.79071   0.00000  Uiso   1.00
O930   O     0.83333   0.81427   0.70928   0.00000  Uiso   1.00
O931   O     0.83334   0.68573   0.70928   0.00000  Uiso   1.00
O932   O     0.83333   0.81427   0.79072   0.00000  Uiso   1.00
O933   O     0.75828   0.74999   0.78132   0.00000  Uiso   1.00
O934   O     0.90839   0.75000   0.71868   0.00000  Uiso   1.00
O935   O     0.75828   0.75000   0.69988   0.00000  Uiso   1.00
O936   O     0.90839   0.75000   0.80011   0.00000  Uiso   1.00
loop_
_geom_bond_atom_site_label_1
_geom_bond_atom_site_label_2
_geom_bond_distance
_geom_bond_site_symmetry_2
_ccdc_geom_bond_type
C1     O71     1.292   .     A
C1     O73     1.293   .     A
C1     C14     1.460   .     S
C2     C29     1.487   .     S
C2     C39     1.416   .     A
C2     C4      1.422   .     A
C3     C23     1.408   .     A
C3     C40     1.423   .     A
C3     C472    1.514   1_554 S
C4     C34     1.408   .     A
C4     C471    1.514   .     S
C5     C7      1.432   .     S
C5     O75     1.284   .     A
C5     O77     1.287   .     A
C6     O78     1.287   .     A
C6     C8      1.433   .     S
C6     O76     1.284   .     A
C7     C164    1.335   1_455 S
C7     H199    1.087   1_455 S
C8     C85     1.335   .     S
C8     H132    1.087   .     S
C9     H62     1.083   .     S
C9     C20     1.404   .     A
C9     C11     1.390   .     A
C10    H63     1.083   .     S
C10    C21     1.404   .     A
C10    C13     1.390   .     A
C11    C14     1.402   .     A
C11    H64     1.083   .     S
C12    O74     1.293   .     A
C12    O72     1.293   .     A
C12    C15     1.460   .     S
C13    H65     1.083   .     S
C13    C15     1.402   .     A
C14    C16     1.401   .     A
C15    C17     1.402   .     A
C16    H66     1.083   .     S
C16    C18     1.390   .     A
C17    C19     1.390   .     A
C17    H67     1.083   .     S
C18    H68     1.083   .     S
C18    C20     1.404   .     A
C19    H44     1.083   .     S
C19    C21     1.404   .     A
C20    C255    1.470   1_545 S
C21    C254    1.470   .     S
C22    C28     1.408   .     A
C22    C40     1.491   .     S
C22    C492    1.408   1_554 S
C23    H45     1.083   .     S
C23    C36     1.405   .     A
C24    H51     1.081   .     S
C24    C25     1.399   .     A
C24    C490    1.408   .     S
C25    C182    1.396   1_455 S
C25    H208    1.082   1_455 S
C26    H53     1.082   .     S
C26    C103    1.396   .     S
C26    C495    1.396   .     S
C27    H55     1.082   .     S
C27    C494    1.396   1_554 S
C27    C106    1.399   .     S
C28    H56     1.083   .     S
C28    C183    1.399   1_455 S
C29    C35     1.406   .     A
C29    C498    1.408   .     S
C30    C31     1.398   .     A
C30    H57     1.081   .     S
C30    C497    1.408   1_554 S
C31    H58     1.082   .     S
C31    C32     1.397   .     A
C32    H59     1.082   .     S
C32    C501    1.397   1_554 S
C33    H60     1.082   .     S
C33    C35     1.398   .     A
C33    C500    1.397   .     S
C34    C37     1.405   .     A
C34    H46     1.083   .     S
C35    H61     1.081   .     S
C36    H47     1.079   .     S
C36    N69     1.364   .     A
C37    N70     1.364   .     A
C37    H48     1.081   .     S
C38    H49     1.079   .     S
C38    N69     1.367   .     A
C38    C40     1.417   .     A
C39    N70     1.366   .     A
C39    H50     1.081   .     S
Cu41   Cu42    2.674   .     S
Cu41   O74     1.957   .     S
Cu41   O71     1.957   .     S
Cu41   O78     1.956   .     S
Cu41   O75     1.953   .     S
Cu41   N70     2.009   .     S
Cu42   N69     2.009   .     S
Cu42   O72     1.957   .     S
Cu42   O73     1.957   .     S
Cu42   O76     1.953   .     S
Cu42   O77     1.956   .     S
H43    C85     1.087   .     S
H52    C103    1.082   .     S
H54    C164    1.087   1_455 S
C79    O149    1.292   .     A
C79    O151    1.293   .     A
C79    C92     1.460   .     S
C80    C107    1.487   .     S
C80    C117    1.416   .     A
C80    C82     1.422   .     A
C81    C101    1.408   .     A
C81    C118    1.423   .     A
C81    C550    1.514   1_554 S
C82    C112    1.408   .     A
C82    C549    1.514   .     S
C83    C85     1.432   .     S
C83    O153    1.284   .     A
C83    O155    1.287   .     A
C84    O156    1.287   .     A
C84    C86     1.433   .     S
C84    O154    1.284   .     A
C86    C163    1.335   .     S
C86    H210    1.087   .     S
C87    H140    1.083   .     S
C87    C98     1.404   .     A
C87    C89     1.390   .     A
C88    H141    1.083   .     S
C88    C99     1.404   .     A
C88    C91     1.390   .     A
C89    C92     1.402   .     A
C89    H142    1.083   .     S
C90    O152    1.293   .     A
C90    O150    1.293   .     A
C90    C93     1.460   .     S
C91    H143    1.083   .     S
C91    C93     1.402   .     A
C92    C94     1.401   .     A
C93    C95     1.402   .     A
C94    H144    1.083   .     S
C94    C96     1.390   .     A
C95    C97     1.390   .     A
C95    H145    1.083   .     S
C96    H146    1.083   .     S
C96    C98     1.404   .     A
C97    H122    1.083   .     S
C97    C99     1.404   .     A
C98    C333    1.470   1_545 S
C99    C332    1.470   .     S
C100   C106    1.408   .     A
C100   C118    1.491   .     S
C100   C570    1.408   1_554 S
C101   H123    1.083   .     S
C101   C114    1.405   .     A
C102   H129    1.081   .     S
C102   C103    1.399   .     A
C102   C568    1.408   .     S
C104   H131    1.082   .     S
C104   C181    1.396   .     S
C104   C573    1.396   .     S
C105   H133    1.082   .     S
C105   C572    1.396   1_554 S
C105   C184    1.399   .     S
C106   H134    1.083   .     S
C107   C113    1.406   .     A
C107   C576    1.408   .     S
C108   C109    1.398   .     A
C108   H135    1.081   .     S
C108   C575    1.408   1_554 S
C109   H136    1.082   .     S
C109   C110    1.397   .     A
C110   H137    1.082   .     S
C110   C579    1.397   1_554 S
C111   H138    1.082   .     S
C111   C113    1.398   .     A
C111   C578    1.397   .     S
C112   C115    1.405   .     A
C112   H124    1.083   .     S
C113   H139    1.081   .     S
C114   H125    1.079   .     S
C114   N147    1.364   .     A
C115   N148    1.364   .     A
C115   H126    1.081   .     S
C116   H127    1.079   .     S
C116   N147    1.367   .     A
C116   C118    1.417   .     A
C117   N148    1.366   .     A
C117   H128    1.081   .     S
Cu119  Cu120   2.674   .     S
Cu119  O152    1.957   .     S
Cu119  O149    1.957   .     S
Cu119  O156    1.956   .     S
Cu119  O153    1.953   .     S
Cu119  N148    2.009   .     S
Cu120  N147    2.009   .     S
Cu120  O150    1.957   .     S
Cu120  O151    1.957   .     S
Cu120  O154    1.953   .     S
Cu120  O155    1.956   .     S
H121   C163    1.087   .     S
H130   C181    1.082   .     S
C157   O227    1.292   .     A
C157   O229    1.293   .     A
C157   C170    1.460   .     S
C158   C185    1.487   .     S
C158   C195    1.416   .     A
C158   C160    1.422   .     A
C159   C179    1.408   .     A
C159   C196    1.423   .     A
C159   C628    1.514   1_554 S
C160   C190    1.408   .     A
C160   C627    1.514   .     S
C161   C163    1.432   .     S
C161   O231    1.284   .     A
C161   O233    1.287   .     A
C162   O234    1.287   .     A
C162   C164    1.433   .     S
C162   O232    1.284   .     A
C164   C7      1.335   1_655 S
C164   H54     1.087   1_655 S
C165   H218    1.083   .     S
C165   C176    1.404   .     A
C165   C167    1.390   .     A
C166   H219    1.083   .     S
C166   C177    1.404   .     A
C166   C169    1.390   .     A
C167   C170    1.402   .     A
C167   H220    1.083   .     S
C168   O230    1.293   .     A
C168   O228    1.293   .     A
C168   C171    1.460   .     S
C169   H221    1.083   .     S
C169   C171    1.402   .     A
C170   C172    1.401   .     A
C171   C173    1.402   .     A
C172   H222    1.083   .     S
C172   C174    1.390   .     A
C173   C175    1.390   .     A
C173   H223    1.083   .     S
C174   H224    1.083   .     S
C174   C176    1.404   .     A
C175   H200    1.083   .     S
C175   C177    1.404   .     A
C176   C411    1.470   1_545 S
C177   C410    1.470   .     S
C178   C184    1.408   .     A
C178   C196    1.491   .     S
C178   C648    1.408   1_554 S
C179   H201    1.083   .     S
C179   C192    1.405   .     A
C180   H207    1.081   .     S
C180   C181    1.399   .     A
C180   C646    1.408   .     S
C182   H209    1.082   .     S
C182   C25     1.396   1_655 S
C182   C651    1.396   .     S
C183   H211    1.082   .     S
C183   C650    1.396   1_554 S
C183   C28     1.399   1_655 S
C184   H212    1.083   .     S
C185   C191    1.406   .     A
C185   C654    1.408   .     S
C186   C187    1.398   .     A
C186   H213    1.081   .     S
C186   C653    1.408   1_554 S
C187   H214    1.082   .     S
C187   C188    1.397   .     A
C188   H215    1.082   .     S
C188   C657    1.397   1_554 S
C189   H216    1.082   .     S
C189   C191    1.398   .     A
C189   C656    1.397   .     S
C190   C193    1.405   .     A
C190   H202    1.083   .     S
C191   H217    1.081   .     S
C192   H203    1.079   .     S
C192   N225    1.364   .     A
C193   N226    1.364   .     A
C193   H204    1.081   .     S
C194   H205    1.079   .     S
C194   N225    1.367   .     A
C194   C196    1.417   .     A
C195   N226    1.366   .     A
C195   H206    1.081   .     S
Cu197  Cu198   2.674   .     S
Cu197  O230    1.957   .     S
Cu197  O227    1.957   .     S
Cu197  O234    1.956   .     S
Cu197  O231    1.953   .     S
Cu197  N226    2.009   .     S
Cu198  N225    2.009   .     S
Cu198  O228    1.957   .     S
Cu198  O229    1.957   .     S
Cu198  O232    1.953   .     S
Cu198  O233    1.956   .     S
H199   C7      1.087   1_655 S
H208   C25     1.082   1_655 S
C235   O305    1.292   .     A
C235   O307    1.293   .     A
C235   C248    1.460   .     S
C236   C263    1.487   .     S
C236   C273    1.416   .     A
C236   C238    1.422   .     A
C237   C257    1.408   .     A
C237   C274    1.423   .     A
C237   C706    1.514   1_554 S
C238   C268    1.408   .     A
C238   C705    1.514   .     S
C239   C241    1.432   .     S
C239   O309    1.284   .     A
C239   O311    1.287   .     A
C240   O312    1.287   .     A
C240   C242    1.433   .     S
C240   O310    1.284   .     A
C241   C398    1.335   1_455 S
C241   H433    1.087   1_455 S
C242   C319    1.335   .     S
C242   H366    1.087   .     S
C243   H296    1.083   .     S
C243   C254    1.404   .     A
C243   C245    1.390   .     A
C244   H297    1.083   .     S
C244   C255    1.404   .     A
C244   C247    1.390   .     A
C245   C248    1.402   .     A
C245   H298    1.083   .     S
C246   O308    1.293   .     A
C246   O306    1.293   .     A
C246   C249    1.460   .     S
C247   H299    1.083   .     S
C247   C249    1.402   .     A
C248   C250    1.401   .     A
C249   C251    1.402   .     A
C250   H300    1.083   .     S
C250   C252    1.390   .     A
C251   C253    1.390   .     A
C251   H301    1.083   .     S
C252   H302    1.083   .     S
C252   C254    1.404   .     A
C253   H278    1.083   .     S
C253   C255    1.404   .     A
C255   C20     1.470   1_565 S
C256   C262    1.408   .     A
C256   C274    1.491   .     S
C256   C726    1.408   1_554 S
C257   H279    1.083   .     S
C257   C270    1.405   .     A
C258   H285    1.081   .     S
C258   C259    1.399   .     A
C258   C724    1.408   .     S
C259   C416    1.396   1_455 S
C259   H442    1.082   1_455 S
C260   H287    1.082   .     S
C260   C337    1.396   .     S
C260   C729    1.396   .     S
C261   H289    1.082   .     S
C261   C728    1.396   1_554 S
C261   C340    1.399   .     S
C262   H290    1.083   .     S
C262   C417    1.399   1_455 S
C263   C269    1.406   .     A
C263   C732    1.408   .     S
C264   C265    1.398   .     A
C264   H291    1.081   .     S
C264   C731    1.408   1_554 S
C265   H292    1.082   .     S
C265   C266    1.397   .     A
C266   H293    1.082   .     S
C266   C735    1.397   1_554 S
C267   H294    1.082   .     S
C267   C269    1.398   .     A
C267   C734    1.397   .     S
C268   C271    1.405   .     A
C268   H280    1.083   .     S
C269   H295    1.081   .     S
C270   H281    1.079   .     S
C270   N303    1.364   .     A
C271   N304    1.364   .     A
C271   H282    1.081   .     S
C272   H283    1.079   .     S
C272   N303    1.367   .     A
C272   C274    1.417   .     A
C273   N304    1.366   .     A
C273   H284    1.081   .     S
Cu275  Cu276   2.674   .     S
Cu275  O308    1.957   .     S
Cu275  O305    1.957   .     S
Cu275  O312    1.956   .     S
Cu275  O309    1.953   .     S
Cu275  N304    2.009   .     S
Cu276  N303    2.009   .     S
Cu276  O306    1.957   .     S
Cu276  O307    1.957   .     S
Cu276  O310    1.953   .     S
Cu276  O311    1.956   .     S
H277   C319    1.087   .     S
H286   C337    1.082   .     S
H288   C398    1.087   1_455 S
C313   O383    1.292   .     A
C313   O385    1.293   .     A
C313   C326    1.460   .     S
C314   C341    1.487   .     S
C314   C351    1.416   .     A
C314   C316    1.422   .     A
C315   C335    1.408   .     A
C315   C352    1.423   .     A
C315   C784    1.514   1_554 S
C316   C346    1.408   .     A
C316   C783    1.514   .     S
C317   C319    1.432   .     S
C317   O387    1.284   .     A
C317   O389    1.287   .     A
C318   O390    1.287   .     A
C318   C320    1.433   .     S
C318   O388    1.284   .     A
C320   C397    1.335   .     S
C320   H444    1.087   .     S
C321   H374    1.083   .     S
C321   C332    1.404   .     A
C321   C323    1.390   .     A
C322   H375    1.083   .     S
C322   C333    1.404   .     A
C322   C325    1.390   .     A
C323   C326    1.402   .     A
C323   H376    1.083   .     S
C324   O386    1.293   .     A
C324   O384    1.293   .     A
C324   C327    1.460   .     S
C325   H377    1.083   .     S
C325   C327    1.402   .     A
C326   C328    1.401   .     A
C327   C329    1.402   .     A
C328   H378    1.083   .     S
C328   C330    1.390   .     A
C329   C331    1.390   .     A
C329   H379    1.083   .     S
C330   H380    1.083   .     S
C330   C332    1.404   .     A
C331   H356    1.083   .     S
C331   C333    1.404   .     A
C333   C98     1.470   1_565 S
C334   C340    1.408   .     A
C334   C352    1.491   .     S
C334   C804    1.408   1_554 S
C335   H357    1.083   .     S
C335   C348    1.405   .     A
C336   H363    1.081   .     S
C336   C337    1.399   .     A
C336   C802    1.408   .     S
C338   H365    1.082   .     S
C338   C415    1.396   .     S
C338   C807    1.396   .     S
C339   H367    1.082   .     S
C339   C806    1.396   1_554 S
C339   C418    1.399   .     S
C340   H368    1.083   .     S
C341   C347    1.406   .     A
C341   C810    1.408   .     S
C342   C343    1.398   .     A
C342   H369    1.081   .     S
C342   C809    1.408   1_554 S
C343   H370    1.082   .     S
C343   C344    1.397   .     A
C344   H371    1.082   .     S
C344   C813    1.397   1_554 S
C345   H372    1.082   .     S
C345   C347    1.398   .     A
C345   C812    1.397   .     S
C346   C349    1.405   .     A
C346   H358    1.083   .     S
C347   H373    1.081   .     S
C348   H359    1.079   .     S
C348   N381    1.364   .     A
C349   N382    1.364   .     A
C349   H360    1.081   .     S
C350   H361    1.079   .     S
C350   N381    1.367   .     A
C350   C352    1.417   .     A
C351   N382    1.366   .     A
C351   H362    1.081   .     S
Cu353  Cu354   2.674   .     S
Cu353  O386    1.957   .     S
Cu353  O383    1.957   .     S
Cu353  O390    1.956   .     S
Cu353  O387    1.953   .     S
Cu353  N382    2.009   .     S
Cu354  N381    2.009   .     S
Cu354  O384    1.957   .     S
Cu354  O385    1.957   .     S
Cu354  O388    1.953   .     S
Cu354  O389    1.956   .     S
H355   C397    1.087   .     S
H364   C415    1.082   .     S
C391   O461    1.292   .     A
C391   O463    1.293   .     A
C391   C404    1.460   .     S
C392   C419    1.487   .     S
C392   C429    1.416   .     A
C392   C394    1.422   .     A
C393   C413    1.408   .     A
C393   C430    1.423   .     A
C393   C862    1.514   1_554 S
C394   C424    1.408   .     A
C394   C861    1.514   .     S
C395   C397    1.432   .     S
C395   O465    1.284   .     A
C395   O467    1.287   .     A
C396   O468    1.287   .     A
C396   C398    1.433   .     S
C396   O466    1.284   .     A
C398   C241    1.335   1_655 S
C398   H288    1.087   1_655 S
C399   H452    1.083   .     S
C399   C410    1.404   .     A
C399   C401    1.390   .     A
C400   H453    1.083   .     S
C400   C411    1.404   .     A
C400   C403    1.390   .     A
C401   C404    1.402   .     A
C401   H454    1.083   .     S
C402   O464    1.293   .     A
C402   O462    1.293   .     A
C402   C405    1.460   .     S
C403   H455    1.083   .     S
C403   C405    1.402   .     A
C404   C406    1.401   .     A
C405   C407    1.402   .     A
C406   H456    1.083   .     S
C406   C408    1.390   .     A
C407   C409    1.390   .     A
C407   H457    1.083   .     S
C408   H458    1.083   .     S
C408   C410    1.404   .     A
C409   H434    1.083   .     S
C409   C411    1.404   .     A
C411   C176    1.470   1_565 S
C412   C418    1.408   .     A
C412   C430    1.491   .     S
C412   C882    1.408   1_554 S
C413   H435    1.083   .     S
C413   C426    1.405   .     A
C414   H441    1.081   .     S
C414   C415    1.399   .     A
C414   C880    1.408   .     S
C416   H443    1.082   .     S
C416   C259    1.396   1_655 S
C416   C885    1.396   .     S
C417   H445    1.082   .     S
C417   C884    1.396   1_554 S
C417   C262    1.399   1_655 S
C418   H446    1.083   .     S
C419   C425    1.406   .     A
C419   C888    1.408   .     S
C420   C421    1.398   .     A
C420   H447    1.081   .     S
C420   C887    1.408   1_554 S
C421   H448    1.082   .     S
C421   C422    1.397   .     A
C422   H449    1.082   .     S
C422   C891    1.397   1_554 S
C423   H450    1.082   .     S
C423   C425    1.398   .     A
C423   C890    1.397   .     S
C424   C427    1.405   .     A
C424   H436    1.083   .     S
C425   H451    1.081   .     S
C426   H437    1.079   .     S
C426   N459    1.364   .     A
C427   N460    1.364   .     A
C427   H438    1.081   .     S
C428   H439    1.079   .     S
C428   N459    1.367   .     A
C428   C430    1.417   .     A
C429   N460    1.366   .     A
C429   H440    1.081   .     S
Cu431  Cu432   2.674   .     S
Cu431  O464    1.957   .     S
Cu431  O461    1.957   .     S
Cu431  O468    1.956   .     S
Cu431  O465    1.953   .     S
Cu431  N460    2.009   .     S
Cu432  N459    2.009   .     S
Cu432  O462    1.957   .     S
Cu432  O463    1.957   .     S
Cu432  O466    1.953   .     S
Cu432  O467    1.956   .     S
H433   C241    1.087   1_655 S
H442   C259    1.082   1_655 S
C469   O539    1.292   .     A
C469   O541    1.293   .     A
C469   C482    1.460   .     S
C470   C497    1.487   .     S
C470   C507    1.416   .     A
C470   C472    1.422   .     A
C471   C491    1.408   .     A
C471   C508    1.423   .     A
C472   C502    1.408   .     A
C472   C3      1.514   1_556 S
C473   C475    1.432   .     S
C473   O543    1.284   .     A
C473   O545    1.287   .     A
C474   O546    1.287   .     A
C474   C476    1.433   .     S
C474   O544    1.284   .     A
C475   C632    1.335   1_455 S
C475   H667    1.087   1_455 S
C476   C553    1.335   .     S
C476   H600    1.087   .     S
C477   H530    1.083   .     S
C477   C488    1.404   .     A
C477   C479    1.390   .     A
C478   H531    1.083   .     S
C478   C489    1.404   .     A
C478   C481    1.390   .     A
C479   C482    1.402   .     A
C479   H532    1.083   .     S
C480   O542    1.293   .     A
C480   O540    1.293   .     A
C480   C483    1.460   .     S
C481   H533    1.083   .     S
C481   C483    1.402   .     A
C482   C484    1.401   .     A
C483   C485    1.402   .     A
C484   H534    1.083   .     S
C484   C486    1.390   .     A
C485   C487    1.390   .     A
C485   H535    1.083   .     S
C486   H536    1.083   .     S
C486   C488    1.404   .     A
C487   H512    1.083   .     S
C487   C489    1.404   .     A
C488   C723    1.470   1_545 S
C489   C722    1.470   .     S
C490   C496    1.408   .     A
C490   C508    1.491   .     S
C491   H513    1.083   .     S
C491   C504    1.405   .     A
C492   H519    1.081   .     S
C492   C493    1.399   .     A
C492   C22     1.408   1_556 S
C493   C650    1.396   1_455 S
C493   H676    1.082   1_455 S
C494   H521    1.082   .     S
C494   C571    1.396   .     S
C494   C27     1.396   1_556 S
C495   H523    1.082   .     S
C495   C574    1.399   .     S
C496   H524    1.083   .     S
C496   C651    1.399   1_455 S
C497   C503    1.406   .     A
C497   C30     1.408   1_556 S
C498   C499    1.398   .     A
C498   H525    1.081   .     S
C499   H526    1.082   .     S
C499   C500    1.397   .     A
C500   H527    1.082   .     S
C501   H528    1.082   .     S
C501   C503    1.398   .     A
C501   C32     1.397   1_556 S
C502   C505    1.405   .     A
C502   H514    1.083   .     S
C503   H529    1.081   .     S
C504   H515    1.079   .     S
C504   N537    1.364   .     A
C505   N538    1.364   .     A
C505   H516    1.081   .     S
C506   H517    1.079   .     S
C506   N537    1.367   .     A
C506   C508    1.417   .     A
C507   N538    1.366   .     A
C507   H518    1.081   .     S
Cu509  Cu510   2.674   .     S
Cu509  O542    1.957   .     S
Cu509  O539    1.957   .     S
Cu509  O546    1.956   .     S
Cu509  O543    1.953   .     S
Cu509  N538    2.009   .     S
Cu510  N537    2.009   .     S
Cu510  O540    1.957   .     S
Cu510  O541    1.957   .     S
Cu510  O544    1.953   .     S
Cu510  O545    1.956   .     S
H511   C553    1.087   .     S
H520   C571    1.082   .     S
H522   C632    1.087   1_455 S
C547   O617    1.292   .     A
C547   O619    1.293   .     A
C547   C560    1.460   .     S
C548   C575    1.487   .     S
C548   C585    1.416   .     A
C548   C550    1.422   .     A
C549   C569    1.408   .     A
C549   C586    1.423   .     A
C550   C580    1.408   .     A
C550   C81     1.514   1_556 S
C551   C553    1.432   .     S
C551   O621    1.284   .     A
C551   O623    1.287   .     A
C552   O624    1.287   .     A
C552   C554    1.433   .     S
C552   O622    1.284   .     A
C554   C631    1.335   .     S
C554   H678    1.087   .     S
C555   H608    1.083   .     S
C555   C566    1.404   .     A
C555   C557    1.390   .     A
C556   H609    1.083   .     S
C556   C567    1.404   .     A
C556   C559    1.390   .     A
C557   C560    1.402   .     A
C557   H610    1.083   .     S
C558   O620    1.293   .     A
C558   O618    1.293   .     A
C558   C561    1.460   .     S
C559   H611    1.083   .     S
C559   C561    1.402   .     A
C560   C562    1.401   .     A
C561   C563    1.402   .     A
C562   H612    1.083   .     S
C562   C564    1.390   .     A
C563   C565    1.390   .     A
C563   H613    1.083   .     S
C564   H614    1.083   .     S
C564   C566    1.404   .     A
C565   H590    1.083   .     S
C565   C567    1.404   .     A
C566   C801    1.470   1_545 S
C567   C800    1.470   .     S
C568   C574    1.408   .     A
C568   C586    1.491   .     S
C569   H591    1.083   .     S
C569   C582    1.405   .     A
C570   H597    1.081   .     S
C570   C571    1.399   .     A
C570   C100    1.408   1_556 S
C572   H599    1.082   .     S
C572   C649    1.396   .     S
C572   C105    1.396   1_556 S
C573   H601    1.082   .     S
C573   C652    1.399   .     S
C574   H602    1.083   .     S
C575   C581    1.406   .     A
C575   C108    1.408   1_556 S
C576   C577    1.398   .     A
C576   H603    1.081   .     S
C577   H604    1.082   .     S
C577   C578    1.397   .     A
C578   H605    1.082   .     S
C579   H606    1.082   .     S
C579   C581    1.398   .     A
C579   C110    1.397   1_556 S
C580   C583    1.405   .     A
C580   H592    1.083   .     S
C581   H607    1.081   .     S
C582   H593    1.079   .     S
C582   N615    1.364   .     A
C583   N616    1.364   .     A
C583   H594    1.081   .     S
C584   H595    1.079   .     S
C584   N615    1.367   .     A
C584   C586    1.417   .     A
C585   N616    1.366   .     A
C585   H596    1.081   .     S
Cu587  Cu588   2.674   .     S
Cu587  O620    1.957   .     S
Cu587  O617    1.957   .     S
Cu587  O624    1.956   .     S
Cu587  O621    1.953   .     S
Cu587  N616    2.009   .     S
Cu588  N615    2.009   .     S
Cu588  O618    1.957   .     S
Cu588  O619    1.957   .     S
Cu588  O622    1.953   .     S
Cu588  O623    1.956   .     S
H589   C631    1.087   .     S
H598   C649    1.082   .     S
C625   O695    1.292   .     A
C625   O697    1.293   .     A
C625   C638    1.460   .     S
C626   C653    1.487   .     S
C626   C663    1.416   .     A
C626   C628    1.422   .     A
C627   C647    1.408   .     A
C627   C664    1.423   .     A
C628   C658    1.408   .     A
C628   C159    1.514   1_556 S
C629   C631    1.432   .     S
C629   O699    1.284   .     A
C629   O701    1.287   .     A
C630   O702    1.287   .     A
C630   C632    1.433   .     S
C630   O700    1.284   .     A
C632   C475    1.335   1_655 S
C632   H522    1.087   1_655 S
C633   H686    1.083   .     S
C633   C644    1.404   .     A
C633   C635    1.390   .     A
C634   H687    1.083   .     S
C634   C645    1.404   .     A
C634   C637    1.390   .     A
C635   C638    1.402   .     A
C635   H688    1.083   .     S
C636   O698    1.293   .     A
C636   O696    1.293   .     A
C636   C639    1.460   .     S
C637   H689    1.083   .     S
C637   C639    1.402   .     A
C638   C640    1.401   .     A
C639   C641    1.402   .     A
C640   H690    1.083   .     S
C640   C642    1.390   .     A
C641   C643    1.390   .     A
C641   H691    1.083   .     S
C642   H692    1.083   .     S
C642   C644    1.404   .     A
C643   H668    1.083   .     S
C643   C645    1.404   .     A
C644   C879    1.470   1_545 S
C645   C878    1.470   .     S
C646   C652    1.408   .     A
C646   C664    1.491   .     S
C647   H669    1.083   .     S
C647   C660    1.405   .     A
C648   H675    1.081   .     S
C648   C649    1.399   .     A
C648   C178    1.408   1_556 S
C650   H677    1.082   .     S
C650   C493    1.396   1_655 S
C650   C183    1.396   1_556 S
C651   H679    1.082   .     S
C651   C496    1.399   1_655 S
C652   H680    1.083   .     S
C653   C659    1.406   .     A
C653   C186    1.408   1_556 S
C654   C655    1.398   .     A
C654   H681    1.081   .     S
C655   H682    1.082   .     S
C655   C656    1.397   .     A
C656   H683    1.082   .     S
C657   H684    1.082   .     S
C657   C659    1.398   .     A
C657   C188    1.397   1_556 S
C658   C661    1.405   .     A
C658   H670    1.083   .     S
C659   H685    1.081   .     S
C660   H671    1.079   .     S
C660   N693    1.364   .     A
C661   N694    1.364   .     A
C661   H672    1.081   .     S
C662   H673    1.079   .     S
C662   N693    1.367   .     A
C662   C664    1.417   .     A
C663   N694    1.366   .     A
C663   H674    1.081   .     S
Cu665  Cu666   2.674   .     S
Cu665  O698    1.957   .     S
Cu665  O695    1.957   .     S
Cu665  O702    1.956   .     S
Cu665  O699    1.953   .     S
Cu665  N694    2.009   .     S
Cu666  N693    2.009   .     S
Cu666  O696    1.957   .     S
Cu666  O697    1.957   .     S
Cu666  O700    1.953   .     S
Cu666  O701    1.956   .     S
H667   C475    1.087   1_655 S
H676   C493    1.082   1_655 S
C703   O773    1.292   .     A
C703   O775    1.293   .     A
C703   C716    1.460   .     S
C704   C731    1.487   .     S
C704   C741    1.416   .     A
C704   C706    1.422   .     A
C705   C725    1.408   .     A
C705   C742    1.423   .     A
C706   C736    1.408   .     A
C706   C237    1.514   1_556 S
C707   C709    1.432   .     S
C707   O777    1.284   .     A
C707   O779    1.287   .     A
C708   O780    1.287   .     A
C708   C710    1.433   .     S
C708   O778    1.284   .     A
C709   C866    1.335   1_455 S
C709   H901    1.087   1_455 S
C710   C787    1.335   .     S
C710   H834    1.087   .     S
C711   H764    1.083   .     S
C711   C722    1.404   .     A
C711   C713    1.390   .     A
C712   H765    1.083   .     S
C712   C723    1.404   .     A
C712   C715    1.390   .     A
C713   C716    1.402   .     A
C713   H766    1.083   .     S
C714   O776    1.293   .     A
C714   O774    1.293   .     A
C714   C717    1.460   .     S
C715   H767    1.083   .     S
C715   C717    1.402   .     A
C716   C718    1.401   .     A
C717   C719    1.402   .     A
C718   H768    1.083   .     S
C718   C720    1.390   .     A
C719   C721    1.390   .     A
C719   H769    1.083   .     S
C720   H770    1.083   .     S
C720   C722    1.404   .     A
C721   H746    1.083   .     S
C721   C723    1.404   .     A
C723   C488    1.470   1_565 S
C724   C730    1.408   .     A
C724   C742    1.491   .     S
C725   H747    1.083   .     S
C725   C738    1.405   .     A
C726   H753    1.081   .     S
C726   C727    1.399   .     A
C726   C256    1.408   1_556 S
C727   C884    1.396   1_455 S
C727   H910    1.082   1_455 S
C728   H755    1.082   .     S
C728   C805    1.396   .     S
C728   C261    1.396   1_556 S
C729   H757    1.082   .     S
C729   C808    1.399   .     S
C730   H758    1.083   .     S
C730   C885    1.399   1_455 S
C731   C737    1.406   .     A
C731   C264    1.408   1_556 S
C732   C733    1.398   .     A
C732   H759    1.081   .     S
C733   H760    1.082   .     S
C733   C734    1.397   .     A
C734   H761    1.082   .     S
C735   H762    1.082   .     S
C735   C737    1.398   .     A
C735   C266    1.397   1_556 S
C736   C739    1.405   .     A
C736   H748    1.083   .     S
C737   H763    1.081   .     S
C738   H749    1.079   .     S
C738   N771    1.364   .     A
C739   N772    1.364   .     A
C739   H750    1.081   .     S
C740   H751    1.079   .     S
C740   N771    1.367   .     A
C740   C742    1.417   .     A
C741   N772    1.366   .     A
C741   H752    1.081   .     S
Cu743  Cu744   2.674   .     S
Cu743  O776    1.957   .     S
Cu743  O773    1.957   .     S
Cu743  O780    1.956   .     S
Cu743  O777    1.953   .     S
Cu743  N772    2.009   .     S
Cu744  N771    2.009   .     S
Cu744  O774    1.957   .     S
Cu744  O775    1.957   .     S
Cu744  O778    1.953   .     S
Cu744  O779    1.956   .     S
H745   C787    1.087   .     S
H754   C805    1.082   .     S
H756   C866    1.087   1_455 S
C781   O851    1.292   .     A
C781   O853    1.293   .     A
C781   C794    1.460   .     S
C782   C809    1.487   .     S
C782   C819    1.416   .     A
C782   C784    1.422   .     A
C783   C803    1.408   .     A
C783   C820    1.423   .     A
C784   C814    1.408   .     A
C784   C315    1.514   1_556 S
C785   C787    1.432   .     S
C785   O855    1.284   .     A
C785   O857    1.287   .     A
C786   O858    1.287   .     A
C786   C788    1.433   .     S
C786   O856    1.284   .     A
C788   C865    1.335   .     S
C788   H912    1.087   .     S
C789   H842    1.083   .     S
C789   C800    1.404   .     A
C789   C791    1.390   .     A
C790   H843    1.083   .     S
C790   C801    1.404   .     A
C790   C793    1.390   .     A
C791   C794    1.402   .     A
C791   H844    1.083   .     S
C792   O854    1.293   .     A
C792   O852    1.293   .     A
C792   C795    1.460   .     S
C793   H845    1.083   .     S
C793   C795    1.402   .     A
C794   C796    1.401   .     A
C795   C797    1.402   .     A
C796   H846    1.083   .     S
C796   C798    1.390   .     A
C797   C799    1.390   .     A
C797   H847    1.083   .     S
C798   H848    1.083   .     S
C798   C800    1.404   .     A
C799   H824    1.083   .     S
C799   C801    1.404   .     A
C801   C566    1.470   1_565 S
C802   C808    1.408   .     A
C802   C820    1.491   .     S
C803   H825    1.083   .     S
C803   C816    1.405   .     A
C804   H831    1.081   .     S
C804   C805    1.399   .     A
C804   C334    1.408   1_556 S
C806   H833    1.082   .     S
C806   C883    1.396   .     S
C806   C339    1.396   1_556 S
C807   H835    1.082   .     S
C807   C886    1.399   .     S
C808   H836    1.083   .     S
C809   C815    1.406   .     A
C809   C342    1.408   1_556 S
C810   C811    1.398   .     A
C810   H837    1.081   .     S
C811   H838    1.082   .     S
C811   C812    1.397   .     A
C812   H839    1.082   .     S
C813   H840    1.082   .     S
C813   C815    1.398   .     A
C813   C344    1.397   1_556 S
C814   C817    1.405   .     A
C814   H826    1.083   .     S
C815   H841    1.081   .     S
C816   H827    1.079   .     S
C816   N849    1.364   .     A
C817   N850    1.364   .     A
C817   H828    1.081   .     S
C818   H829    1.079   .     S
C818   N849    1.367   .     A
C818   C820    1.417   .     A
C819   N850    1.366   .     A
C819   H830    1.081   .     S
Cu821  Cu822   2.674   .     S
Cu821  O854    1.957   .     S
Cu821  O851    1.957   .     S
Cu821  O858    1.956   .     S
Cu821  O855    1.953   .     S
Cu821  N850    2.009   .     S
Cu822  N849    2.009   .     S
Cu822  O852    1.957   .     S
Cu822  O853    1.957   .     S
Cu822  O856    1.953   .     S
Cu822  O857    1.956   .     S
H823   C865    1.087   .     S
H832   C883    1.082   .     S
C859   O929    1.292   .     A
C859   O931    1.293   .     A
C859   C872    1.460   .     S
C860   C887    1.487   .     S
C860   C897    1.416   .     A
C860   C862    1.422   .     A
C861   C881    1.408   .     A
C861   C898    1.423   .     A
C862   C892    1.408   .     A
C862   C393    1.514   1_556 S
C863   C865    1.432   .     S
C863   O933    1.284   .     A
C863   O935    1.287   .     A
C864   O936    1.287   .     A
C864   C866    1.433   .     S
C864   O934    1.284   .     A
C866   C709    1.335   1_655 S
C866   H756    1.087   1_655 S
C867   H920    1.083   .     S
C867   C878    1.404   .     A
C867   C869    1.390   .     A
C868   H921    1.083   .     S
C868   C879    1.404   .     A
C868   C871    1.390   .     A
C869   C872    1.402   .     A
C869   H922    1.083   .     S
C870   O932    1.293   .     A
C870   O930    1.293   .     A
C870   C873    1.460   .     S
C871   H923    1.083   .     S
C871   C873    1.402   .     A
C872   C874    1.401   .     A
C873   C875    1.402   .     A
C874   H924    1.083   .     S
C874   C876    1.390   .     A
C875   C877    1.390   .     A
C875   H925    1.083   .     S
C876   H926    1.083   .     S
C876   C878    1.404   .     A
C877   H902    1.083   .     S
C877   C879    1.404   .     A
C879   C644    1.470   1_565 S
C880   C886    1.408   .     A
C880   C898    1.491   .     S
C881   H903    1.083   .     S
C881   C894    1.405   .     A
C882   H909    1.081   .     S
C882   C883    1.399   .     A
C882   C412    1.408   1_556 S
C884   H911    1.082   .     S
C884   C727    1.396   1_655 S
C884   C417    1.396   1_556 S
C885   H913    1.082   .     S
C885   C730    1.399   1_655 S
C886   H914    1.083   .     S
C887   C893    1.406   .     A
C887   C420    1.408   1_556 S
C888   C889    1.398   .     A
C888   H915    1.081   .     S
C889   H916    1.082   .     S
C889   C890    1.397   .     A
C890   H917    1.082   .     S
C891   H918    1.082   .     S
C891   C893    1.398   .     A
C891   C422    1.397   1_556 S
C892   C895    1.405   .     A
C892   H904    1.083   .     S
C893   H919    1.081   .     S
C894   H905    1.079   .     S
C894   N927    1.364   .     A
C895   N928    1.364   .     A
C895   H906    1.081   .     S
C896   H907    1.079   .     S
C896   N927    1.367   .     A
C896   C898    1.417   .     A
C897   N928    1.366   .     A
C897   H908    1.081   .     S
Cu899  Cu900   2.674   .     S
Cu899  O932    1.957   .     S
Cu899  O929    1.957   .     S
Cu899  O936    1.956   .     S
Cu899  O933    1.953   .     S
Cu899  N928    2.009   .     S
Cu900  N927    2.009   .     S
Cu900  O930    1.957   .     S
Cu900  O931    1.957   .     S
Cu900  O934    1.953   .     S
Cu900  O935    1.956   .     S
H901   C709    1.087   1_655 S
H910   C727    1.082   1_655 S
