data_str_m3_o1_o17_pcu_sym.171
_audit_creation_date              2020-01-03
_audit_creation_method            'Materials Studio'
_symmetry_space_group_name_H-M    'P1'
_symmetry_Int_Tables_number       1
_symmetry_cell_setting            triclinic
loop_
_symmetry_equiv_pos_as_xyz
  x,y,z
_cell_length_a                    32.1248
_cell_length_b                    29.9088
_cell_length_c                    29.8214
_cell_angle_alpha                 89.9862
_cell_angle_beta                  92.3092
_cell_angle_gamma                 89.9502
loop_
_atom_site_label
_atom_site_type_symbol
_atom_site_fract_x
_atom_site_fract_y
_atom_site_fract_z
_atom_site_U_iso_or_equiv
_atom_site_adp_type
_atom_site_occupancy
O1     O     0.10559   0.20487   0.24999   0.00000  Uiso   1.00
O2     O     0.22774   0.12846   0.25001   0.00000  Uiso   1.00
O3     O     0.22774   0.20487   0.25000   0.00000  Uiso   1.00
O4     O     0.10559   0.12846   0.24999   0.00000  Uiso   1.00
C5     C     0.08674   0.16668   0.24934   0.00000  Uiso   1.00
C6     C     0.24657   0.16665   0.24978   0.00000  Uiso   1.00
O7     O     0.16666   0.20489   0.18392   0.00000  Uiso   1.00
O8     O     0.16667   0.12844   0.31607   0.00000  Uiso   1.00
O9     O     0.16667   0.20489   0.31607   0.00000  Uiso   1.00
O10    O     0.16666   0.12844   0.18392   0.00000  Uiso   1.00
C11    C     0.16750   0.16672   0.16380   0.00000  Uiso   1.00
C12    C     0.16616   0.16666   0.33629   0.00000  Uiso   1.00
Zn13   Zn    0.16667   0.21771   0.25000   0.00000  Uiso   1.00
Zn14   Zn    0.16667   0.11563   0.25000   0.00000  Uiso   1.00
C15    C     0.20084   0.17991   0.40768   0.00000  Uiso   1.00
C16    C     0.13167   0.15823   0.09248   0.00000  Uiso   1.00
C17    C     0.16497   0.16692   0.38397   0.00000  Uiso   1.00
C18    C     0.16854   0.16724   0.11623   0.00000  Uiso   1.00
C19    C     0.12866   0.15455   0.40531   0.00000  Uiso   1.00
C20    C     0.20553   0.17750   0.09512   0.00000  Uiso   1.00
C21    C     0.12777   0.15790   0.45237   0.00000  Uiso   1.00
C22    C     0.20484   0.18044   0.04793   0.00000  Uiso   1.00
C23    C     0.16546   0.16919   0.47665   0.00000  Uiso   1.00
C24    C     0.16706   0.16948   0.02361   0.00000  Uiso   1.00
C25    C     0.20172   0.18017   0.45393   0.00000  Uiso   1.00
C26    C     0.13071   0.15867   0.04627   0.00000  Uiso   1.00
C27    C     0.09100   0.15039   0.47617   0.00000  Uiso   1.00
C28    C     0.24016   0.19367   0.02401   0.00000  Uiso   1.00
C29    C     0.09332   0.14965   0.02278   0.00000  Uiso   1.00
C30    C     0.23833   0.19233   0.47740   0.00000  Uiso   1.00
H31    H     0.22848   0.18875   0.38986   0.00000  Uiso   1.00
H32    H     0.10366   0.15079   0.11030   0.00000  Uiso   1.00
H33    H     0.06523   0.14350   0.04083   0.00000  Uiso   1.00
H34    H     0.26547   0.20225   0.45932   0.00000  Uiso   1.00
C35    C     0.02128   0.12591   0.24902   0.00000  Uiso   1.00
C36    C     0.31192   0.20741   0.24823   0.00000  Uiso   1.00
C37    C     0.31202   0.12589   0.24891   0.00000  Uiso   1.00
C38    C     0.02118   0.20742   0.24832   0.00000  Uiso   1.00
H39    H     0.03740   0.09409   0.24965   0.00000  Uiso   1.00
H40    H     0.29580   0.23922   0.24778   0.00000  Uiso   1.00
H41    H     0.29598   0.09406   0.24903   0.00000  Uiso   1.00
H42    H     0.03722   0.23925   0.24837   0.00000  Uiso   1.00
C43    C     0.29075   0.16664   0.24893   0.00000  Uiso   1.00
C44    C     0.04247   0.16668   0.24873   0.00000  Uiso   1.00
C45    C     0.19286   0.02388   0.27887   0.00000  Uiso   1.00
C46    C     0.14051   0.30946   0.22109   0.00000  Uiso   1.00
C47    C     0.14049   0.02390   0.22111   0.00000  Uiso   1.00
C48    C     0.19291   0.30944   0.27882   0.00000  Uiso   1.00
N49    N     0.16667   0.28573   0.25000   0.00000  Uiso   1.00
N50    N     0.16667   0.04760   0.25000   0.00000  Uiso   1.00
N51    N     0.09427   0.13641   0.37912   0.00000  Uiso   1.00
O52    O     0.08443   0.09445   0.38315   0.00000  Uiso   1.00
O53    O     0.07466   0.16093   0.34908   0.00000  Uiso   1.00
N54    N     0.24367   0.18079   0.12169   0.00000  Uiso   1.00
O55    O     0.27149   0.14929   0.11975   0.00000  Uiso   1.00
O56    O     0.24899   0.21293   0.15074   0.00000  Uiso   1.00
N57    N     0.05050   0.14745   0.45432   0.00000  Uiso   1.00
O58    O     0.03589   0.18155   0.43157   0.00000  Uiso   1.00
O59    O     0.02497   0.11607   0.46575   0.00000  Uiso   1.00
N60    N     0.27699   0.21186   0.04572   0.00000  Uiso   1.00
O61    O     0.27470   0.24964   0.06709   0.00000  Uiso   1.00
O62    O     0.31340   0.19687   0.03532   0.00000  Uiso   1.00
I63    I     0.23436   0.05829   0.32488   0.00000  Uiso   1.00
I64    I     0.09915   0.27508   0.17492   0.00000  Uiso   1.00
I65    I     0.09890   0.05829   0.17517   0.00000  Uiso   1.00
I66    I     0.23481   0.27509   0.32441   0.00000  Uiso   1.00
O67    O     0.43892   0.20487   0.24999   0.00000  Uiso   1.00
O68    O     0.56108   0.12846   0.25001   0.00000  Uiso   1.00
O69    O     0.56108   0.20487   0.25000   0.00000  Uiso   1.00
O70    O     0.43892   0.12846   0.24999   0.00000  Uiso   1.00
C71    C     0.42007   0.16668   0.24934   0.00000  Uiso   1.00
C72    C     0.57990   0.16665   0.24978   0.00000  Uiso   1.00
O73    O     0.49999   0.20489   0.18392   0.00000  Uiso   1.00
O74    O     0.50001   0.12844   0.31607   0.00000  Uiso   1.00
O75    O     0.50001   0.20489   0.31607   0.00000  Uiso   1.00
O76    O     0.49999   0.12844   0.18392   0.00000  Uiso   1.00
C77    C     0.50084   0.16672   0.16380   0.00000  Uiso   1.00
C78    C     0.49949   0.16666   0.33629   0.00000  Uiso   1.00
Zn79   Zn    0.50000   0.21771   0.25000   0.00000  Uiso   1.00
Zn80   Zn    0.50000   0.11563   0.25000   0.00000  Uiso   1.00
C81    C     0.53418   0.17991   0.40768   0.00000  Uiso   1.00
C82    C     0.46500   0.15823   0.09248   0.00000  Uiso   1.00
C83    C     0.49830   0.16692   0.38397   0.00000  Uiso   1.00
C84    C     0.50188   0.16724   0.11623   0.00000  Uiso   1.00
C85    C     0.46199   0.15455   0.40531   0.00000  Uiso   1.00
C86    C     0.53886   0.17750   0.09512   0.00000  Uiso   1.00
C87    C     0.46111   0.15790   0.45237   0.00000  Uiso   1.00
C88    C     0.53818   0.18044   0.04793   0.00000  Uiso   1.00
C89    C     0.49880   0.16919   0.47665   0.00000  Uiso   1.00
C90    C     0.50039   0.16948   0.02361   0.00000  Uiso   1.00
C91    C     0.53505   0.18017   0.45393   0.00000  Uiso   1.00
C92    C     0.46404   0.15867   0.04627   0.00000  Uiso   1.00
C93    C     0.42433   0.15039   0.47617   0.00000  Uiso   1.00
C94    C     0.57350   0.19367   0.02401   0.00000  Uiso   1.00
C95    C     0.42665   0.14965   0.02278   0.00000  Uiso   1.00
C96    C     0.57166   0.19233   0.47740   0.00000  Uiso   1.00
H97    H     0.56181   0.18875   0.38986   0.00000  Uiso   1.00
H98    H     0.43699   0.15079   0.11030   0.00000  Uiso   1.00
H99    H     0.39856   0.14350   0.04083   0.00000  Uiso   1.00
H100   H     0.59881   0.20225   0.45932   0.00000  Uiso   1.00
C101   C     0.35461   0.12591   0.24902   0.00000  Uiso   1.00
C102   C     0.64526   0.20741   0.24823   0.00000  Uiso   1.00
C103   C     0.64536   0.12589   0.24891   0.00000  Uiso   1.00
C104   C     0.35451   0.20742   0.24832   0.00000  Uiso   1.00
H105   H     0.37074   0.09409   0.24965   0.00000  Uiso   1.00
H106   H     0.62913   0.23922   0.24778   0.00000  Uiso   1.00
H107   H     0.62931   0.09406   0.24903   0.00000  Uiso   1.00
H108   H     0.37055   0.23925   0.24837   0.00000  Uiso   1.00
C109   C     0.62409   0.16664   0.24893   0.00000  Uiso   1.00
C110   C     0.37581   0.16668   0.24873   0.00000  Uiso   1.00
C111   C     0.52620   0.02388   0.27887   0.00000  Uiso   1.00
C112   C     0.47384   0.30946   0.22109   0.00000  Uiso   1.00
C113   C     0.47383   0.02390   0.22111   0.00000  Uiso   1.00
C114   C     0.52624   0.30944   0.27882   0.00000  Uiso   1.00
N115   N     0.50000   0.28573   0.25000   0.00000  Uiso   1.00
N116   N     0.50000   0.04760   0.25000   0.00000  Uiso   1.00
N117   N     0.42760   0.13641   0.37912   0.00000  Uiso   1.00
O118   O     0.41776   0.09445   0.38315   0.00000  Uiso   1.00
O119   O     0.40799   0.16093   0.34908   0.00000  Uiso   1.00
N120   N     0.57701   0.18079   0.12169   0.00000  Uiso   1.00
O121   O     0.60482   0.14929   0.11975   0.00000  Uiso   1.00
O122   O     0.58232   0.21293   0.15074   0.00000  Uiso   1.00
N123   N     0.38384   0.14745   0.45432   0.00000  Uiso   1.00
O124   O     0.36923   0.18155   0.43157   0.00000  Uiso   1.00
O125   O     0.35830   0.11607   0.46575   0.00000  Uiso   1.00
N126   N     0.61033   0.21186   0.04572   0.00000  Uiso   1.00
O127   O     0.60803   0.24964   0.06709   0.00000  Uiso   1.00
O128   O     0.64673   0.19687   0.03532   0.00000  Uiso   1.00
I129   I     0.56769   0.05829   0.32488   0.00000  Uiso   1.00
I130   I     0.43248   0.27508   0.17492   0.00000  Uiso   1.00
I131   I     0.43223   0.05829   0.17517   0.00000  Uiso   1.00
I132   I     0.56815   0.27509   0.32441   0.00000  Uiso   1.00
O133   O     0.77226   0.20487   0.24999   0.00000  Uiso   1.00
O134   O     0.89441   0.12846   0.25001   0.00000  Uiso   1.00
O135   O     0.89441   0.20487   0.25000   0.00000  Uiso   1.00
O136   O     0.77226   0.12846   0.24999   0.00000  Uiso   1.00
C137   C     0.75340   0.16668   0.24934   0.00000  Uiso   1.00
C138   C     0.91323   0.16665   0.24978   0.00000  Uiso   1.00
O139   O     0.83333   0.20489   0.18392   0.00000  Uiso   1.00
O140   O     0.83334   0.12844   0.31607   0.00000  Uiso   1.00
O141   O     0.83334   0.20489   0.31607   0.00000  Uiso   1.00
O142   O     0.83333   0.12844   0.18392   0.00000  Uiso   1.00
C143   C     0.83417   0.16672   0.16380   0.00000  Uiso   1.00
C144   C     0.83283   0.16666   0.33629   0.00000  Uiso   1.00
Zn145  Zn    0.83333   0.21771   0.25000   0.00000  Uiso   1.00
Zn146  Zn    0.83333   0.11563   0.25000   0.00000  Uiso   1.00
C147   C     0.86751   0.17991   0.40768   0.00000  Uiso   1.00
C148   C     0.79834   0.15823   0.09248   0.00000  Uiso   1.00
C149   C     0.83164   0.16692   0.38397   0.00000  Uiso   1.00
C150   C     0.83521   0.16724   0.11623   0.00000  Uiso   1.00
C151   C     0.79533   0.15455   0.40531   0.00000  Uiso   1.00
C152   C     0.87219   0.17750   0.09512   0.00000  Uiso   1.00
C153   C     0.79444   0.15790   0.45237   0.00000  Uiso   1.00
C154   C     0.87151   0.18044   0.04793   0.00000  Uiso   1.00
C155   C     0.83213   0.16919   0.47665   0.00000  Uiso   1.00
C156   C     0.83372   0.16948   0.02361   0.00000  Uiso   1.00
C157   C     0.86838   0.18017   0.45393   0.00000  Uiso   1.00
C158   C     0.79737   0.15867   0.04627   0.00000  Uiso   1.00
C159   C     0.75767   0.15039   0.47617   0.00000  Uiso   1.00
C160   C     0.90683   0.19367   0.02401   0.00000  Uiso   1.00
C161   C     0.75998   0.14965   0.02278   0.00000  Uiso   1.00
C162   C     0.90499   0.19233   0.47740   0.00000  Uiso   1.00
H163   H     0.89514   0.18875   0.38986   0.00000  Uiso   1.00
H164   H     0.77033   0.15079   0.11030   0.00000  Uiso   1.00
H165   H     0.73189   0.14350   0.04083   0.00000  Uiso   1.00
H166   H     0.93214   0.20225   0.45932   0.00000  Uiso   1.00
C167   C     0.68795   0.12591   0.24902   0.00000  Uiso   1.00
C168   C     0.97859   0.20741   0.24823   0.00000  Uiso   1.00
C169   C     0.97869   0.12589   0.24891   0.00000  Uiso   1.00
C170   C     0.68785   0.20742   0.24832   0.00000  Uiso   1.00
H171   H     0.70407   0.09409   0.24965   0.00000  Uiso   1.00
H172   H     0.96246   0.23922   0.24778   0.00000  Uiso   1.00
H173   H     0.96264   0.09406   0.24903   0.00000  Uiso   1.00
H174   H     0.70388   0.23925   0.24837   0.00000  Uiso   1.00
C175   C     0.95742   0.16664   0.24893   0.00000  Uiso   1.00
C176   C     0.70914   0.16668   0.24873   0.00000  Uiso   1.00
C177   C     0.85953   0.02388   0.27887   0.00000  Uiso   1.00
C178   C     0.80717   0.30946   0.22109   0.00000  Uiso   1.00
C179   C     0.80716   0.02390   0.22111   0.00000  Uiso   1.00
C180   C     0.85957   0.30944   0.27882   0.00000  Uiso   1.00
N181   N     0.83333   0.28573   0.25000   0.00000  Uiso   1.00
N182   N     0.83333   0.04760   0.25000   0.00000  Uiso   1.00
N183   N     0.76094   0.13641   0.37912   0.00000  Uiso   1.00
O184   O     0.75109   0.09445   0.38315   0.00000  Uiso   1.00
O185   O     0.74132   0.16093   0.34908   0.00000  Uiso   1.00
N186   N     0.91034   0.18079   0.12169   0.00000  Uiso   1.00
O187   O     0.93816   0.14929   0.11975   0.00000  Uiso   1.00
O188   O     0.91566   0.21293   0.15074   0.00000  Uiso   1.00
N189   N     0.71717   0.14745   0.45432   0.00000  Uiso   1.00
O190   O     0.70256   0.18155   0.43157   0.00000  Uiso   1.00
O191   O     0.69163   0.11607   0.46575   0.00000  Uiso   1.00
N192   N     0.94366   0.21186   0.04572   0.00000  Uiso   1.00
O193   O     0.94137   0.24964   0.06709   0.00000  Uiso   1.00
O194   O     0.98007   0.19687   0.03532   0.00000  Uiso   1.00
I195   I     0.90103   0.05829   0.32488   0.00000  Uiso   1.00
I196   I     0.76581   0.27508   0.17492   0.00000  Uiso   1.00
I197   I     0.76556   0.05829   0.17517   0.00000  Uiso   1.00
I198   I     0.90148   0.27509   0.32441   0.00000  Uiso   1.00
O199   O     0.10559   0.53821   0.24999   0.00000  Uiso   1.00
O200   O     0.22774   0.46179   0.25001   0.00000  Uiso   1.00
O201   O     0.22774   0.53821   0.25000   0.00000  Uiso   1.00
O202   O     0.10559   0.46179   0.24999   0.00000  Uiso   1.00
C203   C     0.08674   0.50001   0.24934   0.00000  Uiso   1.00
C204   C     0.24657   0.49998   0.24978   0.00000  Uiso   1.00
O205   O     0.16666   0.53823   0.18392   0.00000  Uiso   1.00
O206   O     0.16667   0.46177   0.31607   0.00000  Uiso   1.00
O207   O     0.16667   0.53823   0.31607   0.00000  Uiso   1.00
O208   O     0.16666   0.46177   0.18392   0.00000  Uiso   1.00
C209   C     0.16750   0.50005   0.16380   0.00000  Uiso   1.00
C210   C     0.16616   0.49999   0.33629   0.00000  Uiso   1.00
Zn211  Zn    0.16667   0.55104   0.25000   0.00000  Uiso   1.00
Zn212  Zn    0.16667   0.44896   0.25000   0.00000  Uiso   1.00
C213   C     0.20084   0.51324   0.40768   0.00000  Uiso   1.00
C214   C     0.13167   0.49156   0.09248   0.00000  Uiso   1.00
C215   C     0.16497   0.50026   0.38397   0.00000  Uiso   1.00
C216   C     0.16854   0.50057   0.11623   0.00000  Uiso   1.00
C217   C     0.12866   0.48788   0.40531   0.00000  Uiso   1.00
C218   C     0.20553   0.51083   0.09512   0.00000  Uiso   1.00
C219   C     0.12777   0.49123   0.45237   0.00000  Uiso   1.00
C220   C     0.20484   0.51378   0.04793   0.00000  Uiso   1.00
C221   C     0.16546   0.50252   0.47665   0.00000  Uiso   1.00
C222   C     0.16706   0.50282   0.02361   0.00000  Uiso   1.00
C223   C     0.20172   0.51351   0.45393   0.00000  Uiso   1.00
C224   C     0.13071   0.49201   0.04627   0.00000  Uiso   1.00
C225   C     0.09100   0.48373   0.47617   0.00000  Uiso   1.00
C226   C     0.24016   0.52700   0.02401   0.00000  Uiso   1.00
C227   C     0.09332   0.48298   0.02278   0.00000  Uiso   1.00
C228   C     0.23833   0.52566   0.47740   0.00000  Uiso   1.00
H229   H     0.22848   0.52208   0.38986   0.00000  Uiso   1.00
H230   H     0.10366   0.48413   0.11030   0.00000  Uiso   1.00
H231   H     0.06523   0.47684   0.04083   0.00000  Uiso   1.00
H232   H     0.26547   0.53558   0.45932   0.00000  Uiso   1.00
C233   C     0.02128   0.45924   0.24902   0.00000  Uiso   1.00
C234   C     0.31192   0.54074   0.24823   0.00000  Uiso   1.00
C235   C     0.31202   0.45922   0.24891   0.00000  Uiso   1.00
C236   C     0.02118   0.54076   0.24832   0.00000  Uiso   1.00
H237   H     0.03740   0.42742   0.24965   0.00000  Uiso   1.00
H238   H     0.29580   0.57256   0.24778   0.00000  Uiso   1.00
H239   H     0.29598   0.42740   0.24903   0.00000  Uiso   1.00
H240   H     0.03722   0.57258   0.24837   0.00000  Uiso   1.00
C241   C     0.29075   0.49997   0.24893   0.00000  Uiso   1.00
C242   C     0.04247   0.50001   0.24873   0.00000  Uiso   1.00
C243   C     0.19286   0.35721   0.27887   0.00000  Uiso   1.00
C244   C     0.14051   0.64280   0.22109   0.00000  Uiso   1.00
C245   C     0.14049   0.35724   0.22111   0.00000  Uiso   1.00
C246   C     0.19291   0.64277   0.27882   0.00000  Uiso   1.00
N247   N     0.16667   0.61907   0.25000   0.00000  Uiso   1.00
N248   N     0.16667   0.38093   0.25000   0.00000  Uiso   1.00
N249   N     0.09427   0.46974   0.37912   0.00000  Uiso   1.00
O250   O     0.08443   0.42778   0.38315   0.00000  Uiso   1.00
O251   O     0.07466   0.49426   0.34908   0.00000  Uiso   1.00
N252   N     0.24367   0.51413   0.12169   0.00000  Uiso   1.00
O253   O     0.27149   0.48262   0.11975   0.00000  Uiso   1.00
O254   O     0.24899   0.54626   0.15074   0.00000  Uiso   1.00
N255   N     0.05050   0.48079   0.45432   0.00000  Uiso   1.00
O256   O     0.03589   0.51488   0.43157   0.00000  Uiso   1.00
O257   O     0.02497   0.44941   0.46575   0.00000  Uiso   1.00
N258   N     0.27699   0.54519   0.04572   0.00000  Uiso   1.00
O259   O     0.27470   0.58297   0.06709   0.00000  Uiso   1.00
O260   O     0.31340   0.53020   0.03532   0.00000  Uiso   1.00
I261   I     0.23436   0.39162   0.32488   0.00000  Uiso   1.00
I262   I     0.09915   0.60841   0.17492   0.00000  Uiso   1.00
I263   I     0.09890   0.39162   0.17517   0.00000  Uiso   1.00
I264   I     0.23481   0.60842   0.32441   0.00000  Uiso   1.00
O265   O     0.43892   0.53821   0.24999   0.00000  Uiso   1.00
O266   O     0.56108   0.46179   0.25001   0.00000  Uiso   1.00
O267   O     0.56108   0.53821   0.25000   0.00000  Uiso   1.00
O268   O     0.43892   0.46179   0.24999   0.00000  Uiso   1.00
C269   C     0.42007   0.50001   0.24934   0.00000  Uiso   1.00
C270   C     0.57990   0.49998   0.24978   0.00000  Uiso   1.00
O271   O     0.49999   0.53823   0.18392   0.00000  Uiso   1.00
O272   O     0.50001   0.46177   0.31607   0.00000  Uiso   1.00
O273   O     0.50001   0.53823   0.31607   0.00000  Uiso   1.00
O274   O     0.49999   0.46177   0.18392   0.00000  Uiso   1.00
C275   C     0.50084   0.50005   0.16380   0.00000  Uiso   1.00
C276   C     0.49949   0.49999   0.33629   0.00000  Uiso   1.00
Zn277  Zn    0.50000   0.55104   0.25000   0.00000  Uiso   1.00
Zn278  Zn    0.50000   0.44896   0.25000   0.00000  Uiso   1.00
C279   C     0.53418   0.51324   0.40768   0.00000  Uiso   1.00
C280   C     0.46500   0.49156   0.09248   0.00000  Uiso   1.00
C281   C     0.49830   0.50026   0.38397   0.00000  Uiso   1.00
C282   C     0.50188   0.50057   0.11623   0.00000  Uiso   1.00
C283   C     0.46199   0.48788   0.40531   0.00000  Uiso   1.00
C284   C     0.53886   0.51083   0.09512   0.00000  Uiso   1.00
C285   C     0.46111   0.49123   0.45237   0.00000  Uiso   1.00
C286   C     0.53818   0.51378   0.04793   0.00000  Uiso   1.00
C287   C     0.49880   0.50252   0.47665   0.00000  Uiso   1.00
C288   C     0.50039   0.50282   0.02361   0.00000  Uiso   1.00
C289   C     0.53505   0.51351   0.45393   0.00000  Uiso   1.00
C290   C     0.46404   0.49201   0.04627   0.00000  Uiso   1.00
C291   C     0.42433   0.48373   0.47617   0.00000  Uiso   1.00
C292   C     0.57350   0.52700   0.02401   0.00000  Uiso   1.00
C293   C     0.42665   0.48298   0.02278   0.00000  Uiso   1.00
C294   C     0.57166   0.52566   0.47740   0.00000  Uiso   1.00
H295   H     0.56181   0.52208   0.38986   0.00000  Uiso   1.00
H296   H     0.43699   0.48413   0.11030   0.00000  Uiso   1.00
H297   H     0.39856   0.47684   0.04083   0.00000  Uiso   1.00
H298   H     0.59881   0.53558   0.45932   0.00000  Uiso   1.00
C299   C     0.35461   0.45924   0.24902   0.00000  Uiso   1.00
C300   C     0.64526   0.54074   0.24823   0.00000  Uiso   1.00
C301   C     0.64536   0.45922   0.24891   0.00000  Uiso   1.00
C302   C     0.35451   0.54076   0.24832   0.00000  Uiso   1.00
H303   H     0.37074   0.42742   0.24965   0.00000  Uiso   1.00
H304   H     0.62913   0.57256   0.24778   0.00000  Uiso   1.00
H305   H     0.62931   0.42740   0.24903   0.00000  Uiso   1.00
H306   H     0.37055   0.57258   0.24837   0.00000  Uiso   1.00
C307   C     0.62409   0.49997   0.24893   0.00000  Uiso   1.00
C308   C     0.37581   0.50001   0.24873   0.00000  Uiso   1.00
C309   C     0.52620   0.35721   0.27887   0.00000  Uiso   1.00
C310   C     0.47384   0.64280   0.22109   0.00000  Uiso   1.00
C311   C     0.47383   0.35724   0.22111   0.00000  Uiso   1.00
C312   C     0.52624   0.64277   0.27882   0.00000  Uiso   1.00
N313   N     0.50000   0.61907   0.25000   0.00000  Uiso   1.00
N314   N     0.50000   0.38093   0.25000   0.00000  Uiso   1.00
N315   N     0.42760   0.46974   0.37912   0.00000  Uiso   1.00
O316   O     0.41776   0.42778   0.38315   0.00000  Uiso   1.00
O317   O     0.40799   0.49426   0.34908   0.00000  Uiso   1.00
N318   N     0.57701   0.51413   0.12169   0.00000  Uiso   1.00
O319   O     0.60482   0.48262   0.11975   0.00000  Uiso   1.00
O320   O     0.58232   0.54626   0.15074   0.00000  Uiso   1.00
N321   N     0.38384   0.48079   0.45432   0.00000  Uiso   1.00
O322   O     0.36923   0.51488   0.43157   0.00000  Uiso   1.00
O323   O     0.35830   0.44941   0.46575   0.00000  Uiso   1.00
N324   N     0.61033   0.54519   0.04572   0.00000  Uiso   1.00
O325   O     0.60803   0.58297   0.06709   0.00000  Uiso   1.00
O326   O     0.64673   0.53020   0.03532   0.00000  Uiso   1.00
I327   I     0.56769   0.39162   0.32488   0.00000  Uiso   1.00
I328   I     0.43248   0.60841   0.17492   0.00000  Uiso   1.00
I329   I     0.43223   0.39162   0.17517   0.00000  Uiso   1.00
I330   I     0.56815   0.60842   0.32441   0.00000  Uiso   1.00
O331   O     0.77226   0.53821   0.24999   0.00000  Uiso   1.00
O332   O     0.89441   0.46179   0.25001   0.00000  Uiso   1.00
O333   O     0.89441   0.53821   0.25000   0.00000  Uiso   1.00
O334   O     0.77226   0.46179   0.24999   0.00000  Uiso   1.00
C335   C     0.75340   0.50001   0.24934   0.00000  Uiso   1.00
C336   C     0.91323   0.49998   0.24978   0.00000  Uiso   1.00
O337   O     0.83333   0.53823   0.18392   0.00000  Uiso   1.00
O338   O     0.83334   0.46177   0.31607   0.00000  Uiso   1.00
O339   O     0.83334   0.53823   0.31607   0.00000  Uiso   1.00
O340   O     0.83333   0.46177   0.18392   0.00000  Uiso   1.00
C341   C     0.83417   0.50005   0.16380   0.00000  Uiso   1.00
C342   C     0.83283   0.49999   0.33629   0.00000  Uiso   1.00
Zn343  Zn    0.83333   0.55104   0.25000   0.00000  Uiso   1.00
Zn344  Zn    0.83333   0.44896   0.25000   0.00000  Uiso   1.00
C345   C     0.86751   0.51324   0.40768   0.00000  Uiso   1.00
C346   C     0.79834   0.49156   0.09248   0.00000  Uiso   1.00
C347   C     0.83164   0.50026   0.38397   0.00000  Uiso   1.00
C348   C     0.83521   0.50057   0.11623   0.00000  Uiso   1.00
C349   C     0.79533   0.48788   0.40531   0.00000  Uiso   1.00
C350   C     0.87219   0.51083   0.09512   0.00000  Uiso   1.00
C351   C     0.79444   0.49123   0.45237   0.00000  Uiso   1.00
C352   C     0.87151   0.51378   0.04793   0.00000  Uiso   1.00
C353   C     0.83213   0.50252   0.47665   0.00000  Uiso   1.00
C354   C     0.83372   0.50282   0.02361   0.00000  Uiso   1.00
C355   C     0.86838   0.51351   0.45393   0.00000  Uiso   1.00
C356   C     0.79737   0.49201   0.04627   0.00000  Uiso   1.00
C357   C     0.75767   0.48373   0.47617   0.00000  Uiso   1.00
C358   C     0.90683   0.52700   0.02401   0.00000  Uiso   1.00
C359   C     0.75998   0.48298   0.02278   0.00000  Uiso   1.00
C360   C     0.90499   0.52566   0.47740   0.00000  Uiso   1.00
H361   H     0.89514   0.52208   0.38986   0.00000  Uiso   1.00
H362   H     0.77033   0.48413   0.11030   0.00000  Uiso   1.00
H363   H     0.73189   0.47684   0.04083   0.00000  Uiso   1.00
H364   H     0.93214   0.53558   0.45932   0.00000  Uiso   1.00
C365   C     0.68795   0.45924   0.24902   0.00000  Uiso   1.00
C366   C     0.97859   0.54074   0.24823   0.00000  Uiso   1.00
C367   C     0.97869   0.45922   0.24891   0.00000  Uiso   1.00
C368   C     0.68785   0.54076   0.24832   0.00000  Uiso   1.00
H369   H     0.70407   0.42742   0.24965   0.00000  Uiso   1.00
H370   H     0.96246   0.57256   0.24778   0.00000  Uiso   1.00
H371   H     0.96264   0.42740   0.24903   0.00000  Uiso   1.00
H372   H     0.70388   0.57258   0.24837   0.00000  Uiso   1.00
C373   C     0.95742   0.49997   0.24893   0.00000  Uiso   1.00
C374   C     0.70914   0.50001   0.24873   0.00000  Uiso   1.00
C375   C     0.85953   0.35721   0.27887   0.00000  Uiso   1.00
C376   C     0.80717   0.64280   0.22109   0.00000  Uiso   1.00
C377   C     0.80716   0.35724   0.22111   0.00000  Uiso   1.00
C378   C     0.85957   0.64277   0.27882   0.00000  Uiso   1.00
N379   N     0.83333   0.61907   0.25000   0.00000  Uiso   1.00
N380   N     0.83333   0.38093   0.25000   0.00000  Uiso   1.00
N381   N     0.76094   0.46974   0.37912   0.00000  Uiso   1.00
O382   O     0.75109   0.42778   0.38315   0.00000  Uiso   1.00
O383   O     0.74132   0.49426   0.34908   0.00000  Uiso   1.00
N384   N     0.91034   0.51413   0.12169   0.00000  Uiso   1.00
O385   O     0.93816   0.48262   0.11975   0.00000  Uiso   1.00
O386   O     0.91566   0.54626   0.15074   0.00000  Uiso   1.00
N387   N     0.71717   0.48079   0.45432   0.00000  Uiso   1.00
O388   O     0.70256   0.51488   0.43157   0.00000  Uiso   1.00
O389   O     0.69163   0.44941   0.46575   0.00000  Uiso   1.00
N390   N     0.94366   0.54519   0.04572   0.00000  Uiso   1.00
O391   O     0.94137   0.58297   0.06709   0.00000  Uiso   1.00
O392   O     0.98007   0.53020   0.03532   0.00000  Uiso   1.00
I393   I     0.90103   0.39162   0.32488   0.00000  Uiso   1.00
I394   I     0.76581   0.60841   0.17492   0.00000  Uiso   1.00
I395   I     0.76556   0.39162   0.17517   0.00000  Uiso   1.00
I396   I     0.90148   0.60842   0.32441   0.00000  Uiso   1.00
O397   O     0.10559   0.87154   0.24999   0.00000  Uiso   1.00
O398   O     0.22774   0.79513   0.25001   0.00000  Uiso   1.00
O399   O     0.22774   0.87154   0.25000   0.00000  Uiso   1.00
O400   O     0.10559   0.79513   0.24999   0.00000  Uiso   1.00
C401   C     0.08674   0.83335   0.24934   0.00000  Uiso   1.00
C402   C     0.24657   0.83332   0.24978   0.00000  Uiso   1.00
O403   O     0.16666   0.87156   0.18392   0.00000  Uiso   1.00
O404   O     0.16667   0.79511   0.31607   0.00000  Uiso   1.00
O405   O     0.16667   0.87156   0.31607   0.00000  Uiso   1.00
O406   O     0.16666   0.79511   0.18392   0.00000  Uiso   1.00
C407   C     0.16750   0.83339   0.16380   0.00000  Uiso   1.00
C408   C     0.16616   0.83333   0.33629   0.00000  Uiso   1.00
Zn409  Zn    0.16667   0.88437   0.25000   0.00000  Uiso   1.00
Zn410  Zn    0.16667   0.78229   0.25000   0.00000  Uiso   1.00
C411   C     0.20084   0.84657   0.40768   0.00000  Uiso   1.00
C412   C     0.13167   0.82490   0.09248   0.00000  Uiso   1.00
C413   C     0.16497   0.83359   0.38397   0.00000  Uiso   1.00
C414   C     0.16854   0.83391   0.11623   0.00000  Uiso   1.00
C415   C     0.12866   0.82121   0.40531   0.00000  Uiso   1.00
C416   C     0.20553   0.84416   0.09512   0.00000  Uiso   1.00
C417   C     0.12777   0.82456   0.45237   0.00000  Uiso   1.00
C418   C     0.20484   0.84711   0.04793   0.00000  Uiso   1.00
C419   C     0.16546   0.83586   0.47665   0.00000  Uiso   1.00
C420   C     0.16706   0.83615   0.02361   0.00000  Uiso   1.00
C421   C     0.20172   0.84684   0.45393   0.00000  Uiso   1.00
C422   C     0.13071   0.82534   0.04627   0.00000  Uiso   1.00
C423   C     0.09100   0.81706   0.47617   0.00000  Uiso   1.00
C424   C     0.24016   0.86034   0.02401   0.00000  Uiso   1.00
C425   C     0.09332   0.81632   0.02278   0.00000  Uiso   1.00
C426   C     0.23833   0.85899   0.47740   0.00000  Uiso   1.00
H427   H     0.22848   0.85542   0.38986   0.00000  Uiso   1.00
H428   H     0.10366   0.81746   0.11030   0.00000  Uiso   1.00
H429   H     0.06523   0.81017   0.04083   0.00000  Uiso   1.00
H430   H     0.26547   0.86892   0.45932   0.00000  Uiso   1.00
C431   C     0.02128   0.79257   0.24902   0.00000  Uiso   1.00
C432   C     0.31192   0.87407   0.24823   0.00000  Uiso   1.00
C433   C     0.31202   0.79256   0.24891   0.00000  Uiso   1.00
C434   C     0.02118   0.87409   0.24832   0.00000  Uiso   1.00
H435   H     0.03740   0.76076   0.24965   0.00000  Uiso   1.00
H436   H     0.29580   0.90589   0.24778   0.00000  Uiso   1.00
H437   H     0.29598   0.76073   0.24903   0.00000  Uiso   1.00
H438   H     0.03722   0.90591   0.24837   0.00000  Uiso   1.00
C439   C     0.29075   0.83331   0.24893   0.00000  Uiso   1.00
C440   C     0.04247   0.83334   0.24873   0.00000  Uiso   1.00
C441   C     0.19286   0.69054   0.27887   0.00000  Uiso   1.00
C442   C     0.14051   0.97613   0.22109   0.00000  Uiso   1.00
C443   C     0.14049   0.69057   0.22111   0.00000  Uiso   1.00
C444   C     0.19291   0.97610   0.27882   0.00000  Uiso   1.00
N445   N     0.16667   0.95240   0.25000   0.00000  Uiso   1.00
N446   N     0.16667   0.71427   0.25000   0.00000  Uiso   1.00
N447   N     0.09427   0.80307   0.37912   0.00000  Uiso   1.00
O448   O     0.08443   0.76111   0.38315   0.00000  Uiso   1.00
O449   O     0.07466   0.82759   0.34908   0.00000  Uiso   1.00
N450   N     0.24367   0.84746   0.12169   0.00000  Uiso   1.00
O451   O     0.27149   0.81595   0.11975   0.00000  Uiso   1.00
O452   O     0.24899   0.87959   0.15074   0.00000  Uiso   1.00
N453   N     0.05050   0.81412   0.45432   0.00000  Uiso   1.00
O454   O     0.03589   0.84821   0.43157   0.00000  Uiso   1.00
O455   O     0.02497   0.78274   0.46575   0.00000  Uiso   1.00
N456   N     0.27699   0.87853   0.04572   0.00000  Uiso   1.00
O457   O     0.27470   0.91631   0.06709   0.00000  Uiso   1.00
O458   O     0.31340   0.86354   0.03532   0.00000  Uiso   1.00
I459   I     0.23436   0.72496   0.32488   0.00000  Uiso   1.00
I460   I     0.09915   0.94175   0.17492   0.00000  Uiso   1.00
I461   I     0.09890   0.72496   0.17517   0.00000  Uiso   1.00
I462   I     0.23481   0.94176   0.32441   0.00000  Uiso   1.00
O463   O     0.43892   0.87154   0.24999   0.00000  Uiso   1.00
O464   O     0.56108   0.79513   0.25001   0.00000  Uiso   1.00
O465   O     0.56108   0.87154   0.25000   0.00000  Uiso   1.00
O466   O     0.43892   0.79513   0.24999   0.00000  Uiso   1.00
C467   C     0.42007   0.83335   0.24934   0.00000  Uiso   1.00
C468   C     0.57990   0.83332   0.24978   0.00000  Uiso   1.00
O469   O     0.49999   0.87156   0.18392   0.00000  Uiso   1.00
O470   O     0.50001   0.79511   0.31607   0.00000  Uiso   1.00
O471   O     0.50001   0.87156   0.31607   0.00000  Uiso   1.00
O472   O     0.49999   0.79511   0.18392   0.00000  Uiso   1.00
C473   C     0.50084   0.83339   0.16380   0.00000  Uiso   1.00
C474   C     0.49949   0.83333   0.33629   0.00000  Uiso   1.00
Zn475  Zn    0.50000   0.88437   0.25000   0.00000  Uiso   1.00
Zn476  Zn    0.50000   0.78229   0.25000   0.00000  Uiso   1.00
C477   C     0.53418   0.84657   0.40768   0.00000  Uiso   1.00
C478   C     0.46500   0.82490   0.09248   0.00000  Uiso   1.00
C479   C     0.49830   0.83359   0.38397   0.00000  Uiso   1.00
C480   C     0.50188   0.83391   0.11623   0.00000  Uiso   1.00
C481   C     0.46199   0.82121   0.40531   0.00000  Uiso   1.00
C482   C     0.53886   0.84416   0.09512   0.00000  Uiso   1.00
C483   C     0.46111   0.82456   0.45237   0.00000  Uiso   1.00
C484   C     0.53818   0.84711   0.04793   0.00000  Uiso   1.00
C485   C     0.49880   0.83586   0.47665   0.00000  Uiso   1.00
C486   C     0.50039   0.83615   0.02361   0.00000  Uiso   1.00
C487   C     0.53505   0.84684   0.45393   0.00000  Uiso   1.00
C488   C     0.46404   0.82534   0.04627   0.00000  Uiso   1.00
C489   C     0.42433   0.81706   0.47617   0.00000  Uiso   1.00
C490   C     0.57350   0.86034   0.02401   0.00000  Uiso   1.00
C491   C     0.42665   0.81632   0.02278   0.00000  Uiso   1.00
C492   C     0.57166   0.85899   0.47740   0.00000  Uiso   1.00
H493   H     0.56181   0.85542   0.38986   0.00000  Uiso   1.00
H494   H     0.43699   0.81746   0.11030   0.00000  Uiso   1.00
H495   H     0.39856   0.81017   0.04083   0.00000  Uiso   1.00
H496   H     0.59881   0.86892   0.45932   0.00000  Uiso   1.00
C497   C     0.35461   0.79257   0.24902   0.00000  Uiso   1.00
C498   C     0.64526   0.87407   0.24823   0.00000  Uiso   1.00
C499   C     0.64536   0.79256   0.24891   0.00000  Uiso   1.00
C500   C     0.35451   0.87409   0.24832   0.00000  Uiso   1.00
H501   H     0.37074   0.76076   0.24965   0.00000  Uiso   1.00
H502   H     0.62913   0.90589   0.24778   0.00000  Uiso   1.00
H503   H     0.62931   0.76073   0.24903   0.00000  Uiso   1.00
H504   H     0.37055   0.90591   0.24837   0.00000  Uiso   1.00
C505   C     0.62409   0.83331   0.24893   0.00000  Uiso   1.00
C506   C     0.37581   0.83334   0.24873   0.00000  Uiso   1.00
C507   C     0.52620   0.69054   0.27887   0.00000  Uiso   1.00
C508   C     0.47384   0.97613   0.22109   0.00000  Uiso   1.00
C509   C     0.47383   0.69057   0.22111   0.00000  Uiso   1.00
C510   C     0.52624   0.97610   0.27882   0.00000  Uiso   1.00
N511   N     0.50000   0.95240   0.25000   0.00000  Uiso   1.00
N512   N     0.50000   0.71427   0.25000   0.00000  Uiso   1.00
N513   N     0.42760   0.80307   0.37912   0.00000  Uiso   1.00
O514   O     0.41776   0.76111   0.38315   0.00000  Uiso   1.00
O515   O     0.40799   0.82759   0.34908   0.00000  Uiso   1.00
N516   N     0.57701   0.84746   0.12169   0.00000  Uiso   1.00
O517   O     0.60482   0.81595   0.11975   0.00000  Uiso   1.00
O518   O     0.58232   0.87959   0.15074   0.00000  Uiso   1.00
N519   N     0.38384   0.81412   0.45432   0.00000  Uiso   1.00
O520   O     0.36923   0.84821   0.43157   0.00000  Uiso   1.00
O521   O     0.35830   0.78274   0.46575   0.00000  Uiso   1.00
N522   N     0.61033   0.87853   0.04572   0.00000  Uiso   1.00
O523   O     0.60803   0.91631   0.06709   0.00000  Uiso   1.00
O524   O     0.64673   0.86354   0.03532   0.00000  Uiso   1.00
I525   I     0.56769   0.72496   0.32488   0.00000  Uiso   1.00
I526   I     0.43248   0.94175   0.17492   0.00000  Uiso   1.00
I527   I     0.43223   0.72496   0.17517   0.00000  Uiso   1.00
I528   I     0.56815   0.94176   0.32441   0.00000  Uiso   1.00
O529   O     0.77226   0.87154   0.24999   0.00000  Uiso   1.00
O530   O     0.89441   0.79513   0.25001   0.00000  Uiso   1.00
O531   O     0.89441   0.87154   0.25000   0.00000  Uiso   1.00
O532   O     0.77226   0.79513   0.24999   0.00000  Uiso   1.00
C533   C     0.75340   0.83335   0.24934   0.00000  Uiso   1.00
C534   C     0.91323   0.83332   0.24978   0.00000  Uiso   1.00
O535   O     0.83333   0.87156   0.18392   0.00000  Uiso   1.00
O536   O     0.83334   0.79511   0.31607   0.00000  Uiso   1.00
O537   O     0.83334   0.87156   0.31607   0.00000  Uiso   1.00
O538   O     0.83333   0.79511   0.18392   0.00000  Uiso   1.00
C539   C     0.83417   0.83339   0.16380   0.00000  Uiso   1.00
C540   C     0.83283   0.83333   0.33629   0.00000  Uiso   1.00
Zn541  Zn    0.83333   0.88437   0.25000   0.00000  Uiso   1.00
Zn542  Zn    0.83333   0.78229   0.25000   0.00000  Uiso   1.00
C543   C     0.86751   0.84657   0.40768   0.00000  Uiso   1.00
C544   C     0.79834   0.82490   0.09248   0.00000  Uiso   1.00
C545   C     0.83164   0.83359   0.38397   0.00000  Uiso   1.00
C546   C     0.83521   0.83391   0.11623   0.00000  Uiso   1.00
C547   C     0.79533   0.82121   0.40531   0.00000  Uiso   1.00
C548   C     0.87219   0.84416   0.09512   0.00000  Uiso   1.00
C549   C     0.79444   0.82456   0.45237   0.00000  Uiso   1.00
C550   C     0.87151   0.84711   0.04793   0.00000  Uiso   1.00
C551   C     0.83213   0.83586   0.47665   0.00000  Uiso   1.00
C552   C     0.83372   0.83615   0.02361   0.00000  Uiso   1.00
C553   C     0.86838   0.84684   0.45393   0.00000  Uiso   1.00
C554   C     0.79737   0.82534   0.04627   0.00000  Uiso   1.00
C555   C     0.75767   0.81706   0.47617   0.00000  Uiso   1.00
C556   C     0.90683   0.86034   0.02401   0.00000  Uiso   1.00
C557   C     0.75998   0.81632   0.02278   0.00000  Uiso   1.00
C558   C     0.90499   0.85899   0.47740   0.00000  Uiso   1.00
H559   H     0.89514   0.85542   0.38986   0.00000  Uiso   1.00
H560   H     0.77033   0.81746   0.11030   0.00000  Uiso   1.00
H561   H     0.73189   0.81017   0.04083   0.00000  Uiso   1.00
H562   H     0.93214   0.86892   0.45932   0.00000  Uiso   1.00
C563   C     0.68795   0.79257   0.24902   0.00000  Uiso   1.00
C564   C     0.97859   0.87407   0.24823   0.00000  Uiso   1.00
C565   C     0.97869   0.79256   0.24891   0.00000  Uiso   1.00
C566   C     0.68785   0.87409   0.24832   0.00000  Uiso   1.00
H567   H     0.70407   0.76076   0.24965   0.00000  Uiso   1.00
H568   H     0.96246   0.90589   0.24778   0.00000  Uiso   1.00
H569   H     0.96264   0.76073   0.24903   0.00000  Uiso   1.00
H570   H     0.70388   0.90591   0.24837   0.00000  Uiso   1.00
C571   C     0.95742   0.83331   0.24893   0.00000  Uiso   1.00
C572   C     0.70914   0.83334   0.24873   0.00000  Uiso   1.00
C573   C     0.85953   0.69054   0.27887   0.00000  Uiso   1.00
C574   C     0.80717   0.97613   0.22109   0.00000  Uiso   1.00
C575   C     0.80716   0.69057   0.22111   0.00000  Uiso   1.00
C576   C     0.85957   0.97610   0.27882   0.00000  Uiso   1.00
N577   N     0.83333   0.95240   0.25000   0.00000  Uiso   1.00
N578   N     0.83333   0.71427   0.25000   0.00000  Uiso   1.00
N579   N     0.76094   0.80307   0.37912   0.00000  Uiso   1.00
O580   O     0.75109   0.76111   0.38315   0.00000  Uiso   1.00
O581   O     0.74132   0.82759   0.34908   0.00000  Uiso   1.00
N582   N     0.91034   0.84746   0.12169   0.00000  Uiso   1.00
O583   O     0.93816   0.81595   0.11975   0.00000  Uiso   1.00
O584   O     0.91566   0.87959   0.15074   0.00000  Uiso   1.00
N585   N     0.71717   0.81412   0.45432   0.00000  Uiso   1.00
O586   O     0.70256   0.84821   0.43157   0.00000  Uiso   1.00
O587   O     0.69163   0.78274   0.46575   0.00000  Uiso   1.00
N588   N     0.94366   0.87853   0.04572   0.00000  Uiso   1.00
O589   O     0.94137   0.91631   0.06709   0.00000  Uiso   1.00
O590   O     0.98007   0.86354   0.03532   0.00000  Uiso   1.00
I591   I     0.90103   0.72496   0.32488   0.00000  Uiso   1.00
I592   I     0.76581   0.94175   0.17492   0.00000  Uiso   1.00
I593   I     0.76556   0.72496   0.17517   0.00000  Uiso   1.00
I594   I     0.90148   0.94176   0.32441   0.00000  Uiso   1.00
O595   O     0.10559   0.20487   0.74999   0.00000  Uiso   1.00
O596   O     0.22774   0.12846   0.75001   0.00000  Uiso   1.00
O597   O     0.22774   0.20487   0.75000   0.00000  Uiso   1.00
O598   O     0.10559   0.12846   0.74999   0.00000  Uiso   1.00
C599   C     0.08674   0.16668   0.74934   0.00000  Uiso   1.00
C600   C     0.24657   0.16665   0.74978   0.00000  Uiso   1.00
O601   O     0.16666   0.20489   0.68392   0.00000  Uiso   1.00
O602   O     0.16667   0.12844   0.81607   0.00000  Uiso   1.00
O603   O     0.16667   0.20489   0.81607   0.00000  Uiso   1.00
O604   O     0.16666   0.12844   0.68392   0.00000  Uiso   1.00
C605   C     0.16750   0.16672   0.66380   0.00000  Uiso   1.00
C606   C     0.16616   0.16666   0.83629   0.00000  Uiso   1.00
Zn607  Zn    0.16667   0.21771   0.75000   0.00000  Uiso   1.00
Zn608  Zn    0.16667   0.11563   0.75000   0.00000  Uiso   1.00
C609   C     0.20084   0.17991   0.90768   0.00000  Uiso   1.00
C610   C     0.13167   0.15823   0.59248   0.00000  Uiso   1.00
C611   C     0.16497   0.16692   0.88397   0.00000  Uiso   1.00
C612   C     0.16854   0.16724   0.61623   0.00000  Uiso   1.00
C613   C     0.12866   0.15455   0.90531   0.00000  Uiso   1.00
C614   C     0.20553   0.17750   0.59512   0.00000  Uiso   1.00
C615   C     0.12777   0.15790   0.95237   0.00000  Uiso   1.00
C616   C     0.20484   0.18044   0.54793   0.00000  Uiso   1.00
C617   C     0.16546   0.16919   0.97665   0.00000  Uiso   1.00
C618   C     0.16706   0.16948   0.52361   0.00000  Uiso   1.00
C619   C     0.20172   0.18017   0.95393   0.00000  Uiso   1.00
C620   C     0.13071   0.15867   0.54627   0.00000  Uiso   1.00
C621   C     0.09100   0.15039   0.97617   0.00000  Uiso   1.00
C622   C     0.24016   0.19367   0.52401   0.00000  Uiso   1.00
C623   C     0.09332   0.14965   0.52278   0.00000  Uiso   1.00
C624   C     0.23833   0.19233   0.97740   0.00000  Uiso   1.00
H625   H     0.22848   0.18875   0.88986   0.00000  Uiso   1.00
H626   H     0.10366   0.15079   0.61030   0.00000  Uiso   1.00
H627   H     0.06523   0.14350   0.54083   0.00000  Uiso   1.00
H628   H     0.26547   0.20225   0.95932   0.00000  Uiso   1.00
C629   C     0.02128   0.12591   0.74902   0.00000  Uiso   1.00
C630   C     0.31192   0.20741   0.74823   0.00000  Uiso   1.00
C631   C     0.31202   0.12589   0.74891   0.00000  Uiso   1.00
C632   C     0.02118   0.20742   0.74832   0.00000  Uiso   1.00
H633   H     0.03740   0.09409   0.74965   0.00000  Uiso   1.00
H634   H     0.29580   0.23922   0.74778   0.00000  Uiso   1.00
H635   H     0.29598   0.09406   0.74903   0.00000  Uiso   1.00
H636   H     0.03722   0.23925   0.74837   0.00000  Uiso   1.00
C637   C     0.29075   0.16664   0.74893   0.00000  Uiso   1.00
C638   C     0.04247   0.16668   0.74873   0.00000  Uiso   1.00
C639   C     0.19286   0.02388   0.77887   0.00000  Uiso   1.00
C640   C     0.14051   0.30946   0.72109   0.00000  Uiso   1.00
C641   C     0.14049   0.02390   0.72111   0.00000  Uiso   1.00
C642   C     0.19291   0.30944   0.77882   0.00000  Uiso   1.00
N643   N     0.16667   0.28573   0.75000   0.00000  Uiso   1.00
N644   N     0.16667   0.04760   0.75000   0.00000  Uiso   1.00
N645   N     0.09427   0.13641   0.87912   0.00000  Uiso   1.00
O646   O     0.08443   0.09445   0.88315   0.00000  Uiso   1.00
O647   O     0.07466   0.16093   0.84908   0.00000  Uiso   1.00
N648   N     0.24367   0.18079   0.62169   0.00000  Uiso   1.00
O649   O     0.27149   0.14929   0.61975   0.00000  Uiso   1.00
O650   O     0.24899   0.21293   0.65074   0.00000  Uiso   1.00
N651   N     0.05050   0.14745   0.95432   0.00000  Uiso   1.00
O652   O     0.03589   0.18155   0.93157   0.00000  Uiso   1.00
O653   O     0.02497   0.11607   0.96575   0.00000  Uiso   1.00
N654   N     0.27699   0.21186   0.54572   0.00000  Uiso   1.00
O655   O     0.27470   0.24964   0.56709   0.00000  Uiso   1.00
O656   O     0.31340   0.19687   0.53532   0.00000  Uiso   1.00
I657   I     0.23436   0.05829   0.82488   0.00000  Uiso   1.00
I658   I     0.09915   0.27508   0.67492   0.00000  Uiso   1.00
I659   I     0.09890   0.05829   0.67517   0.00000  Uiso   1.00
I660   I     0.23481   0.27509   0.82441   0.00000  Uiso   1.00
O661   O     0.43892   0.20487   0.74999   0.00000  Uiso   1.00
O662   O     0.56108   0.12846   0.75001   0.00000  Uiso   1.00
O663   O     0.56108   0.20487   0.75000   0.00000  Uiso   1.00
O664   O     0.43892   0.12846   0.74999   0.00000  Uiso   1.00
C665   C     0.42007   0.16668   0.74934   0.00000  Uiso   1.00
C666   C     0.57990   0.16665   0.74978   0.00000  Uiso   1.00
O667   O     0.49999   0.20489   0.68392   0.00000  Uiso   1.00
O668   O     0.50001   0.12844   0.81607   0.00000  Uiso   1.00
O669   O     0.50001   0.20489   0.81607   0.00000  Uiso   1.00
O670   O     0.49999   0.12844   0.68392   0.00000  Uiso   1.00
C671   C     0.50084   0.16672   0.66380   0.00000  Uiso   1.00
C672   C     0.49949   0.16666   0.83629   0.00000  Uiso   1.00
Zn673  Zn    0.50000   0.21771   0.75000   0.00000  Uiso   1.00
Zn674  Zn    0.50000   0.11563   0.75000   0.00000  Uiso   1.00
C675   C     0.53418   0.17991   0.90768   0.00000  Uiso   1.00
C676   C     0.46500   0.15823   0.59248   0.00000  Uiso   1.00
C677   C     0.49830   0.16692   0.88397   0.00000  Uiso   1.00
C678   C     0.50188   0.16724   0.61623   0.00000  Uiso   1.00
C679   C     0.46199   0.15455   0.90531   0.00000  Uiso   1.00
C680   C     0.53886   0.17750   0.59512   0.00000  Uiso   1.00
C681   C     0.46111   0.15790   0.95237   0.00000  Uiso   1.00
C682   C     0.53818   0.18044   0.54793   0.00000  Uiso   1.00
C683   C     0.49880   0.16919   0.97665   0.00000  Uiso   1.00
C684   C     0.50039   0.16948   0.52361   0.00000  Uiso   1.00
C685   C     0.53505   0.18017   0.95393   0.00000  Uiso   1.00
C686   C     0.46404   0.15867   0.54627   0.00000  Uiso   1.00
C687   C     0.42433   0.15039   0.97617   0.00000  Uiso   1.00
C688   C     0.57350   0.19367   0.52401   0.00000  Uiso   1.00
C689   C     0.42665   0.14965   0.52278   0.00000  Uiso   1.00
C690   C     0.57166   0.19233   0.97740   0.00000  Uiso   1.00
H691   H     0.56181   0.18875   0.88986   0.00000  Uiso   1.00
H692   H     0.43699   0.15079   0.61030   0.00000  Uiso   1.00
H693   H     0.39856   0.14350   0.54083   0.00000  Uiso   1.00
H694   H     0.59881   0.20225   0.95932   0.00000  Uiso   1.00
C695   C     0.35461   0.12591   0.74902   0.00000  Uiso   1.00
C696   C     0.64526   0.20741   0.74823   0.00000  Uiso   1.00
C697   C     0.64536   0.12589   0.74891   0.00000  Uiso   1.00
C698   C     0.35451   0.20742   0.74832   0.00000  Uiso   1.00
H699   H     0.37074   0.09409   0.74965   0.00000  Uiso   1.00
H700   H     0.62913   0.23922   0.74778   0.00000  Uiso   1.00
H701   H     0.62931   0.09406   0.74903   0.00000  Uiso   1.00
H702   H     0.37055   0.23925   0.74837   0.00000  Uiso   1.00
C703   C     0.62409   0.16664   0.74893   0.00000  Uiso   1.00
C704   C     0.37581   0.16668   0.74873   0.00000  Uiso   1.00
C705   C     0.52620   0.02388   0.77887   0.00000  Uiso   1.00
C706   C     0.47384   0.30946   0.72109   0.00000  Uiso   1.00
C707   C     0.47383   0.02390   0.72111   0.00000  Uiso   1.00
C708   C     0.52624   0.30944   0.77882   0.00000  Uiso   1.00
N709   N     0.50000   0.28573   0.75000   0.00000  Uiso   1.00
N710   N     0.50000   0.04760   0.75000   0.00000  Uiso   1.00
N711   N     0.42760   0.13641   0.87912   0.00000  Uiso   1.00
O712   O     0.41776   0.09445   0.88315   0.00000  Uiso   1.00
O713   O     0.40799   0.16093   0.84908   0.00000  Uiso   1.00
N714   N     0.57701   0.18079   0.62169   0.00000  Uiso   1.00
O715   O     0.60482   0.14929   0.61975   0.00000  Uiso   1.00
O716   O     0.58232   0.21293   0.65074   0.00000  Uiso   1.00
N717   N     0.38384   0.14745   0.95432   0.00000  Uiso   1.00
O718   O     0.36923   0.18155   0.93157   0.00000  Uiso   1.00
O719   O     0.35830   0.11607   0.96575   0.00000  Uiso   1.00
N720   N     0.61033   0.21186   0.54572   0.00000  Uiso   1.00
O721   O     0.60803   0.24964   0.56709   0.00000  Uiso   1.00
O722   O     0.64673   0.19687   0.53532   0.00000  Uiso   1.00
I723   I     0.56769   0.05829   0.82488   0.00000  Uiso   1.00
I724   I     0.43248   0.27508   0.67492   0.00000  Uiso   1.00
I725   I     0.43223   0.05829   0.67517   0.00000  Uiso   1.00
I726   I     0.56815   0.27509   0.82441   0.00000  Uiso   1.00
O727   O     0.77226   0.20487   0.74999   0.00000  Uiso   1.00
O728   O     0.89441   0.12846   0.75001   0.00000  Uiso   1.00
O729   O     0.89441   0.20487   0.75000   0.00000  Uiso   1.00
O730   O     0.77226   0.12846   0.74999   0.00000  Uiso   1.00
C731   C     0.75340   0.16668   0.74934   0.00000  Uiso   1.00
C732   C     0.91323   0.16665   0.74978   0.00000  Uiso   1.00
O733   O     0.83333   0.20489   0.68392   0.00000  Uiso   1.00
O734   O     0.83334   0.12844   0.81607   0.00000  Uiso   1.00
O735   O     0.83334   0.20489   0.81607   0.00000  Uiso   1.00
O736   O     0.83333   0.12844   0.68392   0.00000  Uiso   1.00
C737   C     0.83417   0.16672   0.66380   0.00000  Uiso   1.00
C738   C     0.83283   0.16666   0.83629   0.00000  Uiso   1.00
Zn739  Zn    0.83333   0.21771   0.75000   0.00000  Uiso   1.00
Zn740  Zn    0.83333   0.11563   0.75000   0.00000  Uiso   1.00
C741   C     0.86751   0.17991   0.90768   0.00000  Uiso   1.00
C742   C     0.79834   0.15823   0.59248   0.00000  Uiso   1.00
C743   C     0.83164   0.16692   0.88397   0.00000  Uiso   1.00
C744   C     0.83521   0.16724   0.61623   0.00000  Uiso   1.00
C745   C     0.79533   0.15455   0.90531   0.00000  Uiso   1.00
C746   C     0.87219   0.17750   0.59512   0.00000  Uiso   1.00
C747   C     0.79444   0.15790   0.95237   0.00000  Uiso   1.00
C748   C     0.87151   0.18044   0.54793   0.00000  Uiso   1.00
C749   C     0.83213   0.16919   0.97665   0.00000  Uiso   1.00
C750   C     0.83372   0.16948   0.52361   0.00000  Uiso   1.00
C751   C     0.86838   0.18017   0.95393   0.00000  Uiso   1.00
C752   C     0.79737   0.15867   0.54627   0.00000  Uiso   1.00
C753   C     0.75767   0.15039   0.97617   0.00000  Uiso   1.00
C754   C     0.90683   0.19367   0.52401   0.00000  Uiso   1.00
C755   C     0.75998   0.14965   0.52278   0.00000  Uiso   1.00
C756   C     0.90499   0.19233   0.97740   0.00000  Uiso   1.00
H757   H     0.89514   0.18875   0.88986   0.00000  Uiso   1.00
H758   H     0.77033   0.15079   0.61030   0.00000  Uiso   1.00
H759   H     0.73189   0.14350   0.54083   0.00000  Uiso   1.00
H760   H     0.93214   0.20225   0.95932   0.00000  Uiso   1.00
C761   C     0.68795   0.12591   0.74902   0.00000  Uiso   1.00
C762   C     0.97859   0.20741   0.74823   0.00000  Uiso   1.00
C763   C     0.97869   0.12589   0.74891   0.00000  Uiso   1.00
C764   C     0.68785   0.20742   0.74832   0.00000  Uiso   1.00
H765   H     0.70407   0.09409   0.74965   0.00000  Uiso   1.00
H766   H     0.96246   0.23922   0.74778   0.00000  Uiso   1.00
H767   H     0.96264   0.09406   0.74903   0.00000  Uiso   1.00
H768   H     0.70388   0.23925   0.74837   0.00000  Uiso   1.00
C769   C     0.95742   0.16664   0.74893   0.00000  Uiso   1.00
C770   C     0.70914   0.16668   0.74873   0.00000  Uiso   1.00
C771   C     0.85953   0.02388   0.77887   0.00000  Uiso   1.00
C772   C     0.80717   0.30946   0.72109   0.00000  Uiso   1.00
C773   C     0.80716   0.02390   0.72111   0.00000  Uiso   1.00
C774   C     0.85957   0.30944   0.77882   0.00000  Uiso   1.00
N775   N     0.83333   0.28573   0.75000   0.00000  Uiso   1.00
N776   N     0.83333   0.04760   0.75000   0.00000  Uiso   1.00
N777   N     0.76094   0.13641   0.87912   0.00000  Uiso   1.00
O778   O     0.75109   0.09445   0.88315   0.00000  Uiso   1.00
O779   O     0.74132   0.16093   0.84908   0.00000  Uiso   1.00
N780   N     0.91034   0.18079   0.62169   0.00000  Uiso   1.00
O781   O     0.93816   0.14929   0.61975   0.00000  Uiso   1.00
O782   O     0.91566   0.21293   0.65074   0.00000  Uiso   1.00
N783   N     0.71717   0.14745   0.95432   0.00000  Uiso   1.00
O784   O     0.70256   0.18155   0.93157   0.00000  Uiso   1.00
O785   O     0.69163   0.11607   0.96575   0.00000  Uiso   1.00
N786   N     0.94366   0.21186   0.54572   0.00000  Uiso   1.00
O787   O     0.94137   0.24964   0.56709   0.00000  Uiso   1.00
O788   O     0.98007   0.19687   0.53532   0.00000  Uiso   1.00
I789   I     0.90103   0.05829   0.82488   0.00000  Uiso   1.00
I790   I     0.76581   0.27508   0.67492   0.00000  Uiso   1.00
I791   I     0.76556   0.05829   0.67517   0.00000  Uiso   1.00
I792   I     0.90148   0.27509   0.82441   0.00000  Uiso   1.00
O793   O     0.10559   0.53821   0.74999   0.00000  Uiso   1.00
O794   O     0.22774   0.46179   0.75001   0.00000  Uiso   1.00
O795   O     0.22774   0.53821   0.75000   0.00000  Uiso   1.00
O796   O     0.10559   0.46179   0.74999   0.00000  Uiso   1.00
C797   C     0.08674   0.50001   0.74934   0.00000  Uiso   1.00
C798   C     0.24657   0.49998   0.74978   0.00000  Uiso   1.00
O799   O     0.16666   0.53823   0.68392   0.00000  Uiso   1.00
O800   O     0.16667   0.46177   0.81607   0.00000  Uiso   1.00
O801   O     0.16667   0.53823   0.81607   0.00000  Uiso   1.00
O802   O     0.16666   0.46177   0.68392   0.00000  Uiso   1.00
C803   C     0.16750   0.50005   0.66380   0.00000  Uiso   1.00
C804   C     0.16616   0.49999   0.83629   0.00000  Uiso   1.00
Zn805  Zn    0.16667   0.55104   0.75000   0.00000  Uiso   1.00
Zn806  Zn    0.16667   0.44896   0.75000   0.00000  Uiso   1.00
C807   C     0.20084   0.51324   0.90768   0.00000  Uiso   1.00
C808   C     0.13167   0.49156   0.59248   0.00000  Uiso   1.00
C809   C     0.16497   0.50026   0.88397   0.00000  Uiso   1.00
C810   C     0.16854   0.50057   0.61623   0.00000  Uiso   1.00
C811   C     0.12866   0.48788   0.90531   0.00000  Uiso   1.00
C812   C     0.20553   0.51083   0.59512   0.00000  Uiso   1.00
C813   C     0.12777   0.49123   0.95237   0.00000  Uiso   1.00
C814   C     0.20484   0.51378   0.54793   0.00000  Uiso   1.00
C815   C     0.16546   0.50252   0.97665   0.00000  Uiso   1.00
C816   C     0.16706   0.50282   0.52361   0.00000  Uiso   1.00
C817   C     0.20172   0.51351   0.95393   0.00000  Uiso   1.00
C818   C     0.13071   0.49201   0.54627   0.00000  Uiso   1.00
C819   C     0.09100   0.48373   0.97617   0.00000  Uiso   1.00
C820   C     0.24016   0.52700   0.52401   0.00000  Uiso   1.00
C821   C     0.09332   0.48298   0.52278   0.00000  Uiso   1.00
C822   C     0.23833   0.52566   0.97740   0.00000  Uiso   1.00
H823   H     0.22848   0.52208   0.88986   0.00000  Uiso   1.00
H824   H     0.10366   0.48413   0.61030   0.00000  Uiso   1.00
H825   H     0.06523   0.47684   0.54083   0.00000  Uiso   1.00
H826   H     0.26547   0.53558   0.95932   0.00000  Uiso   1.00
C827   C     0.02128   0.45924   0.74902   0.00000  Uiso   1.00
C828   C     0.31192   0.54074   0.74823   0.00000  Uiso   1.00
C829   C     0.31202   0.45922   0.74891   0.00000  Uiso   1.00
C830   C     0.02118   0.54076   0.74832   0.00000  Uiso   1.00
H831   H     0.03740   0.42742   0.74965   0.00000  Uiso   1.00
H832   H     0.29580   0.57256   0.74778   0.00000  Uiso   1.00
H833   H     0.29598   0.42740   0.74903   0.00000  Uiso   1.00
H834   H     0.03722   0.57258   0.74837   0.00000  Uiso   1.00
C835   C     0.29075   0.49997   0.74893   0.00000  Uiso   1.00
C836   C     0.04247   0.50001   0.74873   0.00000  Uiso   1.00
C837   C     0.19286   0.35721   0.77887   0.00000  Uiso   1.00
C838   C     0.14051   0.64280   0.72109   0.00000  Uiso   1.00
C839   C     0.14049   0.35724   0.72111   0.00000  Uiso   1.00
C840   C     0.19291   0.64277   0.77882   0.00000  Uiso   1.00
N841   N     0.16667   0.61907   0.75000   0.00000  Uiso   1.00
N842   N     0.16667   0.38093   0.75000   0.00000  Uiso   1.00
N843   N     0.09427   0.46974   0.87912   0.00000  Uiso   1.00
O844   O     0.08443   0.42778   0.88315   0.00000  Uiso   1.00
O845   O     0.07466   0.49426   0.84908   0.00000  Uiso   1.00
N846   N     0.24367   0.51413   0.62169   0.00000  Uiso   1.00
O847   O     0.27149   0.48262   0.61975   0.00000  Uiso   1.00
O848   O     0.24899   0.54626   0.65074   0.00000  Uiso   1.00
N849   N     0.05050   0.48079   0.95432   0.00000  Uiso   1.00
O850   O     0.03589   0.51488   0.93157   0.00000  Uiso   1.00
O851   O     0.02497   0.44941   0.96575   0.00000  Uiso   1.00
N852   N     0.27699   0.54519   0.54572   0.00000  Uiso   1.00
O853   O     0.27470   0.58297   0.56709   0.00000  Uiso   1.00
O854   O     0.31340   0.53020   0.53532   0.00000  Uiso   1.00
I855   I     0.23436   0.39162   0.82488   0.00000  Uiso   1.00
I856   I     0.09915   0.60841   0.67492   0.00000  Uiso   1.00
I857   I     0.09890   0.39162   0.67517   0.00000  Uiso   1.00
I858   I     0.23481   0.60842   0.82441   0.00000  Uiso   1.00
O859   O     0.43892   0.53821   0.74999   0.00000  Uiso   1.00
O860   O     0.56108   0.46179   0.75001   0.00000  Uiso   1.00
O861   O     0.56108   0.53821   0.75000   0.00000  Uiso   1.00
O862   O     0.43892   0.46179   0.74999   0.00000  Uiso   1.00
C863   C     0.42007   0.50001   0.74934   0.00000  Uiso   1.00
C864   C     0.57990   0.49998   0.74978   0.00000  Uiso   1.00
O865   O     0.49999   0.53823   0.68392   0.00000  Uiso   1.00
O866   O     0.50001   0.46177   0.81607   0.00000  Uiso   1.00
O867   O     0.50001   0.53823   0.81607   0.00000  Uiso   1.00
O868   O     0.49999   0.46177   0.68392   0.00000  Uiso   1.00
C869   C     0.50084   0.50005   0.66380   0.00000  Uiso   1.00
C870   C     0.49949   0.49999   0.83629   0.00000  Uiso   1.00
Zn871  Zn    0.50000   0.55104   0.75000   0.00000  Uiso   1.00
Zn872  Zn    0.50000   0.44896   0.75000   0.00000  Uiso   1.00
C873   C     0.53418   0.51324   0.90768   0.00000  Uiso   1.00
C874   C     0.46500   0.49156   0.59248   0.00000  Uiso   1.00
C875   C     0.49830   0.50026   0.88397   0.00000  Uiso   1.00
C876   C     0.50188   0.50057   0.61623   0.00000  Uiso   1.00
C877   C     0.46199   0.48788   0.90531   0.00000  Uiso   1.00
C878   C     0.53886   0.51083   0.59512   0.00000  Uiso   1.00
C879   C     0.46111   0.49123   0.95237   0.00000  Uiso   1.00
C880   C     0.53818   0.51378   0.54793   0.00000  Uiso   1.00
C881   C     0.49880   0.50252   0.97665   0.00000  Uiso   1.00
C882   C     0.50039   0.50282   0.52361   0.00000  Uiso   1.00
C883   C     0.53505   0.51351   0.95393   0.00000  Uiso   1.00
C884   C     0.46404   0.49201   0.54627   0.00000  Uiso   1.00
C885   C     0.42433   0.48373   0.97617   0.00000  Uiso   1.00
C886   C     0.57350   0.52700   0.52401   0.00000  Uiso   1.00
C887   C     0.42665   0.48298   0.52278   0.00000  Uiso   1.00
C888   C     0.57166   0.52566   0.97740   0.00000  Uiso   1.00
H889   H     0.56181   0.52208   0.88986   0.00000  Uiso   1.00
H890   H     0.43699   0.48413   0.61030   0.00000  Uiso   1.00
H891   H     0.39856   0.47684   0.54083   0.00000  Uiso   1.00
H892   H     0.59881   0.53558   0.95932   0.00000  Uiso   1.00
C893   C     0.35461   0.45924   0.74902   0.00000  Uiso   1.00
C894   C     0.64526   0.54074   0.74823   0.00000  Uiso   1.00
C895   C     0.64536   0.45922   0.74891   0.00000  Uiso   1.00
C896   C     0.35451   0.54076   0.74832   0.00000  Uiso   1.00
H897   H     0.37074   0.42742   0.74965   0.00000  Uiso   1.00
H898   H     0.62913   0.57256   0.74778   0.00000  Uiso   1.00
H899   H     0.62931   0.42740   0.74903   0.00000  Uiso   1.00
H900   H     0.37055   0.57258   0.74837   0.00000  Uiso   1.00
C901   C     0.62409   0.49997   0.74893   0.00000  Uiso   1.00
C902   C     0.37581   0.50001   0.74873   0.00000  Uiso   1.00
C903   C     0.52620   0.35721   0.77887   0.00000  Uiso   1.00
C904   C     0.47384   0.64280   0.72109   0.00000  Uiso   1.00
C905   C     0.47383   0.35724   0.72111   0.00000  Uiso   1.00
C906   C     0.52624   0.64277   0.77882   0.00000  Uiso   1.00
N907   N     0.50000   0.61907   0.75000   0.00000  Uiso   1.00
N908   N     0.50000   0.38093   0.75000   0.00000  Uiso   1.00
N909   N     0.42760   0.46974   0.87912   0.00000  Uiso   1.00
O910   O     0.41776   0.42778   0.88315   0.00000  Uiso   1.00
O911   O     0.40799   0.49426   0.84908   0.00000  Uiso   1.00
N912   N     0.57701   0.51413   0.62169   0.00000  Uiso   1.00
O913   O     0.60482   0.48262   0.61975   0.00000  Uiso   1.00
O914   O     0.58232   0.54626   0.65074   0.00000  Uiso   1.00
N915   N     0.38384   0.48079   0.95432   0.00000  Uiso   1.00
O916   O     0.36923   0.51488   0.93157   0.00000  Uiso   1.00
O917   O     0.35830   0.44941   0.96575   0.00000  Uiso   1.00
N918   N     0.61033   0.54519   0.54572   0.00000  Uiso   1.00
O919   O     0.60803   0.58297   0.56709   0.00000  Uiso   1.00
O920   O     0.64673   0.53020   0.53532   0.00000  Uiso   1.00
I921   I     0.56769   0.39162   0.82488   0.00000  Uiso   1.00
I922   I     0.43248   0.60841   0.67492   0.00000  Uiso   1.00
I923   I     0.43223   0.39162   0.67517   0.00000  Uiso   1.00
I924   I     0.56815   0.60842   0.82441   0.00000  Uiso   1.00
O925   O     0.77226   0.53821   0.74999   0.00000  Uiso   1.00
O926   O     0.89441   0.46179   0.75001   0.00000  Uiso   1.00
O927   O     0.89441   0.53821   0.75000   0.00000  Uiso   1.00
O928   O     0.77226   0.46179   0.74999   0.00000  Uiso   1.00
C929   C     0.75340   0.50001   0.74934   0.00000  Uiso   1.00
C930   C     0.91323   0.49998   0.74978   0.00000  Uiso   1.00
O931   O     0.83333   0.53823   0.68392   0.00000  Uiso   1.00
O932   O     0.83334   0.46177   0.81607   0.00000  Uiso   1.00
O933   O     0.83334   0.53823   0.81607   0.00000  Uiso   1.00
O934   O     0.83333   0.46177   0.68392   0.00000  Uiso   1.00
C935   C     0.83417   0.50005   0.66380   0.00000  Uiso   1.00
C936   C     0.83283   0.49999   0.83629   0.00000  Uiso   1.00
Zn937  Zn    0.83333   0.55104   0.75000   0.00000  Uiso   1.00
Zn938  Zn    0.83333   0.44896   0.75000   0.00000  Uiso   1.00
C939   C     0.86751   0.51324   0.90768   0.00000  Uiso   1.00
C940   C     0.79834   0.49156   0.59248   0.00000  Uiso   1.00
C941   C     0.83164   0.50026   0.88397   0.00000  Uiso   1.00
C942   C     0.83521   0.50057   0.61623   0.00000  Uiso   1.00
C943   C     0.79533   0.48788   0.90531   0.00000  Uiso   1.00
C944   C     0.87219   0.51083   0.59512   0.00000  Uiso   1.00
C945   C     0.79444   0.49123   0.95237   0.00000  Uiso   1.00
C946   C     0.87151   0.51378   0.54793   0.00000  Uiso   1.00
C947   C     0.83213   0.50252   0.97665   0.00000  Uiso   1.00
C948   C     0.83372   0.50282   0.52361   0.00000  Uiso   1.00
C949   C     0.86838   0.51351   0.95393   0.00000  Uiso   1.00
C950   C     0.79737   0.49201   0.54627   0.00000  Uiso   1.00
C951   C     0.75767   0.48373   0.97617   0.00000  Uiso   1.00
C952   C     0.90683   0.52700   0.52401   0.00000  Uiso   1.00
C953   C     0.75998   0.48298   0.52278   0.00000  Uiso   1.00
C954   C     0.90499   0.52566   0.97740   0.00000  Uiso   1.00
H955   H     0.89514   0.52208   0.88986   0.00000  Uiso   1.00
H956   H     0.77033   0.48413   0.61030   0.00000  Uiso   1.00
H957   H     0.73189   0.47684   0.54083   0.00000  Uiso   1.00
H958   H     0.93214   0.53558   0.95932   0.00000  Uiso   1.00
C959   C     0.68795   0.45924   0.74902   0.00000  Uiso   1.00
C960   C     0.97859   0.54074   0.74823   0.00000  Uiso   1.00
C961   C     0.97869   0.45922   0.74891   0.00000  Uiso   1.00
C962   C     0.68785   0.54076   0.74832   0.00000  Uiso   1.00
H963   H     0.70407   0.42742   0.74965   0.00000  Uiso   1.00
H964   H     0.96246   0.57256   0.74778   0.00000  Uiso   1.00
H965   H     0.96264   0.42740   0.74903   0.00000  Uiso   1.00
H966   H     0.70388   0.57258   0.74837   0.00000  Uiso   1.00
C967   C     0.95742   0.49997   0.74893   0.00000  Uiso   1.00
C968   C     0.70914   0.50001   0.74873   0.00000  Uiso   1.00
C969   C     0.85953   0.35721   0.77887   0.00000  Uiso   1.00
C970   C     0.80717   0.64280   0.72109   0.00000  Uiso   1.00
C971   C     0.80716   0.35724   0.72111   0.00000  Uiso   1.00
C972   C     0.85957   0.64277   0.77882   0.00000  Uiso   1.00
N973   N     0.83333   0.61907   0.75000   0.00000  Uiso   1.00
N974   N     0.83333   0.38093   0.75000   0.00000  Uiso   1.00
N975   N     0.76094   0.46974   0.87912   0.00000  Uiso   1.00
O976   O     0.75109   0.42778   0.88315   0.00000  Uiso   1.00
O977   O     0.74132   0.49426   0.84908   0.00000  Uiso   1.00
N978   N     0.91034   0.51413   0.62169   0.00000  Uiso   1.00
O979   O     0.93816   0.48262   0.61975   0.00000  Uiso   1.00
O980   O     0.91566   0.54626   0.65074   0.00000  Uiso   1.00
N981   N     0.71717   0.48079   0.95432   0.00000  Uiso   1.00
O982   O     0.70256   0.51488   0.93157   0.00000  Uiso   1.00
O983   O     0.69163   0.44941   0.96575   0.00000  Uiso   1.00
N984   N     0.94366   0.54519   0.54572   0.00000  Uiso   1.00
O985   O     0.94137   0.58297   0.56709   0.00000  Uiso   1.00
O986   O     0.98007   0.53020   0.53532   0.00000  Uiso   1.00
I987   I     0.90103   0.39162   0.82488   0.00000  Uiso   1.00
I988   I     0.76581   0.60841   0.67492   0.00000  Uiso   1.00
I989   I     0.76556   0.39162   0.67517   0.00000  Uiso   1.00
I990   I     0.90148   0.60842   0.82441   0.00000  Uiso   1.00
O991   O     0.10559   0.87154   0.74999   0.00000  Uiso   1.00
O992   O     0.22774   0.79513   0.75001   0.00000  Uiso   1.00
O993   O     0.22774   0.87154   0.75000   0.00000  Uiso   1.00
O994   O     0.10559   0.79513   0.74999   0.00000  Uiso   1.00
C995   C     0.08674   0.83335   0.74934   0.00000  Uiso   1.00
C996   C     0.24657   0.83332   0.74978   0.00000  Uiso   1.00
O997   O     0.16666   0.87156   0.68392   0.00000  Uiso   1.00
O998   O     0.16667   0.79511   0.81607   0.00000  Uiso   1.00
O999   O     0.16667   0.87156   0.81607   0.00000  Uiso   1.00
O1000  O     0.16666   0.79511   0.68392   0.00000  Uiso   1.00
C1001  C     0.16750   0.83339   0.66380   0.00000  Uiso   1.00
C1002  C     0.16616   0.83333   0.83629   0.00000  Uiso   1.00
Zn1003 Zn    0.16667   0.88437   0.75000   0.00000  Uiso   1.00
Zn1004 Zn    0.16667   0.78229   0.75000   0.00000  Uiso   1.00
C1005  C     0.20084   0.84657   0.90768   0.00000  Uiso   1.00
C1006  C     0.13167   0.82490   0.59248   0.00000  Uiso   1.00
C1007  C     0.16497   0.83359   0.88397   0.00000  Uiso   1.00
C1008  C     0.16854   0.83391   0.61623   0.00000  Uiso   1.00
C1009  C     0.12866   0.82121   0.90531   0.00000  Uiso   1.00
C1010  C     0.20553   0.84416   0.59512   0.00000  Uiso   1.00
C1011  C     0.12777   0.82456   0.95237   0.00000  Uiso   1.00
C1012  C     0.20484   0.84711   0.54793   0.00000  Uiso   1.00
C1013  C     0.16546   0.83586   0.97665   0.00000  Uiso   1.00
C1014  C     0.16706   0.83615   0.52361   0.00000  Uiso   1.00
C1015  C     0.20172   0.84684   0.95393   0.00000  Uiso   1.00
C1016  C     0.13071   0.82534   0.54627   0.00000  Uiso   1.00
C1017  C     0.09100   0.81706   0.97617   0.00000  Uiso   1.00
C1018  C     0.24016   0.86034   0.52401   0.00000  Uiso   1.00
C1019  C     0.09332   0.81632   0.52278   0.00000  Uiso   1.00
C1020  C     0.23833   0.85899   0.97740   0.00000  Uiso   1.00
H1021  H     0.22848   0.85542   0.88986   0.00000  Uiso   1.00
H1022  H     0.10366   0.81746   0.61030   0.00000  Uiso   1.00
H1023  H     0.06523   0.81017   0.54083   0.00000  Uiso   1.00
H1024  H     0.26547   0.86892   0.95932   0.00000  Uiso   1.00
C1025  C     0.02128   0.79257   0.74902   0.00000  Uiso   1.00
C1026  C     0.31192   0.87407   0.74823   0.00000  Uiso   1.00
C1027  C     0.31202   0.79256   0.74891   0.00000  Uiso   1.00
C1028  C     0.02118   0.87409   0.74832   0.00000  Uiso   1.00
H1029  H     0.03740   0.76076   0.74965   0.00000  Uiso   1.00
H1030  H     0.29580   0.90589   0.74778   0.00000  Uiso   1.00
H1031  H     0.29598   0.76073   0.74903   0.00000  Uiso   1.00
H1032  H     0.03722   0.90591   0.74837   0.00000  Uiso   1.00
C1033  C     0.29075   0.83331   0.74893   0.00000  Uiso   1.00
C1034  C     0.04247   0.83334   0.74873   0.00000  Uiso   1.00
C1035  C     0.19286   0.69054   0.77887   0.00000  Uiso   1.00
C1036  C     0.14051   0.97613   0.72109   0.00000  Uiso   1.00
C1037  C     0.14049   0.69057   0.72111   0.00000  Uiso   1.00
C1038  C     0.19291   0.97610   0.77882   0.00000  Uiso   1.00
N1039  N     0.16667   0.95240   0.75000   0.00000  Uiso   1.00
N1040  N     0.16667   0.71427   0.75000   0.00000  Uiso   1.00
N1041  N     0.09427   0.80307   0.87912   0.00000  Uiso   1.00
O1042  O     0.08443   0.76111   0.88315   0.00000  Uiso   1.00
O1043  O     0.07466   0.82759   0.84908   0.00000  Uiso   1.00
N1044  N     0.24367   0.84746   0.62169   0.00000  Uiso   1.00
O1045  O     0.27149   0.81595   0.61975   0.00000  Uiso   1.00
O1046  O     0.24899   0.87959   0.65074   0.00000  Uiso   1.00
N1047  N     0.05050   0.81412   0.95432   0.00000  Uiso   1.00
O1048  O     0.03589   0.84821   0.93157   0.00000  Uiso   1.00
O1049  O     0.02497   0.78274   0.96575   0.00000  Uiso   1.00
N1050  N     0.27699   0.87853   0.54572   0.00000  Uiso   1.00
O1051  O     0.27470   0.91631   0.56709   0.00000  Uiso   1.00
O1052  O     0.31340   0.86354   0.53532   0.00000  Uiso   1.00
I1053  I     0.23436   0.72496   0.82488   0.00000  Uiso   1.00
I1054  I     0.09915   0.94175   0.67492   0.00000  Uiso   1.00
I1055  I     0.09890   0.72496   0.67517   0.00000  Uiso   1.00
I1056  I     0.23481   0.94176   0.82441   0.00000  Uiso   1.00
O1057  O     0.43892   0.87154   0.74999   0.00000  Uiso   1.00
O1058  O     0.56108   0.79513   0.75001   0.00000  Uiso   1.00
O1059  O     0.56108   0.87154   0.75000   0.00000  Uiso   1.00
O1060  O     0.43892   0.79513   0.74999   0.00000  Uiso   1.00
C1061  C     0.42007   0.83335   0.74934   0.00000  Uiso   1.00
C1062  C     0.57990   0.83332   0.74978   0.00000  Uiso   1.00
O1063  O     0.49999   0.87156   0.68392   0.00000  Uiso   1.00
O1064  O     0.50001   0.79511   0.81607   0.00000  Uiso   1.00
O1065  O     0.50001   0.87156   0.81607   0.00000  Uiso   1.00
O1066  O     0.49999   0.79511   0.68392   0.00000  Uiso   1.00
C1067  C     0.50084   0.83339   0.66380   0.00000  Uiso   1.00
C1068  C     0.49949   0.83333   0.83629   0.00000  Uiso   1.00
Zn1069 Zn    0.50000   0.88437   0.75000   0.00000  Uiso   1.00
Zn1070 Zn    0.50000   0.78229   0.75000   0.00000  Uiso   1.00
C1071  C     0.53418   0.84657   0.90768   0.00000  Uiso   1.00
C1072  C     0.46500   0.82490   0.59248   0.00000  Uiso   1.00
C1073  C     0.49830   0.83359   0.88397   0.00000  Uiso   1.00
C1074  C     0.50188   0.83391   0.61623   0.00000  Uiso   1.00
C1075  C     0.46199   0.82121   0.90531   0.00000  Uiso   1.00
C1076  C     0.53886   0.84416   0.59512   0.00000  Uiso   1.00
C1077  C     0.46111   0.82456   0.95237   0.00000  Uiso   1.00
C1078  C     0.53818   0.84711   0.54793   0.00000  Uiso   1.00
C1079  C     0.49880   0.83586   0.97665   0.00000  Uiso   1.00
C1080  C     0.50039   0.83615   0.52361   0.00000  Uiso   1.00
C1081  C     0.53505   0.84684   0.95393   0.00000  Uiso   1.00
C1082  C     0.46404   0.82534   0.54627   0.00000  Uiso   1.00
C1083  C     0.42433   0.81706   0.97617   0.00000  Uiso   1.00
C1084  C     0.57350   0.86034   0.52401   0.00000  Uiso   1.00
C1085  C     0.42665   0.81632   0.52278   0.00000  Uiso   1.00
C1086  C     0.57166   0.85899   0.97740   0.00000  Uiso   1.00
H1087  H     0.56181   0.85542   0.88986   0.00000  Uiso   1.00
H1088  H     0.43699   0.81746   0.61030   0.00000  Uiso   1.00
H1089  H     0.39856   0.81017   0.54083   0.00000  Uiso   1.00
H1090  H     0.59881   0.86892   0.95932   0.00000  Uiso   1.00
C1091  C     0.35461   0.79257   0.74902   0.00000  Uiso   1.00
C1092  C     0.64526   0.87407   0.74823   0.00000  Uiso   1.00
C1093  C     0.64536   0.79256   0.74891   0.00000  Uiso   1.00
C1094  C     0.35451   0.87409   0.74832   0.00000  Uiso   1.00
H1095  H     0.37074   0.76076   0.74965   0.00000  Uiso   1.00
H1096  H     0.62913   0.90589   0.74778   0.00000  Uiso   1.00
H1097  H     0.62931   0.76073   0.74903   0.00000  Uiso   1.00
H1098  H     0.37055   0.90591   0.74837   0.00000  Uiso   1.00
C1099  C     0.62409   0.83331   0.74893   0.00000  Uiso   1.00
C1100  C     0.37581   0.83334   0.74873   0.00000  Uiso   1.00
C1101  C     0.52620   0.69054   0.77887   0.00000  Uiso   1.00
C1102  C     0.47384   0.97613   0.72109   0.00000  Uiso   1.00
C1103  C     0.47383   0.69057   0.72111   0.00000  Uiso   1.00
C1104  C     0.52624   0.97610   0.77882   0.00000  Uiso   1.00
N1105  N     0.50000   0.95240   0.75000   0.00000  Uiso   1.00
N1106  N     0.50000   0.71427   0.75000   0.00000  Uiso   1.00
N1107  N     0.42760   0.80307   0.87912   0.00000  Uiso   1.00
O1108  O     0.41776   0.76111   0.88315   0.00000  Uiso   1.00
O1109  O     0.40799   0.82759   0.84908   0.00000  Uiso   1.00
N1110  N     0.57701   0.84746   0.62169   0.00000  Uiso   1.00
O1111  O     0.60482   0.81595   0.61975   0.00000  Uiso   1.00
O1112  O     0.58232   0.87959   0.65074   0.00000  Uiso   1.00
N1113  N     0.38384   0.81412   0.95432   0.00000  Uiso   1.00
O1114  O     0.36923   0.84821   0.93157   0.00000  Uiso   1.00
O1115  O     0.35830   0.78274   0.96575   0.00000  Uiso   1.00
N1116  N     0.61033   0.87853   0.54572   0.00000  Uiso   1.00
O1117  O     0.60803   0.91631   0.56709   0.00000  Uiso   1.00
O1118  O     0.64673   0.86354   0.53532   0.00000  Uiso   1.00
I1119  I     0.56769   0.72496   0.82488   0.00000  Uiso   1.00
I1120  I     0.43248   0.94175   0.67492   0.00000  Uiso   1.00
I1121  I     0.43223   0.72496   0.67517   0.00000  Uiso   1.00
I1122  I     0.56815   0.94176   0.82441   0.00000  Uiso   1.00
O1123  O     0.77226   0.87154   0.74999   0.00000  Uiso   1.00
O1124  O     0.89441   0.79513   0.75001   0.00000  Uiso   1.00
O1125  O     0.89441   0.87154   0.75000   0.00000  Uiso   1.00
O1126  O     0.77226   0.79513   0.74999   0.00000  Uiso   1.00
C1127  C     0.75340   0.83335   0.74934   0.00000  Uiso   1.00
C1128  C     0.91323   0.83332   0.74978   0.00000  Uiso   1.00
O1129  O     0.83333   0.87156   0.68392   0.00000  Uiso   1.00
O1130  O     0.83334   0.79511   0.81607   0.00000  Uiso   1.00
O1131  O     0.83334   0.87156   0.81607   0.00000  Uiso   1.00
O1132  O     0.83333   0.79511   0.68392   0.00000  Uiso   1.00
C1133  C     0.83417   0.83339   0.66380   0.00000  Uiso   1.00
C1134  C     0.83283   0.83333   0.83629   0.00000  Uiso   1.00
Zn1135 Zn    0.83333   0.88437   0.75000   0.00000  Uiso   1.00
Zn1136 Zn    0.83333   0.78229   0.75000   0.00000  Uiso   1.00
C1137  C     0.86751   0.84657   0.90768   0.00000  Uiso   1.00
C1138  C     0.79834   0.82490   0.59248   0.00000  Uiso   1.00
C1139  C     0.83164   0.83359   0.88397   0.00000  Uiso   1.00
C1140  C     0.83521   0.83391   0.61623   0.00000  Uiso   1.00
C1141  C     0.79533   0.82121   0.90531   0.00000  Uiso   1.00
C1142  C     0.87219   0.84416   0.59512   0.00000  Uiso   1.00
C1143  C     0.79444   0.82456   0.95237   0.00000  Uiso   1.00
C1144  C     0.87151   0.84711   0.54793   0.00000  Uiso   1.00
C1145  C     0.83213   0.83586   0.97665   0.00000  Uiso   1.00
C1146  C     0.83372   0.83615   0.52361   0.00000  Uiso   1.00
C1147  C     0.86838   0.84684   0.95393   0.00000  Uiso   1.00
C1148  C     0.79737   0.82534   0.54627   0.00000  Uiso   1.00
C1149  C     0.75767   0.81706   0.97617   0.00000  Uiso   1.00
C1150  C     0.90683   0.86034   0.52401   0.00000  Uiso   1.00
C1151  C     0.75998   0.81632   0.52278   0.00000  Uiso   1.00
C1152  C     0.90499   0.85899   0.97740   0.00000  Uiso   1.00
H1153  H     0.89514   0.85542   0.88986   0.00000  Uiso   1.00
H1154  H     0.77033   0.81746   0.61030   0.00000  Uiso   1.00
H1155  H     0.73189   0.81017   0.54083   0.00000  Uiso   1.00
H1156  H     0.93214   0.86892   0.95932   0.00000  Uiso   1.00
C1157  C     0.68795   0.79257   0.74902   0.00000  Uiso   1.00
C1158  C     0.97859   0.87407   0.74823   0.00000  Uiso   1.00
C1159  C     0.97869   0.79256   0.74891   0.00000  Uiso   1.00
C1160  C     0.68785   0.87409   0.74832   0.00000  Uiso   1.00
H1161  H     0.70407   0.76076   0.74965   0.00000  Uiso   1.00
H1162  H     0.96246   0.90589   0.74778   0.00000  Uiso   1.00
H1163  H     0.96264   0.76073   0.74903   0.00000  Uiso   1.00
H1164  H     0.70388   0.90591   0.74837   0.00000  Uiso   1.00
C1165  C     0.95742   0.83331   0.74893   0.00000  Uiso   1.00
C1166  C     0.70914   0.83334   0.74873   0.00000  Uiso   1.00
C1167  C     0.85953   0.69054   0.77887   0.00000  Uiso   1.00
C1168  C     0.80717   0.97613   0.72109   0.00000  Uiso   1.00
C1169  C     0.80716   0.69057   0.72111   0.00000  Uiso   1.00
C1170  C     0.85957   0.97610   0.77882   0.00000  Uiso   1.00
N1171  N     0.83333   0.95240   0.75000   0.00000  Uiso   1.00
N1172  N     0.83333   0.71427   0.75000   0.00000  Uiso   1.00
N1173  N     0.76094   0.80307   0.87912   0.00000  Uiso   1.00
O1174  O     0.75109   0.76111   0.88315   0.00000  Uiso   1.00
O1175  O     0.74132   0.82759   0.84908   0.00000  Uiso   1.00
N1176  N     0.91034   0.84746   0.62169   0.00000  Uiso   1.00
O1177  O     0.93816   0.81595   0.61975   0.00000  Uiso   1.00
O1178  O     0.91566   0.87959   0.65074   0.00000  Uiso   1.00
N1179  N     0.71717   0.81412   0.95432   0.00000  Uiso   1.00
O1180  O     0.70256   0.84821   0.93157   0.00000  Uiso   1.00
O1181  O     0.69163   0.78274   0.96575   0.00000  Uiso   1.00
N1182  N     0.94366   0.87853   0.54572   0.00000  Uiso   1.00
O1183  O     0.94137   0.91631   0.56709   0.00000  Uiso   1.00
O1184  O     0.98007   0.86354   0.53532   0.00000  Uiso   1.00
I1185  I     0.90103   0.72496   0.82488   0.00000  Uiso   1.00
I1186  I     0.76581   0.94175   0.67492   0.00000  Uiso   1.00
I1187  I     0.76556   0.72496   0.67517   0.00000  Uiso   1.00
I1188  I     0.90148   0.94176   0.82441   0.00000  Uiso   1.00
loop_
_geom_bond_atom_site_label_1
_geom_bond_atom_site_label_2
_geom_bond_distance
_geom_bond_site_symmetry_2
_ccdc_geom_bond_type
O1     C5      1.293   .     A
O1     Zn13    2.000   .     S
O2     C6      1.293   .     A
O2     Zn14    2.000   .     S
O3     Zn13    1.999   .     S
O3     C6      1.293   .     A
O4     Zn14    1.999   .     S
O4     C5      1.293   .     A
C5     C44     1.421   .     S
C6     C43     1.421   .     S
O7     C11     1.291   .     A
O7     Zn13    2.007   .     S
O8     C12     1.293   .     A
O8     Zn14    2.007   .     S
O9     C12     1.293   .     A
O9     Zn13    2.007   .     S
O10    C11     1.293   .     A
O10    Zn14    2.007   .     S
C11    C18     1.420   .     S
C12    C17     1.424   .     S
Zn13   N49     2.035   .     S
Zn14   N50     2.035   .     S
C15    C25     1.378   .     A
C15    C17     1.383   .     A
C15    H31     1.086   .     S
C16    H32     1.086   .     S
C16    C18     1.382   .     A
C16    C26     1.377   .     A
C17    C19     1.401   .     A
C18    C20     1.401   .     A
C19    N51     1.434   .     S
C19    C21     1.409   .     A
C20    C22     1.410   .     A
C20    N54     1.436   .     S
C21    C27     1.420   .     A
C21    C23     1.426   .     A
C22    C28     1.421   .     A
C22    C24     1.427   .     A
C23    C25     1.410   .     A
C23    C618    1.399   .     S
C24    C26     1.410   .     A
C24    C617    1.399   1_554 S
C25    C30     1.393   .     A
C26    C29     1.393   .     A
C27    N57     1.434   .     S
C27    C623    1.389   .     S
C28    N60     1.433   .     S
C28    C624    1.390   1_554 S
C29    H33     1.085   .     S
C29    C621    1.389   1_554 S
C30    H34     1.085   .     S
C30    C622    1.390   .     S
C35    H39     1.083   .     S
C35    C44     1.397   .     A
C35    C169    1.368   1_455 S
C36    H40     1.083   .     S
C36    C43     1.397   .     A
C36    C104    1.368   .     S
C37    C43     1.397   .     A
C37    H41     1.083   .     S
C37    C101    1.368   .     S
C38    C44     1.397   .     A
C38    H42     1.083   .     S
C38    C168    1.368   1_455 S
C45    N50     1.376   .     A
C45    I63     2.139   .     S
C45    C444    1.429   1_545 S
C46    N49     1.376   .     A
C46    I64     2.139   .     S
C46    C245    1.429   .     S
C47    I65     2.138   .     S
C47    N50     1.376   .     A
C47    C442    1.429   1_545 S
C48    N49     1.376   .     A
C48    I66     2.137   .     S
C48    C243    1.429   .     S
N51    O52     1.301   .     A
N51    O53     1.300   .     A
N54    O56     1.301   .     A
N54    O55     1.301   .     A
N57    O58     1.301   .     A
N57    O59     1.301   .     A
N60    O62     1.301   .     A
N60    O61     1.301   .     A
O67    C71     1.293   .     A
O67    Zn79    2.000   .     S
O68    C72     1.293   .     A
O68    Zn80    2.000   .     S
O69    Zn79    1.999   .     S
O69    C72     1.293   .     A
O70    Zn80    1.999   .     S
O70    C71     1.293   .     A
C71    C110    1.421   .     S
C72    C109    1.421   .     S
O73    C77     1.291   .     A
O73    Zn79    2.007   .     S
O74    C78     1.293   .     A
O74    Zn80    2.007   .     S
O75    C78     1.293   .     A
O75    Zn79    2.007   .     S
O76    C77     1.293   .     A
O76    Zn80    2.007   .     S
C77    C84     1.420   .     S
C78    C83     1.424   .     S
Zn79   N115    2.035   .     S
Zn80   N116    2.035   .     S
C81    C91     1.378   .     A
C81    C83     1.383   .     A
C81    H97     1.086   .     S
C82    H98     1.086   .     S
C82    C84     1.382   .     A
C82    C92     1.377   .     A
C83    C85     1.401   .     A
C84    C86     1.401   .     A
C85    N117    1.434   .     S
C85    C87     1.409   .     A
C86    C88     1.410   .     A
C86    N120    1.436   .     S
C87    C93     1.420   .     A
C87    C89     1.426   .     A
C88    C94     1.421   .     A
C88    C90     1.427   .     A
C89    C91     1.410   .     A
C89    C684    1.399   .     S
C90    C92     1.410   .     A
C90    C683    1.399   1_554 S
C91    C96     1.393   .     A
C92    C95     1.393   .     A
C93    N123    1.434   .     S
C93    C689    1.389   .     S
C94    N126    1.433   .     S
C94    C690    1.390   1_554 S
C95    H99     1.085   .     S
C95    C687    1.389   1_554 S
C96    H100    1.085   .     S
C96    C688    1.390   .     S
C101   H105    1.083   .     S
C101   C110    1.397   .     A
C102   H106    1.083   .     S
C102   C109    1.397   .     A
C102   C170    1.368   .     S
C103   C109    1.397   .     A
C103   H107    1.083   .     S
C103   C167    1.368   .     S
C104   C110    1.397   .     A
C104   H108    1.083   .     S
C111   N116    1.376   .     A
C111   I129    2.139   .     S
C111   C510    1.429   1_545 S
C112   N115    1.376   .     A
C112   I130    2.139   .     S
C112   C311    1.429   .     S
C113   I131    2.138   .     S
C113   N116    1.376   .     A
C113   C508    1.429   1_545 S
C114   N115    1.376   .     A
C114   I132    2.137   .     S
C114   C309    1.429   .     S
N117   O118    1.301   .     A
N117   O119    1.300   .     A
N120   O122    1.301   .     A
N120   O121    1.301   .     A
N123   O124    1.301   .     A
N123   O125    1.301   .     A
N126   O128    1.301   .     A
N126   O127    1.301   .     A
O133   C137    1.293   .     A
O133   Zn145   2.000   .     S
O134   C138    1.293   .     A
O134   Zn146   2.000   .     S
O135   Zn145   1.999   .     S
O135   C138    1.293   .     A
O136   Zn146   1.999   .     S
O136   C137    1.293   .     A
C137   C176    1.421   .     S
C138   C175    1.421   .     S
O139   C143    1.291   .     A
O139   Zn145   2.007   .     S
O140   C144    1.293   .     A
O140   Zn146   2.007   .     S
O141   C144    1.293   .     A
O141   Zn145   2.007   .     S
O142   C143    1.293   .     A
O142   Zn146   2.007   .     S
C143   C150    1.420   .     S
C144   C149    1.424   .     S
Zn145  N181    2.035   .     S
Zn146  N182    2.035   .     S
C147   C157    1.378   .     A
C147   C149    1.383   .     A
C147   H163    1.086   .     S
C148   H164    1.086   .     S
C148   C150    1.382   .     A
C148   C158    1.377   .     A
C149   C151    1.401   .     A
C150   C152    1.401   .     A
C151   N183    1.434   .     S
C151   C153    1.409   .     A
C152   C154    1.410   .     A
C152   N186    1.436   .     S
C153   C159    1.420   .     A
C153   C155    1.426   .     A
C154   C160    1.421   .     A
C154   C156    1.427   .     A
C155   C157    1.410   .     A
C155   C750    1.399   .     S
C156   C158    1.410   .     A
C156   C749    1.399   1_554 S
C157   C162    1.393   .     A
C158   C161    1.393   .     A
C159   N189    1.434   .     S
C159   C755    1.389   .     S
C160   N192    1.433   .     S
C160   C756    1.390   1_554 S
C161   H165    1.085   .     S
C161   C753    1.389   1_554 S
C162   H166    1.085   .     S
C162   C754    1.390   .     S
C167   H171    1.083   .     S
C167   C176    1.397   .     A
C168   H172    1.083   .     S
C168   C175    1.397   .     A
C168   C38     1.368   1_655 S
C169   C175    1.397   .     A
C169   H173    1.083   .     S
C169   C35     1.368   1_655 S
C170   C176    1.397   .     A
C170   H174    1.083   .     S
C177   N182    1.376   .     A
C177   I195    2.139   .     S
C177   C576    1.429   1_545 S
C178   N181    1.376   .     A
C178   I196    2.139   .     S
C178   C377    1.429   .     S
C179   I197    2.138   .     S
C179   N182    1.376   .     A
C179   C574    1.429   1_545 S
C180   N181    1.376   .     A
C180   I198    2.137   .     S
C180   C375    1.429   .     S
N183   O184    1.301   .     A
N183   O185    1.300   .     A
N186   O188    1.301   .     A
N186   O187    1.301   .     A
N189   O190    1.301   .     A
N189   O191    1.301   .     A
N192   O194    1.301   .     A
N192   O193    1.301   .     A
O199   C203    1.293   .     A
O199   Zn211   2.000   .     S
O200   C204    1.293   .     A
O200   Zn212   2.000   .     S
O201   Zn211   1.999   .     S
O201   C204    1.293   .     A
O202   Zn212   1.999   .     S
O202   C203    1.293   .     A
C203   C242    1.421   .     S
C204   C241    1.421   .     S
O205   C209    1.291   .     A
O205   Zn211   2.007   .     S
O206   C210    1.293   .     A
O206   Zn212   2.007   .     S
O207   C210    1.293   .     A
O207   Zn211   2.007   .     S
O208   C209    1.293   .     A
O208   Zn212   2.007   .     S
C209   C216    1.420   .     S
C210   C215    1.424   .     S
Zn211  N247    2.035   .     S
Zn212  N248    2.035   .     S
C213   C223    1.378   .     A
C213   C215    1.383   .     A
C213   H229    1.086   .     S
C214   H230    1.086   .     S
C214   C216    1.382   .     A
C214   C224    1.377   .     A
C215   C217    1.401   .     A
C216   C218    1.401   .     A
C217   N249    1.434   .     S
C217   C219    1.409   .     A
C218   C220    1.410   .     A
C218   N252    1.436   .     S
C219   C225    1.420   .     A
C219   C221    1.426   .     A
C220   C226    1.421   .     A
C220   C222    1.427   .     A
C221   C223    1.410   .     A
C221   C816    1.399   .     S
C222   C224    1.410   .     A
C222   C815    1.399   1_554 S
C223   C228    1.393   .     A
C224   C227    1.393   .     A
C225   N255    1.434   .     S
C225   C821    1.389   .     S
C226   N258    1.433   .     S
C226   C822    1.390   1_554 S
C227   H231    1.085   .     S
C227   C819    1.389   1_554 S
C228   H232    1.085   .     S
C228   C820    1.390   .     S
C233   H237    1.083   .     S
C233   C242    1.397   .     A
C233   C367    1.368   1_455 S
C234   H238    1.083   .     S
C234   C241    1.397   .     A
C234   C302    1.368   .     S
C235   C241    1.397   .     A
C235   H239    1.083   .     S
C235   C299    1.368   .     S
C236   C242    1.397   .     A
C236   H240    1.083   .     S
C236   C366    1.368   1_455 S
C243   N248    1.376   .     A
C243   I261    2.139   .     S
C244   N247    1.376   .     A
C244   I262    2.139   .     S
C244   C443    1.429   .     S
C245   I263    2.138   .     S
C245   N248    1.376   .     A
C246   N247    1.376   .     A
C246   I264    2.137   .     S
C246   C441    1.429   .     S
N249   O250    1.301   .     A
N249   O251    1.300   .     A
N252   O254    1.301   .     A
N252   O253    1.301   .     A
N255   O256    1.301   .     A
N255   O257    1.301   .     A
N258   O260    1.301   .     A
N258   O259    1.301   .     A
O265   C269    1.293   .     A
O265   Zn277   2.000   .     S
O266   C270    1.293   .     A
O266   Zn278   2.000   .     S
O267   Zn277   1.999   .     S
O267   C270    1.293   .     A
O268   Zn278   1.999   .     S
O268   C269    1.293   .     A
C269   C308    1.421   .     S
C270   C307    1.421   .     S
O271   C275    1.291   .     A
O271   Zn277   2.007   .     S
O272   C276    1.293   .     A
O272   Zn278   2.007   .     S
O273   C276    1.293   .     A
O273   Zn277   2.007   .     S
O274   C275    1.293   .     A
O274   Zn278   2.007   .     S
C275   C282    1.420   .     S
C276   C281    1.424   .     S
Zn277  N313    2.035   .     S
Zn278  N314    2.035   .     S
C279   C289    1.378   .     A
C279   C281    1.383   .     A
C279   H295    1.086   .     S
C280   H296    1.086   .     S
C280   C282    1.382   .     A
C280   C290    1.377   .     A
C281   C283    1.401   .     A
C282   C284    1.401   .     A
C283   N315    1.434   .     S
C283   C285    1.409   .     A
C284   C286    1.410   .     A
C284   N318    1.436   .     S
C285   C291    1.420   .     A
C285   C287    1.426   .     A
C286   C292    1.421   .     A
C286   C288    1.427   .     A
C287   C289    1.410   .     A
C287   C882    1.399   .     S
C288   C290    1.410   .     A
C288   C881    1.399   1_554 S
C289   C294    1.393   .     A
C290   C293    1.393   .     A
C291   N321    1.434   .     S
C291   C887    1.389   .     S
C292   N324    1.433   .     S
C292   C888    1.390   1_554 S
C293   H297    1.085   .     S
C293   C885    1.389   1_554 S
C294   H298    1.085   .     S
C294   C886    1.390   .     S
C299   H303    1.083   .     S
C299   C308    1.397   .     A
C300   H304    1.083   .     S
C300   C307    1.397   .     A
C300   C368    1.368   .     S
C301   C307    1.397   .     A
C301   H305    1.083   .     S
C301   C365    1.368   .     S
C302   C308    1.397   .     A
C302   H306    1.083   .     S
C309   N314    1.376   .     A
C309   I327    2.139   .     S
C310   N313    1.376   .     A
C310   I328    2.139   .     S
C310   C509    1.429   .     S
C311   I329    2.138   .     S
C311   N314    1.376   .     A
C312   N313    1.376   .     A
C312   I330    2.137   .     S
C312   C507    1.429   .     S
N315   O316    1.301   .     A
N315   O317    1.300   .     A
N318   O320    1.301   .     A
N318   O319    1.301   .     A
N321   O322    1.301   .     A
N321   O323    1.301   .     A
N324   O326    1.301   .     A
N324   O325    1.301   .     A
O331   C335    1.293   .     A
O331   Zn343   2.000   .     S
O332   C336    1.293   .     A
O332   Zn344   2.000   .     S
O333   Zn343   1.999   .     S
O333   C336    1.293   .     A
O334   Zn344   1.999   .     S
O334   C335    1.293   .     A
C335   C374    1.421   .     S
C336   C373    1.421   .     S
O337   C341    1.291   .     A
O337   Zn343   2.007   .     S
O338   C342    1.293   .     A
O338   Zn344   2.007   .     S
O339   C342    1.293   .     A
O339   Zn343   2.007   .     S
O340   C341    1.293   .     A
O340   Zn344   2.007   .     S
C341   C348    1.420   .     S
C342   C347    1.424   .     S
Zn343  N379    2.035   .     S
Zn344  N380    2.035   .     S
C345   C355    1.378   .     A
C345   C347    1.383   .     A
C345   H361    1.086   .     S
C346   H362    1.086   .     S
C346   C348    1.382   .     A
C346   C356    1.377   .     A
C347   C349    1.401   .     A
C348   C350    1.401   .     A
C349   N381    1.434   .     S
C349   C351    1.409   .     A
C350   C352    1.410   .     A
C350   N384    1.436   .     S
C351   C357    1.420   .     A
C351   C353    1.426   .     A
C352   C358    1.421   .     A
C352   C354    1.427   .     A
C353   C355    1.410   .     A
C353   C948    1.399   .     S
C354   C356    1.410   .     A
C354   C947    1.399   1_554 S
C355   C360    1.393   .     A
C356   C359    1.393   .     A
C357   N387    1.434   .     S
C357   C953    1.389   .     S
C358   N390    1.433   .     S
C358   C954    1.390   1_554 S
C359   H363    1.085   .     S
C359   C951    1.389   1_554 S
C360   H364    1.085   .     S
C360   C952    1.390   .     S
C365   H369    1.083   .     S
C365   C374    1.397   .     A
C366   H370    1.083   .     S
C366   C373    1.397   .     A
C366   C236    1.368   1_655 S
C367   C373    1.397   .     A
C367   H371    1.083   .     S
C367   C233    1.368   1_655 S
C368   C374    1.397   .     A
C368   H372    1.083   .     S
C375   N380    1.376   .     A
C375   I393    2.139   .     S
C376   N379    1.376   .     A
C376   I394    2.139   .     S
C376   C575    1.429   .     S
C377   I395    2.138   .     S
C377   N380    1.376   .     A
C378   N379    1.376   .     A
C378   I396    2.137   .     S
C378   C573    1.429   .     S
N381   O382    1.301   .     A
N381   O383    1.300   .     A
N384   O386    1.301   .     A
N384   O385    1.301   .     A
N387   O388    1.301   .     A
N387   O389    1.301   .     A
N390   O392    1.301   .     A
N390   O391    1.301   .     A
O397   C401    1.293   .     A
O397   Zn409   2.000   .     S
O398   C402    1.293   .     A
O398   Zn410   2.000   .     S
O399   Zn409   1.999   .     S
O399   C402    1.293   .     A
O400   Zn410   1.999   .     S
O400   C401    1.293   .     A
C401   C440    1.421   .     S
C402   C439    1.421   .     S
O403   C407    1.291   .     A
O403   Zn409   2.007   .     S
O404   C408    1.293   .     A
O404   Zn410   2.007   .     S
O405   C408    1.293   .     A
O405   Zn409   2.007   .     S
O406   C407    1.293   .     A
O406   Zn410   2.007   .     S
C407   C414    1.420   .     S
C408   C413    1.424   .     S
Zn409  N445    2.035   .     S
Zn410  N446    2.035   .     S
C411   C421    1.378   .     A
C411   C413    1.383   .     A
C411   H427    1.086   .     S
C412   H428    1.086   .     S
C412   C414    1.382   .     A
C412   C422    1.377   .     A
C413   C415    1.401   .     A
C414   C416    1.401   .     A
C415   N447    1.434   .     S
C415   C417    1.409   .     A
C416   C418    1.410   .     A
C416   N450    1.436   .     S
C417   C423    1.420   .     A
C417   C419    1.426   .     A
C418   C424    1.421   .     A
C418   C420    1.427   .     A
C419   C421    1.410   .     A
C419   C1014   1.399   .     S
C420   C422    1.410   .     A
C420   C1013   1.399   1_554 S
C421   C426    1.393   .     A
C422   C425    1.393   .     A
C423   N453    1.434   .     S
C423   C1019   1.389   .     S
C424   N456    1.433   .     S
C424   C1020   1.390   1_554 S
C425   H429    1.085   .     S
C425   C1017   1.389   1_554 S
C426   H430    1.085   .     S
C426   C1018   1.390   .     S
C431   H435    1.083   .     S
C431   C440    1.397   .     A
C431   C565    1.368   1_455 S
C432   H436    1.083   .     S
C432   C439    1.397   .     A
C432   C500    1.368   .     S
C433   C439    1.397   .     A
C433   H437    1.083   .     S
C433   C497    1.368   .     S
C434   C440    1.397   .     A
C434   H438    1.083   .     S
C434   C564    1.368   1_455 S
C441   N446    1.376   .     A
C441   I459    2.139   .     S
C442   N445    1.376   .     A
C442   I460    2.139   .     S
C442   C47     1.429   1_565 S
C443   I461    2.138   .     S
C443   N446    1.376   .     A
C444   N445    1.376   .     A
C444   I462    2.137   .     S
C444   C45     1.429   1_565 S
N447   O448    1.301   .     A
N447   O449    1.300   .     A
N450   O452    1.301   .     A
N450   O451    1.301   .     A
N453   O454    1.301   .     A
N453   O455    1.301   .     A
N456   O458    1.301   .     A
N456   O457    1.301   .     A
O463   C467    1.293   .     A
O463   Zn475   2.000   .     S
O464   C468    1.293   .     A
O464   Zn476   2.000   .     S
O465   Zn475   1.999   .     S
O465   C468    1.293   .     A
O466   Zn476   1.999   .     S
O466   C467    1.293   .     A
C467   C506    1.421   .     S
C468   C505    1.421   .     S
O469   C473    1.291   .     A
O469   Zn475   2.007   .     S
O470   C474    1.293   .     A
O470   Zn476   2.007   .     S
O471   C474    1.293   .     A
O471   Zn475   2.007   .     S
O472   C473    1.293   .     A
O472   Zn476   2.007   .     S
C473   C480    1.420   .     S
C474   C479    1.424   .     S
Zn475  N511    2.035   .     S
Zn476  N512    2.035   .     S
C477   C487    1.378   .     A
C477   C479    1.383   .     A
C477   H493    1.086   .     S
C478   H494    1.086   .     S
C478   C480    1.382   .     A
C478   C488    1.377   .     A
C479   C481    1.401   .     A
C480   C482    1.401   .     A
C481   N513    1.434   .     S
C481   C483    1.409   .     A
C482   C484    1.410   .     A
C482   N516    1.436   .     S
C483   C489    1.420   .     A
C483   C485    1.426   .     A
C484   C490    1.421   .     A
C484   C486    1.427   .     A
C485   C487    1.410   .     A
C485   C1080   1.399   .     S
C486   C488    1.410   .     A
C486   C1079   1.399   1_554 S
C487   C492    1.393   .     A
C488   C491    1.393   .     A
C489   N519    1.434   .     S
C489   C1085   1.389   .     S
C490   N522    1.433   .     S
C490   C1086   1.390   1_554 S
C491   H495    1.085   .     S
C491   C1083   1.389   1_554 S
C492   H496    1.085   .     S
C492   C1084   1.390   .     S
C497   H501    1.083   .     S
C497   C506    1.397   .     A
C498   H502    1.083   .     S
C498   C505    1.397   .     A
C498   C566    1.368   .     S
C499   C505    1.397   .     A
C499   H503    1.083   .     S
C499   C563    1.368   .     S
C500   C506    1.397   .     A
C500   H504    1.083   .     S
C507   N512    1.376   .     A
C507   I525    2.139   .     S
C508   N511    1.376   .     A
C508   I526    2.139   .     S
C508   C113    1.429   1_565 S
C509   I527    2.138   .     S
C509   N512    1.376   .     A
C510   N511    1.376   .     A
C510   I528    2.137   .     S
C510   C111    1.429   1_565 S
N513   O514    1.301   .     A
N513   O515    1.300   .     A
N516   O518    1.301   .     A
N516   O517    1.301   .     A
N519   O520    1.301   .     A
N519   O521    1.301   .     A
N522   O524    1.301   .     A
N522   O523    1.301   .     A
O529   C533    1.293   .     A
O529   Zn541   2.000   .     S
O530   C534    1.293   .     A
O530   Zn542   2.000   .     S
O531   Zn541   1.999   .     S
O531   C534    1.293   .     A
O532   Zn542   1.999   .     S
O532   C533    1.293   .     A
C533   C572    1.421   .     S
C534   C571    1.421   .     S
O535   C539    1.291   .     A
O535   Zn541   2.007   .     S
O536   C540    1.293   .     A
O536   Zn542   2.007   .     S
O537   C540    1.293   .     A
O537   Zn541   2.007   .     S
O538   C539    1.293   .     A
O538   Zn542   2.007   .     S
C539   C546    1.420   .     S
C540   C545    1.424   .     S
Zn541  N577    2.035   .     S
Zn542  N578    2.035   .     S
C543   C553    1.378   .     A
C543   C545    1.383   .     A
C543   H559    1.086   .     S
C544   H560    1.086   .     S
C544   C546    1.382   .     A
C544   C554    1.377   .     A
C545   C547    1.401   .     A
C546   C548    1.401   .     A
C547   N579    1.434   .     S
C547   C549    1.409   .     A
C548   C550    1.410   .     A
C548   N582    1.436   .     S
C549   C555    1.420   .     A
C549   C551    1.426   .     A
C550   C556    1.421   .     A
C550   C552    1.427   .     A
C551   C553    1.410   .     A
C551   C1146   1.399   .     S
C552   C554    1.410   .     A
C552   C1145   1.399   1_554 S
C553   C558    1.393   .     A
C554   C557    1.393   .     A
C555   N585    1.434   .     S
C555   C1151   1.389   .     S
C556   N588    1.433   .     S
C556   C1152   1.390   1_554 S
C557   H561    1.085   .     S
C557   C1149   1.389   1_554 S
C558   H562    1.085   .     S
C558   C1150   1.390   .     S
C563   H567    1.083   .     S
C563   C572    1.397   .     A
C564   H568    1.083   .     S
C564   C571    1.397   .     A
C564   C434    1.368   1_655 S
C565   C571    1.397   .     A
C565   H569    1.083   .     S
C565   C431    1.368   1_655 S
C566   C572    1.397   .     A
C566   H570    1.083   .     S
C573   N578    1.376   .     A
C573   I591    2.139   .     S
C574   N577    1.376   .     A
C574   I592    2.139   .     S
C574   C179    1.429   1_565 S
C575   I593    2.138   .     S
C575   N578    1.376   .     A
C576   N577    1.376   .     A
C576   I594    2.137   .     S
C576   C177    1.429   1_565 S
N579   O580    1.301   .     A
N579   O581    1.300   .     A
N582   O584    1.301   .     A
N582   O583    1.301   .     A
N585   O586    1.301   .     A
N585   O587    1.301   .     A
N588   O590    1.301   .     A
N588   O589    1.301   .     A
O595   C599    1.293   .     A
O595   Zn607   2.000   .     S
O596   C600    1.293   .     A
O596   Zn608   2.000   .     S
O597   Zn607   1.999   .     S
O597   C600    1.293   .     A
O598   Zn608   1.999   .     S
O598   C599    1.293   .     A
C599   C638    1.421   .     S
C600   C637    1.421   .     S
O601   C605    1.291   .     A
O601   Zn607   2.007   .     S
O602   C606    1.293   .     A
O602   Zn608   2.007   .     S
O603   C606    1.293   .     A
O603   Zn607   2.007   .     S
O604   C605    1.293   .     A
O604   Zn608   2.007   .     S
C605   C612    1.420   .     S
C606   C611    1.424   .     S
Zn607  N643    2.035   .     S
Zn608  N644    2.035   .     S
C609   C619    1.378   .     A
C609   C611    1.383   .     A
C609   H625    1.086   .     S
C610   H626    1.086   .     S
C610   C612    1.382   .     A
C610   C620    1.377   .     A
C611   C613    1.401   .     A
C612   C614    1.401   .     A
C613   N645    1.434   .     S
C613   C615    1.409   .     A
C614   C616    1.410   .     A
C614   N648    1.436   .     S
C615   C621    1.420   .     A
C615   C617    1.426   .     A
C616   C622    1.421   .     A
C616   C618    1.427   .     A
C617   C619    1.410   .     A
C617   C24     1.399   1_556 S
C618   C620    1.410   .     A
C619   C624    1.393   .     A
C620   C623    1.393   .     A
C621   N651    1.434   .     S
C621   C29     1.389   1_556 S
C622   N654    1.433   .     S
C623   H627    1.085   .     S
C624   H628    1.085   .     S
C624   C28     1.390   1_556 S
C629   H633    1.083   .     S
C629   C638    1.397   .     A
C629   C763    1.368   1_455 S
C630   H634    1.083   .     S
C630   C637    1.397   .     A
C630   C698    1.368   .     S
C631   C637    1.397   .     A
C631   H635    1.083   .     S
C631   C695    1.368   .     S
C632   C638    1.397   .     A
C632   H636    1.083   .     S
C632   C762    1.368   1_455 S
C639   N644    1.376   .     A
C639   I657    2.139   .     S
C639   C1038   1.429   1_545 S
C640   N643    1.376   .     A
C640   I658    2.139   .     S
C640   C839    1.429   .     S
C641   I659    2.138   .     S
C641   N644    1.376   .     A
C641   C1036   1.429   1_545 S
C642   N643    1.376   .     A
C642   I660    2.137   .     S
C642   C837    1.429   .     S
N645   O646    1.301   .     A
N645   O647    1.300   .     A
N648   O650    1.301   .     A
N648   O649    1.301   .     A
N651   O652    1.301   .     A
N651   O653    1.301   .     A
N654   O656    1.301   .     A
N654   O655    1.301   .     A
O661   C665    1.293   .     A
O661   Zn673   2.000   .     S
O662   C666    1.293   .     A
O662   Zn674   2.000   .     S
O663   Zn673   1.999   .     S
O663   C666    1.293   .     A
O664   Zn674   1.999   .     S
O664   C665    1.293   .     A
C665   C704    1.421   .     S
C666   C703    1.421   .     S
O667   C671    1.291   .     A
O667   Zn673   2.007   .     S
O668   C672    1.293   .     A
O668   Zn674   2.007   .     S
O669   C672    1.293   .     A
O669   Zn673   2.007   .     S
O670   C671    1.293   .     A
O670   Zn674   2.007   .     S
C671   C678    1.420   .     S
C672   C677    1.424   .     S
Zn673  N709    2.035   .     S
Zn674  N710    2.035   .     S
C675   C685    1.378   .     A
C675   C677    1.383   .     A
C675   H691    1.086   .     S
C676   H692    1.086   .     S
C676   C678    1.382   .     A
C676   C686    1.377   .     A
C677   C679    1.401   .     A
C678   C680    1.401   .     A
C679   N711    1.434   .     S
C679   C681    1.409   .     A
C680   C682    1.410   .     A
C680   N714    1.436   .     S
C681   C687    1.420   .     A
C681   C683    1.426   .     A
C682   C688    1.421   .     A
C682   C684    1.427   .     A
C683   C685    1.410   .     A
C683   C90     1.399   1_556 S
C684   C686    1.410   .     A
C685   C690    1.393   .     A
C686   C689    1.393   .     A
C687   N717    1.434   .     S
C687   C95     1.389   1_556 S
C688   N720    1.433   .     S
C689   H693    1.085   .     S
C690   H694    1.085   .     S
C690   C94     1.390   1_556 S
C695   H699    1.083   .     S
C695   C704    1.397   .     A
C696   H700    1.083   .     S
C696   C703    1.397   .     A
C696   C764    1.368   .     S
C697   C703    1.397   .     A
C697   H701    1.083   .     S
C697   C761    1.368   .     S
C698   C704    1.397   .     A
C698   H702    1.083   .     S
C705   N710    1.376   .     A
C705   I723    2.139   .     S
C705   C1104   1.429   1_545 S
C706   N709    1.376   .     A
C706   I724    2.139   .     S
C706   C905    1.429   .     S
C707   I725    2.138   .     S
C707   N710    1.376   .     A
C707   C1102   1.429   1_545 S
C708   N709    1.376   .     A
C708   I726    2.137   .     S
C708   C903    1.429   .     S
N711   O712    1.301   .     A
N711   O713    1.300   .     A
N714   O716    1.301   .     A
N714   O715    1.301   .     A
N717   O718    1.301   .     A
N717   O719    1.301   .     A
N720   O722    1.301   .     A
N720   O721    1.301   .     A
O727   C731    1.293   .     A
O727   Zn739   2.000   .     S
O728   C732    1.293   .     A
O728   Zn740   2.000   .     S
O729   Zn739   1.999   .     S
O729   C732    1.293   .     A
O730   Zn740   1.999   .     S
O730   C731    1.293   .     A
C731   C770    1.421   .     S
C732   C769    1.421   .     S
O733   C737    1.291   .     A
O733   Zn739   2.007   .     S
O734   C738    1.293   .     A
O734   Zn740   2.007   .     S
O735   C738    1.293   .     A
O735   Zn739   2.007   .     S
O736   C737    1.293   .     A
O736   Zn740   2.007   .     S
C737   C744    1.420   .     S
C738   C743    1.424   .     S
Zn739  N775    2.035   .     S
Zn740  N776    2.035   .     S
C741   C751    1.378   .     A
C741   C743    1.383   .     A
C741   H757    1.086   .     S
C742   H758    1.086   .     S
C742   C744    1.382   .     A
C742   C752    1.377   .     A
C743   C745    1.401   .     A
C744   C746    1.401   .     A
C745   N777    1.434   .     S
C745   C747    1.409   .     A
C746   C748    1.410   .     A
C746   N780    1.436   .     S
C747   C753    1.420   .     A
C747   C749    1.426   .     A
C748   C754    1.421   .     A
C748   C750    1.427   .     A
C749   C751    1.410   .     A
C749   C156    1.399   1_556 S
C750   C752    1.410   .     A
C751   C756    1.393   .     A
C752   C755    1.393   .     A
C753   N783    1.434   .     S
C753   C161    1.389   1_556 S
C754   N786    1.433   .     S
C755   H759    1.085   .     S
C756   H760    1.085   .     S
C756   C160    1.390   1_556 S
C761   H765    1.083   .     S
C761   C770    1.397   .     A
C762   H766    1.083   .     S
C762   C769    1.397   .     A
C762   C632    1.368   1_655 S
C763   C769    1.397   .     A
C763   H767    1.083   .     S
C763   C629    1.368   1_655 S
C764   C770    1.397   .     A
C764   H768    1.083   .     S
C771   N776    1.376   .     A
C771   I789    2.139   .     S
C771   C1170   1.429   1_545 S
C772   N775    1.376   .     A
C772   I790    2.139   .     S
C772   C971    1.429   .     S
C773   I791    2.138   .     S
C773   N776    1.376   .     A
C773   C1168   1.429   1_545 S
C774   N775    1.376   .     A
C774   I792    2.137   .     S
C774   C969    1.429   .     S
N777   O778    1.301   .     A
N777   O779    1.300   .     A
N780   O782    1.301   .     A
N780   O781    1.301   .     A
N783   O784    1.301   .     A
N783   O785    1.301   .     A
N786   O788    1.301   .     A
N786   O787    1.301   .     A
O793   C797    1.293   .     A
O793   Zn805   2.000   .     S
O794   C798    1.293   .     A
O794   Zn806   2.000   .     S
O795   Zn805   1.999   .     S
O795   C798    1.293   .     A
O796   Zn806   1.999   .     S
O796   C797    1.293   .     A
C797   C836    1.421   .     S
C798   C835    1.421   .     S
O799   C803    1.291   .     A
O799   Zn805   2.007   .     S
O800   C804    1.293   .     A
O800   Zn806   2.007   .     S
O801   C804    1.293   .     A
O801   Zn805   2.007   .     S
O802   C803    1.293   .     A
O802   Zn806   2.007   .     S
C803   C810    1.420   .     S
C804   C809    1.424   .     S
Zn805  N841    2.035   .     S
Zn806  N842    2.035   .     S
C807   C817    1.378   .     A
C807   C809    1.383   .     A
C807   H823    1.086   .     S
C808   H824    1.086   .     S
C808   C810    1.382   .     A
C808   C818    1.377   .     A
C809   C811    1.401   .     A
C810   C812    1.401   .     A
C811   N843    1.434   .     S
C811   C813    1.409   .     A
C812   C814    1.410   .     A
C812   N846    1.436   .     S
C813   C819    1.420   .     A
C813   C815    1.426   .     A
C814   C820    1.421   .     A
C814   C816    1.427   .     A
C815   C817    1.410   .     A
C815   C222    1.399   1_556 S
C816   C818    1.410   .     A
C817   C822    1.393   .     A
C818   C821    1.393   .     A
C819   N849    1.434   .     S
C819   C227    1.389   1_556 S
C820   N852    1.433   .     S
C821   H825    1.085   .     S
C822   H826    1.085   .     S
C822   C226    1.390   1_556 S
C827   H831    1.083   .     S
C827   C836    1.397   .     A
C827   C961    1.368   1_455 S
C828   H832    1.083   .     S
C828   C835    1.397   .     A
C828   C896    1.368   .     S
C829   C835    1.397   .     A
C829   H833    1.083   .     S
C829   C893    1.368   .     S
C830   C836    1.397   .     A
C830   H834    1.083   .     S
C830   C960    1.368   1_455 S
C837   N842    1.376   .     A
C837   I855    2.139   .     S
C838   N841    1.376   .     A
C838   I856    2.139   .     S
C838   C1037   1.429   .     S
C839   I857    2.138   .     S
C839   N842    1.376   .     A
C840   N841    1.376   .     A
C840   I858    2.137   .     S
C840   C1035   1.429   .     S
N843   O844    1.301   .     A
N843   O845    1.300   .     A
N846   O848    1.301   .     A
N846   O847    1.301   .     A
N849   O850    1.301   .     A
N849   O851    1.301   .     A
N852   O854    1.301   .     A
N852   O853    1.301   .     A
O859   C863    1.293   .     A
O859   Zn871   2.000   .     S
O860   C864    1.293   .     A
O860   Zn872   2.000   .     S
O861   Zn871   1.999   .     S
O861   C864    1.293   .     A
O862   Zn872   1.999   .     S
O862   C863    1.293   .     A
C863   C902    1.421   .     S
C864   C901    1.421   .     S
O865   C869    1.291   .     A
O865   Zn871   2.007   .     S
O866   C870    1.293   .     A
O866   Zn872   2.007   .     S
O867   C870    1.293   .     A
O867   Zn871   2.007   .     S
O868   C869    1.293   .     A
O868   Zn872   2.007   .     S
C869   C876    1.420   .     S
C870   C875    1.424   .     S
Zn871  N907    2.035   .     S
Zn872  N908    2.035   .     S
C873   C883    1.378   .     A
C873   C875    1.383   .     A
C873   H889    1.086   .     S
C874   H890    1.086   .     S
C874   C876    1.382   .     A
C874   C884    1.377   .     A
C875   C877    1.401   .     A
C876   C878    1.401   .     A
C877   N909    1.434   .     S
C877   C879    1.409   .     A
C878   C880    1.410   .     A
C878   N912    1.436   .     S
C879   C885    1.420   .     A
C879   C881    1.426   .     A
C880   C886    1.421   .     A
C880   C882    1.427   .     A
C881   C883    1.410   .     A
C881   C288    1.399   1_556 S
C882   C884    1.410   .     A
C883   C888    1.393   .     A
C884   C887    1.393   .     A
C885   N915    1.434   .     S
C885   C293    1.389   1_556 S
C886   N918    1.433   .     S
C887   H891    1.085   .     S
C888   H892    1.085   .     S
C888   C292    1.390   1_556 S
C893   H897    1.083   .     S
C893   C902    1.397   .     A
C894   H898    1.083   .     S
C894   C901    1.397   .     A
C894   C962    1.368   .     S
C895   C901    1.397   .     A
C895   H899    1.083   .     S
C895   C959    1.368   .     S
C896   C902    1.397   .     A
C896   H900    1.083   .     S
C903   N908    1.376   .     A
C903   I921    2.139   .     S
C904   N907    1.376   .     A
C904   I922    2.139   .     S
C904   C1103   1.429   .     S
C905   I923    2.138   .     S
C905   N908    1.376   .     A
C906   N907    1.376   .     A
C906   I924    2.137   .     S
C906   C1101   1.429   .     S
N909   O910    1.301   .     A
N909   O911    1.300   .     A
N912   O914    1.301   .     A
N912   O913    1.301   .     A
N915   O916    1.301   .     A
N915   O917    1.301   .     A
N918   O920    1.301   .     A
N918   O919    1.301   .     A
O925   C929    1.293   .     A
O925   Zn937   2.000   .     S
O926   C930    1.293   .     A
O926   Zn938   2.000   .     S
O927   Zn937   1.999   .     S
O927   C930    1.293   .     A
O928   Zn938   1.999   .     S
O928   C929    1.293   .     A
C929   C968    1.421   .     S
C930   C967    1.421   .     S
O931   C935    1.291   .     A
O931   Zn937   2.007   .     S
O932   C936    1.293   .     A
O932   Zn938   2.007   .     S
O933   C936    1.293   .     A
O933   Zn937   2.007   .     S
O934   C935    1.293   .     A
O934   Zn938   2.007   .     S
C935   C942    1.420   .     S
C936   C941    1.424   .     S
Zn937  N973    2.035   .     S
Zn938  N974    2.035   .     S
C939   C949    1.378   .     A
C939   C941    1.383   .     A
C939   H955    1.086   .     S
C940   H956    1.086   .     S
C940   C942    1.382   .     A
C940   C950    1.377   .     A
C941   C943    1.401   .     A
C942   C944    1.401   .     A
C943   N975    1.434   .     S
C943   C945    1.409   .     A
C944   C946    1.410   .     A
C944   N978    1.436   .     S
C945   C951    1.420   .     A
C945   C947    1.426   .     A
C946   C952    1.421   .     A
C946   C948    1.427   .     A
C947   C949    1.410   .     A
C947   C354    1.399   1_556 S
C948   C950    1.410   .     A
C949   C954    1.393   .     A
C950   C953    1.393   .     A
C951   N981    1.434   .     S
C951   C359    1.389   1_556 S
C952   N984    1.433   .     S
C953   H957    1.085   .     S
C954   H958    1.085   .     S
C954   C358    1.390   1_556 S
C959   H963    1.083   .     S
C959   C968    1.397   .     A
C960   H964    1.083   .     S
C960   C967    1.397   .     A
C960   C830    1.368   1_655 S
C961   C967    1.397   .     A
C961   H965    1.083   .     S
C961   C827    1.368   1_655 S
C962   C968    1.397   .     A
C962   H966    1.083   .     S
C969   N974    1.376   .     A
C969   I987    2.139   .     S
C970   N973    1.376   .     A
C970   I988    2.139   .     S
C970   C1169   1.429   .     S
C971   I989    2.138   .     S
C971   N974    1.376   .     A
C972   N973    1.376   .     A
C972   I990    2.137   .     S
C972   C1167   1.429   .     S
N975   O976    1.301   .     A
N975   O977    1.300   .     A
N978   O980    1.301   .     A
N978   O979    1.301   .     A
N981   O982    1.301   .     A
N981   O983    1.301   .     A
N984   O986    1.301   .     A
N984   O985    1.301   .     A
O991   C995    1.293   .     A
O991   Zn1003  2.000   .     S
O992   C996    1.293   .     A
O992   Zn1004  2.000   .     S
O993   Zn1003  1.999   .     S
O993   C996    1.293   .     A
O994   Zn1004  1.999   .     S
O994   C995    1.293   .     A
C995   C1034   1.421   .     S
C996   C1033   1.421   .     S
O997   C1001   1.291   .     A
O997   Zn1003  2.007   .     S
O998   C1002   1.293   .     A
O998   Zn1004  2.007   .     S
O999   C1002   1.293   .     A
O999   Zn1003  2.007   .     S
O1000  C1001   1.293   .     A
O1000  Zn1004  2.007   .     S
C1001  C1008   1.420   .     S
C1002  C1007   1.424   .     S
Zn1003 N1039   2.035   .     S
Zn1004 N1040   2.035   .     S
C1005  C1015   1.378   .     A
C1005  C1007   1.383   .     A
C1005  H1021   1.086   .     S
C1006  H1022   1.086   .     S
C1006  C1008   1.382   .     A
C1006  C1016   1.377   .     A
C1007  C1009   1.401   .     A
C1008  C1010   1.401   .     A
C1009  N1041   1.434   .     S
C1009  C1011   1.409   .     A
C1010  C1012   1.410   .     A
C1010  N1044   1.436   .     S
C1011  C1017   1.420   .     A
C1011  C1013   1.426   .     A
C1012  C1018   1.421   .     A
C1012  C1014   1.427   .     A
C1013  C1015   1.410   .     A
C1013  C420    1.399   1_556 S
C1014  C1016   1.410   .     A
C1015  C1020   1.393   .     A
C1016  C1019   1.393   .     A
C1017  N1047   1.434   .     S
C1017  C425    1.389   1_556 S
C1018  N1050   1.433   .     S
C1019  H1023   1.085   .     S
C1020  H1024   1.085   .     S
C1020  C424    1.390   1_556 S
C1025  H1029   1.083   .     S
C1025  C1034   1.397   .     A
C1025  C1159   1.368   1_455 S
C1026  H1030   1.083   .     S
C1026  C1033   1.397   .     A
C1026  C1094   1.368   .     S
C1027  C1033   1.397   .     A
C1027  H1031   1.083   .     S
C1027  C1091   1.368   .     S
C1028  C1034   1.397   .     A
C1028  H1032   1.083   .     S
C1028  C1158   1.368   1_455 S
C1035  N1040   1.376   .     A
C1035  I1053   2.139   .     S
C1036  N1039   1.376   .     A
C1036  I1054   2.139   .     S
C1036  C641    1.429   1_565 S
C1037  I1055   2.138   .     S
C1037  N1040   1.376   .     A
C1038  N1039   1.376   .     A
C1038  I1056   2.137   .     S
C1038  C639    1.429   1_565 S
N1041  O1042   1.301   .     A
N1041  O1043   1.300   .     A
N1044  O1046   1.301   .     A
N1044  O1045   1.301   .     A
N1047  O1048   1.301   .     A
N1047  O1049   1.301   .     A
N1050  O1052   1.301   .     A
N1050  O1051   1.301   .     A
O1057  C1061   1.293   .     A
O1057  Zn1069  2.000   .     S
O1058  C1062   1.293   .     A
O1058  Zn1070  2.000   .     S
O1059  Zn1069  1.999   .     S
O1059  C1062   1.293   .     A
O1060  Zn1070  1.999   .     S
O1060  C1061   1.293   .     A
C1061  C1100   1.421   .     S
C1062  C1099   1.421   .     S
O1063  C1067   1.291   .     A
O1063  Zn1069  2.007   .     S
O1064  C1068   1.293   .     A
O1064  Zn1070  2.007   .     S
O1065  C1068   1.293   .     A
O1065  Zn1069  2.007   .     S
O1066  C1067   1.293   .     A
O1066  Zn1070  2.007   .     S
C1067  C1074   1.420   .     S
C1068  C1073   1.424   .     S
Zn1069 N1105   2.035   .     S
Zn1070 N1106   2.035   .     S
C1071  C1081   1.378   .     A
C1071  C1073   1.383   .     A
C1071  H1087   1.086   .     S
C1072  H1088   1.086   .     S
C1072  C1074   1.382   .     A
C1072  C1082   1.377   .     A
C1073  C1075   1.401   .     A
C1074  C1076   1.401   .     A
C1075  N1107   1.434   .     S
C1075  C1077   1.409   .     A
C1076  C1078   1.410   .     A
C1076  N1110   1.436   .     S
C1077  C1083   1.420   .     A
C1077  C1079   1.426   .     A
C1078  C1084   1.421   .     A
C1078  C1080   1.427   .     A
C1079  C1081   1.410   .     A
C1079  C486    1.399   1_556 S
C1080  C1082   1.410   .     A
C1081  C1086   1.393   .     A
C1082  C1085   1.393   .     A
C1083  N1113   1.434   .     S
C1083  C491    1.389   1_556 S
C1084  N1116   1.433   .     S
C1085  H1089   1.085   .     S
C1086  H1090   1.085   .     S
C1086  C490    1.390   1_556 S
C1091  H1095   1.083   .     S
C1091  C1100   1.397   .     A
C1092  H1096   1.083   .     S
C1092  C1099   1.397   .     A
C1092  C1160   1.368   .     S
C1093  C1099   1.397   .     A
C1093  H1097   1.083   .     S
C1093  C1157   1.368   .     S
C1094  C1100   1.397   .     A
C1094  H1098   1.083   .     S
C1101  N1106   1.376   .     A
C1101  I1119   2.139   .     S
C1102  N1105   1.376   .     A
C1102  I1120   2.139   .     S
C1102  C707    1.429   1_565 S
C1103  I1121   2.138   .     S
C1103  N1106   1.376   .     A
C1104  N1105   1.376   .     A
C1104  I1122   2.137   .     S
C1104  C705    1.429   1_565 S
N1107  O1108   1.301   .     A
N1107  O1109   1.300   .     A
N1110  O1112   1.301   .     A
N1110  O1111   1.301   .     A
N1113  O1114   1.301   .     A
N1113  O1115   1.301   .     A
N1116  O1118   1.301   .     A
N1116  O1117   1.301   .     A
O1123  C1127   1.293   .     A
O1123  Zn1135  2.000   .     S
O1124  C1128   1.293   .     A
O1124  Zn1136  2.000   .     S
O1125  Zn1135  1.999   .     S
O1125  C1128   1.293   .     A
O1126  Zn1136  1.999   .     S
O1126  C1127   1.293   .     A
C1127  C1166   1.421   .     S
C1128  C1165   1.421   .     S
O1129  C1133   1.291   .     A
O1129  Zn1135  2.007   .     S
O1130  C1134   1.293   .     A
O1130  Zn1136  2.007   .     S
O1131  C1134   1.293   .     A
O1131  Zn1135  2.007   .     S
O1132  C1133   1.293   .     A
O1132  Zn1136  2.007   .     S
C1133  C1140   1.420   .     S
C1134  C1139   1.424   .     S
Zn1135 N1171   2.035   .     S
Zn1136 N1172   2.035   .     S
C1137  C1147   1.378   .     A
C1137  C1139   1.383   .     A
C1137  H1153   1.086   .     S
C1138  H1154   1.086   .     S
C1138  C1140   1.382   .     A
C1138  C1148   1.377   .     A
C1139  C1141   1.401   .     A
C1140  C1142   1.401   .     A
C1141  N1173   1.434   .     S
C1141  C1143   1.409   .     A
C1142  C1144   1.410   .     A
C1142  N1176   1.436   .     S
C1143  C1149   1.420   .     A
C1143  C1145   1.426   .     A
C1144  C1150   1.421   .     A
C1144  C1146   1.427   .     A
C1145  C1147   1.410   .     A
C1145  C552    1.399   1_556 S
C1146  C1148   1.410   .     A
C1147  C1152   1.393   .     A
C1148  C1151   1.393   .     A
C1149  N1179   1.434   .     S
C1149  C557    1.389   1_556 S
C1150  N1182   1.433   .     S
C1151  H1155   1.085   .     S
C1152  H1156   1.085   .     S
C1152  C556    1.390   1_556 S
C1157  H1161   1.083   .     S
C1157  C1166   1.397   .     A
C1158  H1162   1.083   .     S
C1158  C1165   1.397   .     A
C1158  C1028   1.368   1_655 S
C1159  C1165   1.397   .     A
C1159  H1163   1.083   .     S
C1159  C1025   1.368   1_655 S
C1160  C1166   1.397   .     A
C1160  H1164   1.083   .     S
C1167  N1172   1.376   .     A
C1167  I1185   2.139   .     S
C1168  N1171   1.376   .     A
C1168  I1186   2.139   .     S
C1168  C773    1.429   1_565 S
C1169  I1187   2.138   .     S
C1169  N1172   1.376   .     A
C1170  N1171   1.376   .     A
C1170  I1188   2.137   .     S
C1170  C771    1.429   1_565 S
N1173  O1174   1.301   .     A
N1173  O1175   1.300   .     A
N1176  O1178   1.301   .     A
N1176  O1177   1.301   .     A
N1179  O1180   1.301   .     A
N1179  O1181   1.301   .     A
N1182  O1184   1.301   .     A
N1182  O1183   1.301   .     A
