data_str_m3_o1_o17_pcu_sym.204
_audit_creation_date              2020-01-03
_audit_creation_method            'Materials Studio'
_symmetry_space_group_name_H-M    'P1'
_symmetry_Int_Tables_number       1
_symmetry_cell_setting            triclinic
loop_
_symmetry_equiv_pos_as_xyz
  x,y,z
_cell_length_a                    32.1369
_cell_length_b                    29.8361
_cell_length_c                    29.8487
_cell_angle_alpha                 89.9533
_cell_angle_beta                  92.4669
_cell_angle_gamma                 89.8468
loop_
_atom_site_label
_atom_site_type_symbol
_atom_site_fract_x
_atom_site_fract_y
_atom_site_fract_z
_atom_site_U_iso_or_equiv
_atom_site_adp_type
_atom_site_occupancy
C1     C     0.08673   0.16671   0.24985   0.00000  Uiso   1.00
C2     C     0.24660   0.16664   0.24995   0.00000  Uiso   1.00
C3     C     0.09601   0.13577   0.02273   0.00000  Uiso   1.00
C4     C     0.23804   0.19297   0.47753   0.00000  Uiso   1.00
C5     C     0.02154   0.12602   0.25308   0.00000  Uiso   1.00
C6     C     0.31177   0.20744   0.24617   0.00000  Uiso   1.00
C7     C     0.31228   0.12597   0.25280   0.00000  Uiso   1.00
C8     C     0.02105   0.20748   0.24615   0.00000  Uiso   1.00
C9     C     0.29080   0.16667   0.24961   0.00000  Uiso   1.00
C10    C     0.04252   0.16676   0.24972   0.00000  Uiso   1.00
C11    C     0.19413   0.02379   0.27757   0.00000  Uiso   1.00
C12    C     0.14165   0.30945   0.21993   0.00000  Uiso   1.00
C13    C     0.13914   0.02401   0.22254   0.00000  Uiso   1.00
C14    C     0.19162   0.30924   0.28013   0.00000  Uiso   1.00
C15    C     0.16723   0.16668   0.16372   0.00000  Uiso   1.00
C16    C     0.16596   0.16664   0.33626   0.00000  Uiso   1.00
C17    C     0.19879   0.18326   0.40763   0.00000  Uiso   1.00
C18    C     0.13468   0.14814   0.09260   0.00000  Uiso   1.00
C19    C     0.16448   0.16666   0.38385   0.00000  Uiso   1.00
C20    C     0.16846   0.16639   0.11610   0.00000  Uiso   1.00
C21    C     0.12976   0.14968   0.40489   0.00000  Uiso   1.00
C22    C     0.20298   0.18322   0.09469   0.00000  Uiso   1.00
C23    C     0.12893   0.15136   0.45212   0.00000  Uiso   1.00
C24    C     0.20453   0.17874   0.04781   0.00000  Uiso   1.00
C25    C     0.16585   0.16544   0.47656   0.00000  Uiso   1.00
C26    C     0.16778   0.16428   0.02343   0.00000  Uiso   1.00
C27    C     0.20085   0.18117   0.45399   0.00000  Uiso   1.00
C28    C     0.13283   0.14886   0.04616   0.00000  Uiso   1.00
C29    C     0.09324   0.13836   0.47566   0.00000  Uiso   1.00
C30    C     0.24077   0.18965   0.02444   0.00000  Uiso   1.00
H31    H     0.22475   0.19580   0.38925   0.00000  Uiso   1.00
H32    H     0.10889   0.13555   0.11121   0.00000  Uiso   1.00
H33    H     0.03786   0.09427   0.25606   0.00000  Uiso   1.00
H34    H     0.29542   0.23920   0.24342   0.00000  Uiso   1.00
H35    H     0.29638   0.09419   0.25523   0.00000  Uiso   1.00
H36    H     0.03700   0.23924   0.24335   0.00000  Uiso   1.00
N37    N     0.16667   0.28573   0.25000   0.00000  Uiso   1.00
N38    N     0.16667   0.04760   0.25000   0.00000  Uiso   1.00
O39    O     0.10559   0.20487   0.24999   0.00000  Uiso   1.00
O40    O     0.22774   0.12846   0.25000   0.00000  Uiso   1.00
O41    O     0.22774   0.20487   0.25000   0.00000  Uiso   1.00
O42    O     0.10559   0.12846   0.25000   0.00000  Uiso   1.00
O43    O     0.16666   0.20489   0.18392   0.00000  Uiso   1.00
O44    O     0.16667   0.12844   0.31607   0.00000  Uiso   1.00
O45    O     0.16667   0.20489   0.31607   0.00000  Uiso   1.00
O46    O     0.16666   0.12844   0.18392   0.00000  Uiso   1.00
Zn47   Zn    0.16667   0.21771   0.25000   0.00000  Uiso   1.00
Zn48   Zn    0.16667   0.11563   0.25000   0.00000  Uiso   1.00
N49    N     0.09645   0.12957   0.37828   0.00000  Uiso   1.00
H50    H     0.10777   0.10136   0.36198   0.00000  Uiso   1.00
H51    H     0.08516   0.15271   0.35436   0.00000  Uiso   1.00
N52    N     0.23496   0.20685   0.12015   0.00000  Uiso   1.00
H53    H     0.24678   0.18613   0.14599   0.00000  Uiso   1.00
H54    H     0.22198   0.23549   0.13413   0.00000  Uiso   1.00
C55    C     0.05181   0.13210   0.45239   0.00000  Uiso   1.00
H56    H     0.04014   0.15704   0.42850   0.00000  Uiso   1.00
O57    O     0.03076   0.09896   0.45911   0.00000  Uiso   1.00
C58    C     0.28269   0.19342   0.04715   0.00000  Uiso   1.00
H59    H     0.30366   0.22013   0.03831   0.00000  Uiso   1.00
O60    O     0.29496   0.16508   0.07419   0.00000  Uiso   1.00
N61    N     0.06073   0.12229   0.04756   0.00000  Uiso   1.00
H62    H     0.05324   0.08913   0.03948   0.00000  Uiso   1.00
H63    H     0.03546   0.14317   0.03902   0.00000  Uiso   1.00
N64    N     0.27364   0.20626   0.45309   0.00000  Uiso   1.00
H65    H     0.29808   0.18378   0.46013   0.00000  Uiso   1.00
H66    H     0.28272   0.23836   0.46344   0.00000  Uiso   1.00
C67    C     0.22783   0.04765   0.30323   0.00000  Uiso   1.00
H68    H     0.22306   0.08034   0.31715   0.00000  Uiso   1.00
O69    O     0.26242   0.03090   0.30844   0.00000  Uiso   1.00
C70    C     0.11863   0.28536   0.18331   0.00000  Uiso   1.00
H71    H     0.10349   0.25392   0.18914   0.00000  Uiso   1.00
O72    O     0.11696   0.30049   0.14524   0.00000  Uiso   1.00
C73    C     0.10528   0.04812   0.19718   0.00000  Uiso   1.00
H74    H     0.11026   0.08037   0.18234   0.00000  Uiso   1.00
O75    O     0.07038   0.03209   0.19329   0.00000  Uiso   1.00
C76    C     0.21447   0.28491   0.31684   0.00000  Uiso   1.00
H77    H     0.23025   0.25377   0.31089   0.00000  Uiso   1.00
O78    O     0.21531   0.29952   0.35507   0.00000  Uiso   1.00
C79    C     0.42006   0.16671   0.24985   0.00000  Uiso   1.00
C80    C     0.57994   0.16664   0.24995   0.00000  Uiso   1.00
C81    C     0.42935   0.13577   0.02273   0.00000  Uiso   1.00
C82    C     0.57138   0.19297   0.47753   0.00000  Uiso   1.00
C83    C     0.35488   0.12602   0.25308   0.00000  Uiso   1.00
C84    C     0.64510   0.20744   0.24617   0.00000  Uiso   1.00
C85    C     0.64562   0.12597   0.25280   0.00000  Uiso   1.00
C86    C     0.35438   0.20748   0.24615   0.00000  Uiso   1.00
C87    C     0.62414   0.16667   0.24961   0.00000  Uiso   1.00
C88    C     0.37585   0.16676   0.24972   0.00000  Uiso   1.00
C89    C     0.52747   0.02379   0.27757   0.00000  Uiso   1.00
C90    C     0.47498   0.30945   0.21993   0.00000  Uiso   1.00
C91    C     0.47247   0.02401   0.22254   0.00000  Uiso   1.00
C92    C     0.52495   0.30924   0.28013   0.00000  Uiso   1.00
C93    C     0.50056   0.16668   0.16372   0.00000  Uiso   1.00
C94    C     0.49929   0.16664   0.33626   0.00000  Uiso   1.00
C95    C     0.53212   0.18326   0.40763   0.00000  Uiso   1.00
C96    C     0.46802   0.14814   0.09260   0.00000  Uiso   1.00
C97    C     0.49781   0.16666   0.38385   0.00000  Uiso   1.00
C98    C     0.50179   0.16639   0.11610   0.00000  Uiso   1.00
C99    C     0.46309   0.14968   0.40489   0.00000  Uiso   1.00
C100   C     0.53632   0.18322   0.09469   0.00000  Uiso   1.00
C101   C     0.46226   0.15136   0.45212   0.00000  Uiso   1.00
C102   C     0.53786   0.17874   0.04781   0.00000  Uiso   1.00
C103   C     0.49918   0.16544   0.47656   0.00000  Uiso   1.00
C104   C     0.50111   0.16428   0.02343   0.00000  Uiso   1.00
C105   C     0.53419   0.18117   0.45399   0.00000  Uiso   1.00
C106   C     0.46617   0.14886   0.04616   0.00000  Uiso   1.00
C107   C     0.42658   0.13836   0.47566   0.00000  Uiso   1.00
C108   C     0.57410   0.18965   0.02444   0.00000  Uiso   1.00
H109   H     0.55808   0.19580   0.38925   0.00000  Uiso   1.00
H110   H     0.44223   0.13555   0.11121   0.00000  Uiso   1.00
H111   H     0.37119   0.09427   0.25606   0.00000  Uiso   1.00
H112   H     0.62875   0.23920   0.24342   0.00000  Uiso   1.00
H113   H     0.62971   0.09419   0.25523   0.00000  Uiso   1.00
H114   H     0.37033   0.23924   0.24335   0.00000  Uiso   1.00
N115   N     0.50000   0.28573   0.25000   0.00000  Uiso   1.00
N116   N     0.50000   0.04760   0.25000   0.00000  Uiso   1.00
O117   O     0.43892   0.20487   0.24999   0.00000  Uiso   1.00
O118   O     0.56108   0.12846   0.25000   0.00000  Uiso   1.00
O119   O     0.56108   0.20487   0.25000   0.00000  Uiso   1.00
O120   O     0.43892   0.12846   0.25000   0.00000  Uiso   1.00
O121   O     0.49999   0.20489   0.18392   0.00000  Uiso   1.00
O122   O     0.50001   0.12844   0.31607   0.00000  Uiso   1.00
O123   O     0.50001   0.20489   0.31607   0.00000  Uiso   1.00
O124   O     0.49999   0.12844   0.18392   0.00000  Uiso   1.00
Zn125  Zn    0.50000   0.21771   0.25000   0.00000  Uiso   1.00
Zn126  Zn    0.50000   0.11563   0.25000   0.00000  Uiso   1.00
N127   N     0.42978   0.12957   0.37828   0.00000  Uiso   1.00
H128   H     0.44110   0.10136   0.36198   0.00000  Uiso   1.00
H129   H     0.41849   0.15271   0.35436   0.00000  Uiso   1.00
N130   N     0.56829   0.20685   0.12015   0.00000  Uiso   1.00
H131   H     0.58011   0.18613   0.14599   0.00000  Uiso   1.00
H132   H     0.55531   0.23549   0.13413   0.00000  Uiso   1.00
C133   C     0.38514   0.13210   0.45239   0.00000  Uiso   1.00
H134   H     0.37347   0.15704   0.42850   0.00000  Uiso   1.00
O135   O     0.36409   0.09896   0.45911   0.00000  Uiso   1.00
C136   C     0.61603   0.19342   0.04715   0.00000  Uiso   1.00
H137   H     0.63699   0.22013   0.03831   0.00000  Uiso   1.00
O138   O     0.62829   0.16508   0.07419   0.00000  Uiso   1.00
N139   N     0.39407   0.12229   0.04756   0.00000  Uiso   1.00
H140   H     0.38658   0.08913   0.03948   0.00000  Uiso   1.00
H141   H     0.36879   0.14317   0.03902   0.00000  Uiso   1.00
N142   N     0.60697   0.20626   0.45309   0.00000  Uiso   1.00
H143   H     0.63141   0.18378   0.46013   0.00000  Uiso   1.00
H144   H     0.61606   0.23836   0.46344   0.00000  Uiso   1.00
C145   C     0.56116   0.04765   0.30323   0.00000  Uiso   1.00
H146   H     0.55639   0.08034   0.31715   0.00000  Uiso   1.00
O147   O     0.59576   0.03090   0.30844   0.00000  Uiso   1.00
C148   C     0.45196   0.28536   0.18331   0.00000  Uiso   1.00
H149   H     0.43682   0.25392   0.18914   0.00000  Uiso   1.00
O150   O     0.45030   0.30049   0.14524   0.00000  Uiso   1.00
C151   C     0.43861   0.04812   0.19718   0.00000  Uiso   1.00
H152   H     0.44360   0.08037   0.18234   0.00000  Uiso   1.00
O153   O     0.40371   0.03209   0.19329   0.00000  Uiso   1.00
C154   C     0.54780   0.28491   0.31684   0.00000  Uiso   1.00
H155   H     0.56358   0.25377   0.31089   0.00000  Uiso   1.00
O156   O     0.54864   0.29952   0.35507   0.00000  Uiso   1.00
C157   C     0.75340   0.16671   0.24985   0.00000  Uiso   1.00
C158   C     0.91327   0.16664   0.24995   0.00000  Uiso   1.00
C159   C     0.76268   0.13577   0.02273   0.00000  Uiso   1.00
C160   C     0.90471   0.19297   0.47753   0.00000  Uiso   1.00
C161   C     0.68821   0.12602   0.25308   0.00000  Uiso   1.00
C162   C     0.97843   0.20744   0.24617   0.00000  Uiso   1.00
C163   C     0.97895   0.12597   0.25280   0.00000  Uiso   1.00
C164   C     0.68772   0.20748   0.24615   0.00000  Uiso   1.00
C165   C     0.95747   0.16667   0.24961   0.00000  Uiso   1.00
C166   C     0.70919   0.16676   0.24972   0.00000  Uiso   1.00
C167   C     0.86080   0.02379   0.27757   0.00000  Uiso   1.00
C168   C     0.80832   0.30945   0.21993   0.00000  Uiso   1.00
C169   C     0.80580   0.02401   0.22254   0.00000  Uiso   1.00
C170   C     0.85828   0.30924   0.28013   0.00000  Uiso   1.00
C171   C     0.83390   0.16668   0.16372   0.00000  Uiso   1.00
C172   C     0.83262   0.16664   0.33626   0.00000  Uiso   1.00
C173   C     0.86546   0.18326   0.40763   0.00000  Uiso   1.00
C174   C     0.80135   0.14814   0.09260   0.00000  Uiso   1.00
C175   C     0.83115   0.16666   0.38385   0.00000  Uiso   1.00
C176   C     0.83512   0.16639   0.11610   0.00000  Uiso   1.00
C177   C     0.79643   0.14968   0.40489   0.00000  Uiso   1.00
C178   C     0.86965   0.18322   0.09469   0.00000  Uiso   1.00
C179   C     0.79560   0.15136   0.45212   0.00000  Uiso   1.00
C180   C     0.87120   0.17874   0.04781   0.00000  Uiso   1.00
C181   C     0.83252   0.16544   0.47656   0.00000  Uiso   1.00
C182   C     0.83445   0.16428   0.02343   0.00000  Uiso   1.00
C183   C     0.86752   0.18117   0.45399   0.00000  Uiso   1.00
C184   C     0.79950   0.14886   0.04616   0.00000  Uiso   1.00
C185   C     0.75991   0.13836   0.47566   0.00000  Uiso   1.00
C186   C     0.90743   0.18965   0.02444   0.00000  Uiso   1.00
H187   H     0.89141   0.19580   0.38925   0.00000  Uiso   1.00
H188   H     0.77556   0.13555   0.11121   0.00000  Uiso   1.00
H189   H     0.70452   0.09427   0.25606   0.00000  Uiso   1.00
H190   H     0.96208   0.23920   0.24342   0.00000  Uiso   1.00
H191   H     0.96305   0.09419   0.25523   0.00000  Uiso   1.00
H192   H     0.70367   0.23924   0.24335   0.00000  Uiso   1.00
N193   N     0.83333   0.28573   0.25000   0.00000  Uiso   1.00
N194   N     0.83333   0.04760   0.25000   0.00000  Uiso   1.00
O195   O     0.77226   0.20487   0.24999   0.00000  Uiso   1.00
O196   O     0.89441   0.12846   0.25000   0.00000  Uiso   1.00
O197   O     0.89441   0.20487   0.25000   0.00000  Uiso   1.00
O198   O     0.77226   0.12846   0.25000   0.00000  Uiso   1.00
O199   O     0.83333   0.20489   0.18392   0.00000  Uiso   1.00
O200   O     0.83334   0.12844   0.31607   0.00000  Uiso   1.00
O201   O     0.83334   0.20489   0.31607   0.00000  Uiso   1.00
O202   O     0.83333   0.12844   0.18392   0.00000  Uiso   1.00
Zn203  Zn    0.83333   0.21771   0.25000   0.00000  Uiso   1.00
Zn204  Zn    0.83333   0.11563   0.25000   0.00000  Uiso   1.00
N205   N     0.76311   0.12957   0.37828   0.00000  Uiso   1.00
H206   H     0.77444   0.10136   0.36198   0.00000  Uiso   1.00
H207   H     0.75183   0.15271   0.35436   0.00000  Uiso   1.00
N208   N     0.90163   0.20685   0.12015   0.00000  Uiso   1.00
H209   H     0.91345   0.18613   0.14599   0.00000  Uiso   1.00
H210   H     0.88864   0.23549   0.13413   0.00000  Uiso   1.00
C211   C     0.71847   0.13210   0.45239   0.00000  Uiso   1.00
H212   H     0.70681   0.15704   0.42850   0.00000  Uiso   1.00
O213   O     0.69742   0.09896   0.45911   0.00000  Uiso   1.00
C214   C     0.94936   0.19342   0.04715   0.00000  Uiso   1.00
H215   H     0.97032   0.22013   0.03831   0.00000  Uiso   1.00
O216   O     0.96163   0.16508   0.07419   0.00000  Uiso   1.00
N217   N     0.72740   0.12229   0.04756   0.00000  Uiso   1.00
H218   H     0.71991   0.08913   0.03948   0.00000  Uiso   1.00
H219   H     0.70213   0.14317   0.03902   0.00000  Uiso   1.00
N220   N     0.94031   0.20626   0.45309   0.00000  Uiso   1.00
H221   H     0.96475   0.18378   0.46013   0.00000  Uiso   1.00
H222   H     0.94939   0.23836   0.46344   0.00000  Uiso   1.00
C223   C     0.89450   0.04765   0.30323   0.00000  Uiso   1.00
H224   H     0.88972   0.08034   0.31715   0.00000  Uiso   1.00
O225   O     0.92909   0.03090   0.30844   0.00000  Uiso   1.00
C226   C     0.78529   0.28536   0.18331   0.00000  Uiso   1.00
H227   H     0.77016   0.25392   0.18914   0.00000  Uiso   1.00
O228   O     0.78363   0.30049   0.14524   0.00000  Uiso   1.00
C229   C     0.77194   0.04812   0.19718   0.00000  Uiso   1.00
H230   H     0.77693   0.08037   0.18234   0.00000  Uiso   1.00
O231   O     0.73705   0.03209   0.19329   0.00000  Uiso   1.00
C232   C     0.88114   0.28491   0.31684   0.00000  Uiso   1.00
H233   H     0.89692   0.25377   0.31089   0.00000  Uiso   1.00
O234   O     0.88198   0.29952   0.35507   0.00000  Uiso   1.00
C235   C     0.08673   0.50004   0.24985   0.00000  Uiso   1.00
C236   C     0.24660   0.49997   0.24995   0.00000  Uiso   1.00
C237   C     0.09601   0.46911   0.02273   0.00000  Uiso   1.00
C238   C     0.23804   0.52630   0.47753   0.00000  Uiso   1.00
C239   C     0.02154   0.45935   0.25308   0.00000  Uiso   1.00
C240   C     0.31177   0.54077   0.24617   0.00000  Uiso   1.00
C241   C     0.31228   0.45930   0.25280   0.00000  Uiso   1.00
C242   C     0.02105   0.54081   0.24615   0.00000  Uiso   1.00
C243   C     0.29080   0.50000   0.24961   0.00000  Uiso   1.00
C244   C     0.04252   0.50009   0.24972   0.00000  Uiso   1.00
C245   C     0.19413   0.35713   0.27757   0.00000  Uiso   1.00
C246   C     0.14165   0.64279   0.21993   0.00000  Uiso   1.00
C247   C     0.13914   0.35735   0.22254   0.00000  Uiso   1.00
C248   C     0.19162   0.64257   0.28013   0.00000  Uiso   1.00
C249   C     0.16723   0.50002   0.16372   0.00000  Uiso   1.00
C250   C     0.16596   0.49998   0.33626   0.00000  Uiso   1.00
C251   C     0.19879   0.51659   0.40763   0.00000  Uiso   1.00
C252   C     0.13468   0.48147   0.09260   0.00000  Uiso   1.00
C253   C     0.16448   0.49999   0.38385   0.00000  Uiso   1.00
C254   C     0.16846   0.49972   0.11610   0.00000  Uiso   1.00
C255   C     0.12976   0.48302   0.40489   0.00000  Uiso   1.00
C256   C     0.20298   0.51655   0.09469   0.00000  Uiso   1.00
C257   C     0.12893   0.48469   0.45212   0.00000  Uiso   1.00
C258   C     0.20453   0.51208   0.04781   0.00000  Uiso   1.00
C259   C     0.16585   0.49877   0.47656   0.00000  Uiso   1.00
C260   C     0.16778   0.49761   0.02343   0.00000  Uiso   1.00
C261   C     0.20085   0.51450   0.45399   0.00000  Uiso   1.00
C262   C     0.13283   0.48220   0.04616   0.00000  Uiso   1.00
C263   C     0.09324   0.47169   0.47566   0.00000  Uiso   1.00
C264   C     0.24077   0.52298   0.02444   0.00000  Uiso   1.00
H265   H     0.22475   0.52913   0.38925   0.00000  Uiso   1.00
H266   H     0.10889   0.46889   0.11121   0.00000  Uiso   1.00
H267   H     0.03786   0.42760   0.25606   0.00000  Uiso   1.00
H268   H     0.29542   0.57253   0.24342   0.00000  Uiso   1.00
H269   H     0.29638   0.42752   0.25523   0.00000  Uiso   1.00
H270   H     0.03700   0.57258   0.24335   0.00000  Uiso   1.00
N271   N     0.16667   0.61907   0.25000   0.00000  Uiso   1.00
N272   N     0.16667   0.38093   0.25000   0.00000  Uiso   1.00
O273   O     0.10559   0.53821   0.24999   0.00000  Uiso   1.00
O274   O     0.22774   0.46179   0.25000   0.00000  Uiso   1.00
O275   O     0.22774   0.53821   0.25000   0.00000  Uiso   1.00
O276   O     0.10559   0.46179   0.25000   0.00000  Uiso   1.00
O277   O     0.16666   0.53823   0.18392   0.00000  Uiso   1.00
O278   O     0.16667   0.46177   0.31607   0.00000  Uiso   1.00
O279   O     0.16667   0.53823   0.31607   0.00000  Uiso   1.00
O280   O     0.16666   0.46177   0.18392   0.00000  Uiso   1.00
Zn281  Zn    0.16667   0.55104   0.25000   0.00000  Uiso   1.00
Zn282  Zn    0.16667   0.44896   0.25000   0.00000  Uiso   1.00
N283   N     0.09645   0.46290   0.37828   0.00000  Uiso   1.00
H284   H     0.10777   0.43469   0.36198   0.00000  Uiso   1.00
H285   H     0.08516   0.48604   0.35436   0.00000  Uiso   1.00
N286   N     0.23496   0.54018   0.12015   0.00000  Uiso   1.00
H287   H     0.24678   0.51947   0.14599   0.00000  Uiso   1.00
H288   H     0.22198   0.56882   0.13413   0.00000  Uiso   1.00
C289   C     0.05181   0.46543   0.45239   0.00000  Uiso   1.00
H290   H     0.04014   0.49038   0.42850   0.00000  Uiso   1.00
O291   O     0.03076   0.43230   0.45911   0.00000  Uiso   1.00
C292   C     0.28269   0.52675   0.04715   0.00000  Uiso   1.00
H293   H     0.30366   0.55346   0.03831   0.00000  Uiso   1.00
O294   O     0.29496   0.49842   0.07419   0.00000  Uiso   1.00
N295   N     0.06073   0.45563   0.04756   0.00000  Uiso   1.00
H296   H     0.05324   0.42247   0.03948   0.00000  Uiso   1.00
H297   H     0.03546   0.47650   0.03902   0.00000  Uiso   1.00
N298   N     0.27364   0.53959   0.45309   0.00000  Uiso   1.00
H299   H     0.29808   0.51712   0.46013   0.00000  Uiso   1.00
H300   H     0.28272   0.57170   0.46344   0.00000  Uiso   1.00
C301   C     0.22783   0.38098   0.30323   0.00000  Uiso   1.00
H302   H     0.22306   0.41367   0.31715   0.00000  Uiso   1.00
O303   O     0.26242   0.36423   0.30844   0.00000  Uiso   1.00
C304   C     0.11863   0.61870   0.18331   0.00000  Uiso   1.00
H305   H     0.10349   0.58725   0.18914   0.00000  Uiso   1.00
O306   O     0.11696   0.63383   0.14524   0.00000  Uiso   1.00
C307   C     0.10528   0.38145   0.19718   0.00000  Uiso   1.00
H308   H     0.11026   0.41370   0.18234   0.00000  Uiso   1.00
O309   O     0.07038   0.36543   0.19329   0.00000  Uiso   1.00
C310   C     0.21447   0.61824   0.31684   0.00000  Uiso   1.00
H311   H     0.23025   0.58710   0.31089   0.00000  Uiso   1.00
O312   O     0.21531   0.63285   0.35507   0.00000  Uiso   1.00
C313   C     0.42006   0.50004   0.24985   0.00000  Uiso   1.00
C314   C     0.57994   0.49997   0.24995   0.00000  Uiso   1.00
C315   C     0.42935   0.46911   0.02273   0.00000  Uiso   1.00
C316   C     0.57138   0.52630   0.47753   0.00000  Uiso   1.00
C317   C     0.35488   0.45935   0.25308   0.00000  Uiso   1.00
C318   C     0.64510   0.54077   0.24617   0.00000  Uiso   1.00
C319   C     0.64562   0.45930   0.25280   0.00000  Uiso   1.00
C320   C     0.35438   0.54081   0.24615   0.00000  Uiso   1.00
C321   C     0.62414   0.50000   0.24961   0.00000  Uiso   1.00
C322   C     0.37585   0.50009   0.24972   0.00000  Uiso   1.00
C323   C     0.52747   0.35713   0.27757   0.00000  Uiso   1.00
C324   C     0.47498   0.64279   0.21993   0.00000  Uiso   1.00
C325   C     0.47247   0.35735   0.22254   0.00000  Uiso   1.00
C326   C     0.52495   0.64257   0.28013   0.00000  Uiso   1.00
C327   C     0.50056   0.50002   0.16372   0.00000  Uiso   1.00
C328   C     0.49929   0.49998   0.33626   0.00000  Uiso   1.00
C329   C     0.53212   0.51659   0.40763   0.00000  Uiso   1.00
C330   C     0.46802   0.48147   0.09260   0.00000  Uiso   1.00
C331   C     0.49781   0.49999   0.38385   0.00000  Uiso   1.00
C332   C     0.50179   0.49972   0.11610   0.00000  Uiso   1.00
C333   C     0.46309   0.48302   0.40489   0.00000  Uiso   1.00
C334   C     0.53632   0.51655   0.09469   0.00000  Uiso   1.00
C335   C     0.46226   0.48469   0.45212   0.00000  Uiso   1.00
C336   C     0.53786   0.51208   0.04781   0.00000  Uiso   1.00
C337   C     0.49918   0.49877   0.47656   0.00000  Uiso   1.00
C338   C     0.50111   0.49761   0.02343   0.00000  Uiso   1.00
C339   C     0.53419   0.51450   0.45399   0.00000  Uiso   1.00
C340   C     0.46617   0.48220   0.04616   0.00000  Uiso   1.00
C341   C     0.42658   0.47169   0.47566   0.00000  Uiso   1.00
C342   C     0.57410   0.52298   0.02444   0.00000  Uiso   1.00
H343   H     0.55808   0.52913   0.38925   0.00000  Uiso   1.00
H344   H     0.44223   0.46889   0.11121   0.00000  Uiso   1.00
H345   H     0.37119   0.42760   0.25606   0.00000  Uiso   1.00
H346   H     0.62875   0.57253   0.24342   0.00000  Uiso   1.00
H347   H     0.62971   0.42752   0.25523   0.00000  Uiso   1.00
H348   H     0.37033   0.57258   0.24335   0.00000  Uiso   1.00
N349   N     0.50000   0.61907   0.25000   0.00000  Uiso   1.00
N350   N     0.50000   0.38093   0.25000   0.00000  Uiso   1.00
O351   O     0.43892   0.53821   0.24999   0.00000  Uiso   1.00
O352   O     0.56108   0.46179   0.25000   0.00000  Uiso   1.00
O353   O     0.56108   0.53821   0.25000   0.00000  Uiso   1.00
O354   O     0.43892   0.46179   0.25000   0.00000  Uiso   1.00
O355   O     0.49999   0.53823   0.18392   0.00000  Uiso   1.00
O356   O     0.50001   0.46177   0.31607   0.00000  Uiso   1.00
O357   O     0.50001   0.53823   0.31607   0.00000  Uiso   1.00
O358   O     0.49999   0.46177   0.18392   0.00000  Uiso   1.00
Zn359  Zn    0.50000   0.55104   0.25000   0.00000  Uiso   1.00
Zn360  Zn    0.50000   0.44896   0.25000   0.00000  Uiso   1.00
N361   N     0.42978   0.46290   0.37828   0.00000  Uiso   1.00
H362   H     0.44110   0.43469   0.36198   0.00000  Uiso   1.00
H363   H     0.41849   0.48604   0.35436   0.00000  Uiso   1.00
N364   N     0.56829   0.54018   0.12015   0.00000  Uiso   1.00
H365   H     0.58011   0.51947   0.14599   0.00000  Uiso   1.00
H366   H     0.55531   0.56882   0.13413   0.00000  Uiso   1.00
C367   C     0.38514   0.46543   0.45239   0.00000  Uiso   1.00
H368   H     0.37347   0.49038   0.42850   0.00000  Uiso   1.00
O369   O     0.36409   0.43230   0.45911   0.00000  Uiso   1.00
C370   C     0.61603   0.52675   0.04715   0.00000  Uiso   1.00
H371   H     0.63699   0.55346   0.03831   0.00000  Uiso   1.00
O372   O     0.62829   0.49842   0.07419   0.00000  Uiso   1.00
N373   N     0.39407   0.45563   0.04756   0.00000  Uiso   1.00
H374   H     0.38658   0.42247   0.03948   0.00000  Uiso   1.00
H375   H     0.36879   0.47650   0.03902   0.00000  Uiso   1.00
N376   N     0.60697   0.53959   0.45309   0.00000  Uiso   1.00
H377   H     0.63141   0.51712   0.46013   0.00000  Uiso   1.00
H378   H     0.61606   0.57170   0.46344   0.00000  Uiso   1.00
C379   C     0.56116   0.38098   0.30323   0.00000  Uiso   1.00
H380   H     0.55639   0.41367   0.31715   0.00000  Uiso   1.00
O381   O     0.59576   0.36423   0.30844   0.00000  Uiso   1.00
C382   C     0.45196   0.61870   0.18331   0.00000  Uiso   1.00
H383   H     0.43682   0.58725   0.18914   0.00000  Uiso   1.00
O384   O     0.45030   0.63383   0.14524   0.00000  Uiso   1.00
C385   C     0.43861   0.38145   0.19718   0.00000  Uiso   1.00
H386   H     0.44360   0.41370   0.18234   0.00000  Uiso   1.00
O387   O     0.40371   0.36543   0.19329   0.00000  Uiso   1.00
C388   C     0.54780   0.61824   0.31684   0.00000  Uiso   1.00
H389   H     0.56358   0.58710   0.31089   0.00000  Uiso   1.00
O390   O     0.54864   0.63285   0.35507   0.00000  Uiso   1.00
C391   C     0.75340   0.50004   0.24985   0.00000  Uiso   1.00
C392   C     0.91327   0.49997   0.24995   0.00000  Uiso   1.00
C393   C     0.76268   0.46911   0.02273   0.00000  Uiso   1.00
C394   C     0.90471   0.52630   0.47753   0.00000  Uiso   1.00
C395   C     0.68821   0.45935   0.25308   0.00000  Uiso   1.00
C396   C     0.97843   0.54077   0.24617   0.00000  Uiso   1.00
C397   C     0.97895   0.45930   0.25280   0.00000  Uiso   1.00
C398   C     0.68772   0.54081   0.24615   0.00000  Uiso   1.00
C399   C     0.95747   0.50000   0.24961   0.00000  Uiso   1.00
C400   C     0.70919   0.50009   0.24972   0.00000  Uiso   1.00
C401   C     0.86080   0.35713   0.27757   0.00000  Uiso   1.00
C402   C     0.80832   0.64279   0.21993   0.00000  Uiso   1.00
C403   C     0.80580   0.35735   0.22254   0.00000  Uiso   1.00
C404   C     0.85828   0.64257   0.28013   0.00000  Uiso   1.00
C405   C     0.83390   0.50002   0.16372   0.00000  Uiso   1.00
C406   C     0.83262   0.49998   0.33626   0.00000  Uiso   1.00
C407   C     0.86546   0.51659   0.40763   0.00000  Uiso   1.00
C408   C     0.80135   0.48147   0.09260   0.00000  Uiso   1.00
C409   C     0.83115   0.49999   0.38385   0.00000  Uiso   1.00
C410   C     0.83512   0.49972   0.11610   0.00000  Uiso   1.00
C411   C     0.79643   0.48302   0.40489   0.00000  Uiso   1.00
C412   C     0.86965   0.51655   0.09469   0.00000  Uiso   1.00
C413   C     0.79560   0.48469   0.45212   0.00000  Uiso   1.00
C414   C     0.87120   0.51208   0.04781   0.00000  Uiso   1.00
C415   C     0.83252   0.49877   0.47656   0.00000  Uiso   1.00
C416   C     0.83445   0.49761   0.02343   0.00000  Uiso   1.00
C417   C     0.86752   0.51450   0.45399   0.00000  Uiso   1.00
C418   C     0.79950   0.48220   0.04616   0.00000  Uiso   1.00
C419   C     0.75991   0.47169   0.47566   0.00000  Uiso   1.00
C420   C     0.90743   0.52298   0.02444   0.00000  Uiso   1.00
H421   H     0.89141   0.52913   0.38925   0.00000  Uiso   1.00
H422   H     0.77556   0.46889   0.11121   0.00000  Uiso   1.00
H423   H     0.70452   0.42760   0.25606   0.00000  Uiso   1.00
H424   H     0.96208   0.57253   0.24342   0.00000  Uiso   1.00
H425   H     0.96305   0.42752   0.25523   0.00000  Uiso   1.00
H426   H     0.70367   0.57258   0.24335   0.00000  Uiso   1.00
N427   N     0.83333   0.61907   0.25000   0.00000  Uiso   1.00
N428   N     0.83333   0.38093   0.25000   0.00000  Uiso   1.00
O429   O     0.77226   0.53821   0.24999   0.00000  Uiso   1.00
O430   O     0.89441   0.46179   0.25000   0.00000  Uiso   1.00
O431   O     0.89441   0.53821   0.25000   0.00000  Uiso   1.00
O432   O     0.77226   0.46179   0.25000   0.00000  Uiso   1.00
O433   O     0.83333   0.53823   0.18392   0.00000  Uiso   1.00
O434   O     0.83334   0.46177   0.31607   0.00000  Uiso   1.00
O435   O     0.83334   0.53823   0.31607   0.00000  Uiso   1.00
O436   O     0.83333   0.46177   0.18392   0.00000  Uiso   1.00
Zn437  Zn    0.83333   0.55104   0.25000   0.00000  Uiso   1.00
Zn438  Zn    0.83333   0.44896   0.25000   0.00000  Uiso   1.00
N439   N     0.76311   0.46290   0.37828   0.00000  Uiso   1.00
H440   H     0.77444   0.43469   0.36198   0.00000  Uiso   1.00
H441   H     0.75183   0.48604   0.35436   0.00000  Uiso   1.00
N442   N     0.90163   0.54018   0.12015   0.00000  Uiso   1.00
H443   H     0.91345   0.51947   0.14599   0.00000  Uiso   1.00
H444   H     0.88864   0.56882   0.13413   0.00000  Uiso   1.00
C445   C     0.71847   0.46543   0.45239   0.00000  Uiso   1.00
H446   H     0.70681   0.49038   0.42850   0.00000  Uiso   1.00
O447   O     0.69742   0.43230   0.45911   0.00000  Uiso   1.00
C448   C     0.94936   0.52675   0.04715   0.00000  Uiso   1.00
H449   H     0.97032   0.55346   0.03831   0.00000  Uiso   1.00
O450   O     0.96163   0.49842   0.07419   0.00000  Uiso   1.00
N451   N     0.72740   0.45563   0.04756   0.00000  Uiso   1.00
H452   H     0.71991   0.42247   0.03948   0.00000  Uiso   1.00
H453   H     0.70213   0.47650   0.03902   0.00000  Uiso   1.00
N454   N     0.94031   0.53959   0.45309   0.00000  Uiso   1.00
H455   H     0.96475   0.51712   0.46013   0.00000  Uiso   1.00
H456   H     0.94939   0.57170   0.46344   0.00000  Uiso   1.00
C457   C     0.89450   0.38098   0.30323   0.00000  Uiso   1.00
H458   H     0.88972   0.41367   0.31715   0.00000  Uiso   1.00
O459   O     0.92909   0.36423   0.30844   0.00000  Uiso   1.00
C460   C     0.78529   0.61870   0.18331   0.00000  Uiso   1.00
H461   H     0.77016   0.58725   0.18914   0.00000  Uiso   1.00
O462   O     0.78363   0.63383   0.14524   0.00000  Uiso   1.00
C463   C     0.77194   0.38145   0.19718   0.00000  Uiso   1.00
H464   H     0.77693   0.41370   0.18234   0.00000  Uiso   1.00
O465   O     0.73705   0.36543   0.19329   0.00000  Uiso   1.00
C466   C     0.88114   0.61824   0.31684   0.00000  Uiso   1.00
H467   H     0.89692   0.58710   0.31089   0.00000  Uiso   1.00
O468   O     0.88198   0.63285   0.35507   0.00000  Uiso   1.00
C469   C     0.08673   0.83338   0.24985   0.00000  Uiso   1.00
C470   C     0.24660   0.83331   0.24995   0.00000  Uiso   1.00
C471   C     0.09601   0.80244   0.02273   0.00000  Uiso   1.00
C472   C     0.23804   0.85963   0.47753   0.00000  Uiso   1.00
C473   C     0.02154   0.79268   0.25308   0.00000  Uiso   1.00
C474   C     0.31177   0.87411   0.24617   0.00000  Uiso   1.00
C475   C     0.31228   0.79263   0.25280   0.00000  Uiso   1.00
C476   C     0.02105   0.87415   0.24615   0.00000  Uiso   1.00
C477   C     0.29080   0.83334   0.24961   0.00000  Uiso   1.00
C478   C     0.04252   0.83343   0.24972   0.00000  Uiso   1.00
C479   C     0.19413   0.69046   0.27757   0.00000  Uiso   1.00
C480   C     0.14165   0.97612   0.21993   0.00000  Uiso   1.00
C481   C     0.13914   0.69068   0.22254   0.00000  Uiso   1.00
C482   C     0.19162   0.97590   0.28013   0.00000  Uiso   1.00
C483   C     0.16723   0.83335   0.16372   0.00000  Uiso   1.00
C484   C     0.16596   0.83331   0.33626   0.00000  Uiso   1.00
C485   C     0.19879   0.84992   0.40763   0.00000  Uiso   1.00
C486   C     0.13468   0.81481   0.09260   0.00000  Uiso   1.00
C487   C     0.16448   0.83332   0.38385   0.00000  Uiso   1.00
C488   C     0.16846   0.83305   0.11610   0.00000  Uiso   1.00
C489   C     0.12976   0.81635   0.40489   0.00000  Uiso   1.00
C490   C     0.20298   0.84988   0.09469   0.00000  Uiso   1.00
C491   C     0.12893   0.81802   0.45212   0.00000  Uiso   1.00
C492   C     0.20453   0.84541   0.04781   0.00000  Uiso   1.00
C493   C     0.16585   0.83211   0.47656   0.00000  Uiso   1.00
C494   C     0.16778   0.83095   0.02343   0.00000  Uiso   1.00
C495   C     0.20085   0.84784   0.45399   0.00000  Uiso   1.00
C496   C     0.13283   0.81553   0.04616   0.00000  Uiso   1.00
C497   C     0.09324   0.80502   0.47566   0.00000  Uiso   1.00
C498   C     0.24077   0.85632   0.02444   0.00000  Uiso   1.00
H499   H     0.22475   0.86246   0.38925   0.00000  Uiso   1.00
H500   H     0.10889   0.80222   0.11121   0.00000  Uiso   1.00
H501   H     0.03786   0.76094   0.25606   0.00000  Uiso   1.00
H502   H     0.29542   0.90587   0.24342   0.00000  Uiso   1.00
H503   H     0.29638   0.76086   0.25523   0.00000  Uiso   1.00
H504   H     0.03700   0.90591   0.24335   0.00000  Uiso   1.00
N505   N     0.16667   0.95240   0.25000   0.00000  Uiso   1.00
N506   N     0.16667   0.71427   0.25000   0.00000  Uiso   1.00
O507   O     0.10559   0.87154   0.24999   0.00000  Uiso   1.00
O508   O     0.22774   0.79513   0.25000   0.00000  Uiso   1.00
O509   O     0.22774   0.87154   0.25000   0.00000  Uiso   1.00
O510   O     0.10559   0.79513   0.25000   0.00000  Uiso   1.00
O511   O     0.16666   0.87156   0.18392   0.00000  Uiso   1.00
O512   O     0.16667   0.79511   0.31607   0.00000  Uiso   1.00
O513   O     0.16667   0.87156   0.31607   0.00000  Uiso   1.00
O514   O     0.16666   0.79511   0.18392   0.00000  Uiso   1.00
Zn515  Zn    0.16667   0.88437   0.25000   0.00000  Uiso   1.00
Zn516  Zn    0.16667   0.78229   0.25000   0.00000  Uiso   1.00
N517   N     0.09645   0.79623   0.37828   0.00000  Uiso   1.00
H518   H     0.10777   0.76802   0.36198   0.00000  Uiso   1.00
H519   H     0.08516   0.81937   0.35436   0.00000  Uiso   1.00
N520   N     0.23496   0.87351   0.12015   0.00000  Uiso   1.00
H521   H     0.24678   0.85280   0.14599   0.00000  Uiso   1.00
H522   H     0.22198   0.90216   0.13413   0.00000  Uiso   1.00
C523   C     0.05181   0.79876   0.45239   0.00000  Uiso   1.00
H524   H     0.04014   0.82371   0.42850   0.00000  Uiso   1.00
O525   O     0.03076   0.76563   0.45911   0.00000  Uiso   1.00
C526   C     0.28269   0.86008   0.04715   0.00000  Uiso   1.00
H527   H     0.30366   0.88680   0.03831   0.00000  Uiso   1.00
O528   O     0.29496   0.83175   0.07419   0.00000  Uiso   1.00
N529   N     0.06073   0.78896   0.04756   0.00000  Uiso   1.00
H530   H     0.05324   0.75580   0.03948   0.00000  Uiso   1.00
H531   H     0.03546   0.80983   0.03902   0.00000  Uiso   1.00
N532   N     0.27364   0.87292   0.45309   0.00000  Uiso   1.00
H533   H     0.29808   0.85045   0.46013   0.00000  Uiso   1.00
H534   H     0.28272   0.90503   0.46344   0.00000  Uiso   1.00
C535   C     0.22783   0.71432   0.30323   0.00000  Uiso   1.00
H536   H     0.22306   0.74701   0.31715   0.00000  Uiso   1.00
O537   O     0.26242   0.69757   0.30844   0.00000  Uiso   1.00
C538   C     0.11863   0.95203   0.18331   0.00000  Uiso   1.00
H539   H     0.10349   0.92059   0.18914   0.00000  Uiso   1.00
O540   O     0.11696   0.96716   0.14524   0.00000  Uiso   1.00
C541   C     0.10528   0.71479   0.19718   0.00000  Uiso   1.00
H542   H     0.11026   0.74703   0.18234   0.00000  Uiso   1.00
O543   O     0.07038   0.69876   0.19329   0.00000  Uiso   1.00
C544   C     0.21447   0.95157   0.31684   0.00000  Uiso   1.00
H545   H     0.23025   0.92044   0.31089   0.00000  Uiso   1.00
O546   O     0.21531   0.96619   0.35507   0.00000  Uiso   1.00
C547   C     0.42006   0.83338   0.24985   0.00000  Uiso   1.00
C548   C     0.57994   0.83331   0.24995   0.00000  Uiso   1.00
C549   C     0.42935   0.80244   0.02273   0.00000  Uiso   1.00
C550   C     0.57138   0.85963   0.47753   0.00000  Uiso   1.00
C551   C     0.35488   0.79268   0.25308   0.00000  Uiso   1.00
C552   C     0.64510   0.87411   0.24617   0.00000  Uiso   1.00
C553   C     0.64562   0.79263   0.25280   0.00000  Uiso   1.00
C554   C     0.35438   0.87415   0.24615   0.00000  Uiso   1.00
C555   C     0.62414   0.83334   0.24961   0.00000  Uiso   1.00
C556   C     0.37585   0.83343   0.24972   0.00000  Uiso   1.00
C557   C     0.52747   0.69046   0.27757   0.00000  Uiso   1.00
C558   C     0.47498   0.97612   0.21993   0.00000  Uiso   1.00
C559   C     0.47247   0.69068   0.22254   0.00000  Uiso   1.00
C560   C     0.52495   0.97590   0.28013   0.00000  Uiso   1.00
C561   C     0.50056   0.83335   0.16372   0.00000  Uiso   1.00
C562   C     0.49929   0.83331   0.33626   0.00000  Uiso   1.00
C563   C     0.53212   0.84992   0.40763   0.00000  Uiso   1.00
C564   C     0.46802   0.81481   0.09260   0.00000  Uiso   1.00
C565   C     0.49781   0.83332   0.38385   0.00000  Uiso   1.00
C566   C     0.50179   0.83305   0.11610   0.00000  Uiso   1.00
C567   C     0.46309   0.81635   0.40489   0.00000  Uiso   1.00
C568   C     0.53632   0.84988   0.09469   0.00000  Uiso   1.00
C569   C     0.46226   0.81802   0.45212   0.00000  Uiso   1.00
C570   C     0.53786   0.84541   0.04781   0.00000  Uiso   1.00
C571   C     0.49918   0.83211   0.47656   0.00000  Uiso   1.00
C572   C     0.50111   0.83095   0.02343   0.00000  Uiso   1.00
C573   C     0.53419   0.84784   0.45399   0.00000  Uiso   1.00
C574   C     0.46617   0.81553   0.04616   0.00000  Uiso   1.00
C575   C     0.42658   0.80502   0.47566   0.00000  Uiso   1.00
C576   C     0.57410   0.85632   0.02444   0.00000  Uiso   1.00
H577   H     0.55808   0.86246   0.38925   0.00000  Uiso   1.00
H578   H     0.44223   0.80222   0.11121   0.00000  Uiso   1.00
H579   H     0.37119   0.76094   0.25606   0.00000  Uiso   1.00
H580   H     0.62875   0.90587   0.24342   0.00000  Uiso   1.00
H581   H     0.62971   0.76086   0.25523   0.00000  Uiso   1.00
H582   H     0.37033   0.90591   0.24335   0.00000  Uiso   1.00
N583   N     0.50000   0.95240   0.25000   0.00000  Uiso   1.00
N584   N     0.50000   0.71427   0.25000   0.00000  Uiso   1.00
O585   O     0.43892   0.87154   0.24999   0.00000  Uiso   1.00
O586   O     0.56108   0.79513   0.25000   0.00000  Uiso   1.00
O587   O     0.56108   0.87154   0.25000   0.00000  Uiso   1.00
O588   O     0.43892   0.79513   0.25000   0.00000  Uiso   1.00
O589   O     0.49999   0.87156   0.18392   0.00000  Uiso   1.00
O590   O     0.50001   0.79511   0.31607   0.00000  Uiso   1.00
O591   O     0.50001   0.87156   0.31607   0.00000  Uiso   1.00
O592   O     0.49999   0.79511   0.18392   0.00000  Uiso   1.00
Zn593  Zn    0.50000   0.88437   0.25000   0.00000  Uiso   1.00
Zn594  Zn    0.50000   0.78229   0.25000   0.00000  Uiso   1.00
N595   N     0.42978   0.79623   0.37828   0.00000  Uiso   1.00
H596   H     0.44110   0.76802   0.36198   0.00000  Uiso   1.00
H597   H     0.41849   0.81937   0.35436   0.00000  Uiso   1.00
N598   N     0.56829   0.87351   0.12015   0.00000  Uiso   1.00
H599   H     0.58011   0.85280   0.14599   0.00000  Uiso   1.00
H600   H     0.55531   0.90216   0.13413   0.00000  Uiso   1.00
C601   C     0.38514   0.79876   0.45239   0.00000  Uiso   1.00
H602   H     0.37347   0.82371   0.42850   0.00000  Uiso   1.00
O603   O     0.36409   0.76563   0.45911   0.00000  Uiso   1.00
C604   C     0.61603   0.86008   0.04715   0.00000  Uiso   1.00
H605   H     0.63699   0.88680   0.03831   0.00000  Uiso   1.00
O606   O     0.62829   0.83175   0.07419   0.00000  Uiso   1.00
N607   N     0.39407   0.78896   0.04756   0.00000  Uiso   1.00
H608   H     0.38658   0.75580   0.03948   0.00000  Uiso   1.00
H609   H     0.36879   0.80983   0.03902   0.00000  Uiso   1.00
N610   N     0.60697   0.87292   0.45309   0.00000  Uiso   1.00
H611   H     0.63141   0.85045   0.46013   0.00000  Uiso   1.00
H612   H     0.61606   0.90503   0.46344   0.00000  Uiso   1.00
C613   C     0.56116   0.71432   0.30323   0.00000  Uiso   1.00
H614   H     0.55639   0.74701   0.31715   0.00000  Uiso   1.00
O615   O     0.59576   0.69757   0.30844   0.00000  Uiso   1.00
C616   C     0.45196   0.95203   0.18331   0.00000  Uiso   1.00
H617   H     0.43682   0.92059   0.18914   0.00000  Uiso   1.00
O618   O     0.45030   0.96716   0.14524   0.00000  Uiso   1.00
C619   C     0.43861   0.71479   0.19718   0.00000  Uiso   1.00
H620   H     0.44360   0.74703   0.18234   0.00000  Uiso   1.00
O621   O     0.40371   0.69876   0.19329   0.00000  Uiso   1.00
C622   C     0.54780   0.95157   0.31684   0.00000  Uiso   1.00
H623   H     0.56358   0.92044   0.31089   0.00000  Uiso   1.00
O624   O     0.54864   0.96619   0.35507   0.00000  Uiso   1.00
C625   C     0.75340   0.83338   0.24985   0.00000  Uiso   1.00
C626   C     0.91327   0.83331   0.24995   0.00000  Uiso   1.00
C627   C     0.76268   0.80244   0.02273   0.00000  Uiso   1.00
C628   C     0.90471   0.85963   0.47753   0.00000  Uiso   1.00
C629   C     0.68821   0.79268   0.25308   0.00000  Uiso   1.00
C630   C     0.97843   0.87411   0.24617   0.00000  Uiso   1.00
C631   C     0.97895   0.79263   0.25280   0.00000  Uiso   1.00
C632   C     0.68772   0.87415   0.24615   0.00000  Uiso   1.00
C633   C     0.95747   0.83334   0.24961   0.00000  Uiso   1.00
C634   C     0.70919   0.83343   0.24972   0.00000  Uiso   1.00
C635   C     0.86080   0.69046   0.27757   0.00000  Uiso   1.00
C636   C     0.80832   0.97612   0.21993   0.00000  Uiso   1.00
C637   C     0.80580   0.69068   0.22254   0.00000  Uiso   1.00
C638   C     0.85828   0.97590   0.28013   0.00000  Uiso   1.00
C639   C     0.83390   0.83335   0.16372   0.00000  Uiso   1.00
C640   C     0.83262   0.83331   0.33626   0.00000  Uiso   1.00
C641   C     0.86546   0.84992   0.40763   0.00000  Uiso   1.00
C642   C     0.80135   0.81481   0.09260   0.00000  Uiso   1.00
C643   C     0.83115   0.83332   0.38385   0.00000  Uiso   1.00
C644   C     0.83512   0.83305   0.11610   0.00000  Uiso   1.00
C645   C     0.79643   0.81635   0.40489   0.00000  Uiso   1.00
C646   C     0.86965   0.84988   0.09469   0.00000  Uiso   1.00
C647   C     0.79560   0.81802   0.45212   0.00000  Uiso   1.00
C648   C     0.87120   0.84541   0.04781   0.00000  Uiso   1.00
C649   C     0.83252   0.83211   0.47656   0.00000  Uiso   1.00
C650   C     0.83445   0.83095   0.02343   0.00000  Uiso   1.00
C651   C     0.86752   0.84784   0.45399   0.00000  Uiso   1.00
C652   C     0.79950   0.81553   0.04616   0.00000  Uiso   1.00
C653   C     0.75991   0.80502   0.47566   0.00000  Uiso   1.00
C654   C     0.90743   0.85632   0.02444   0.00000  Uiso   1.00
H655   H     0.89141   0.86246   0.38925   0.00000  Uiso   1.00
H656   H     0.77556   0.80222   0.11121   0.00000  Uiso   1.00
H657   H     0.70452   0.76094   0.25606   0.00000  Uiso   1.00
H658   H     0.96208   0.90587   0.24342   0.00000  Uiso   1.00
H659   H     0.96305   0.76086   0.25523   0.00000  Uiso   1.00
H660   H     0.70367   0.90591   0.24335   0.00000  Uiso   1.00
N661   N     0.83333   0.95240   0.25000   0.00000  Uiso   1.00
N662   N     0.83333   0.71427   0.25000   0.00000  Uiso   1.00
O663   O     0.77226   0.87154   0.24999   0.00000  Uiso   1.00
O664   O     0.89441   0.79513   0.25000   0.00000  Uiso   1.00
O665   O     0.89441   0.87154   0.25000   0.00000  Uiso   1.00
O666   O     0.77226   0.79513   0.25000   0.00000  Uiso   1.00
O667   O     0.83333   0.87156   0.18392   0.00000  Uiso   1.00
O668   O     0.83334   0.79511   0.31607   0.00000  Uiso   1.00
O669   O     0.83334   0.87156   0.31607   0.00000  Uiso   1.00
O670   O     0.83333   0.79511   0.18392   0.00000  Uiso   1.00
Zn671  Zn    0.83333   0.88437   0.25000   0.00000  Uiso   1.00
Zn672  Zn    0.83333   0.78229   0.25000   0.00000  Uiso   1.00
N673   N     0.76311   0.79623   0.37828   0.00000  Uiso   1.00
H674   H     0.77444   0.76802   0.36198   0.00000  Uiso   1.00
H675   H     0.75183   0.81937   0.35436   0.00000  Uiso   1.00
N676   N     0.90163   0.87351   0.12015   0.00000  Uiso   1.00
H677   H     0.91345   0.85280   0.14599   0.00000  Uiso   1.00
H678   H     0.88864   0.90216   0.13413   0.00000  Uiso   1.00
C679   C     0.71847   0.79876   0.45239   0.00000  Uiso   1.00
H680   H     0.70681   0.82371   0.42850   0.00000  Uiso   1.00
O681   O     0.69742   0.76563   0.45911   0.00000  Uiso   1.00
C682   C     0.94936   0.86008   0.04715   0.00000  Uiso   1.00
H683   H     0.97032   0.88680   0.03831   0.00000  Uiso   1.00
O684   O     0.96163   0.83175   0.07419   0.00000  Uiso   1.00
N685   N     0.72740   0.78896   0.04756   0.00000  Uiso   1.00
H686   H     0.71991   0.75580   0.03948   0.00000  Uiso   1.00
H687   H     0.70213   0.80983   0.03902   0.00000  Uiso   1.00
N688   N     0.94031   0.87292   0.45309   0.00000  Uiso   1.00
H689   H     0.96475   0.85045   0.46013   0.00000  Uiso   1.00
H690   H     0.94939   0.90503   0.46344   0.00000  Uiso   1.00
C691   C     0.89450   0.71432   0.30323   0.00000  Uiso   1.00
H692   H     0.88972   0.74701   0.31715   0.00000  Uiso   1.00
O693   O     0.92909   0.69757   0.30844   0.00000  Uiso   1.00
C694   C     0.78529   0.95203   0.18331   0.00000  Uiso   1.00
H695   H     0.77016   0.92059   0.18914   0.00000  Uiso   1.00
O696   O     0.78363   0.96716   0.14524   0.00000  Uiso   1.00
C697   C     0.77194   0.71479   0.19718   0.00000  Uiso   1.00
H698   H     0.77693   0.74703   0.18234   0.00000  Uiso   1.00
O699   O     0.73705   0.69876   0.19329   0.00000  Uiso   1.00
C700   C     0.88114   0.95157   0.31684   0.00000  Uiso   1.00
H701   H     0.89692   0.92044   0.31089   0.00000  Uiso   1.00
O702   O     0.88198   0.96619   0.35507   0.00000  Uiso   1.00
C703   C     0.08673   0.16671   0.74985   0.00000  Uiso   1.00
C704   C     0.24660   0.16664   0.74995   0.00000  Uiso   1.00
C705   C     0.09601   0.13577   0.52273   0.00000  Uiso   1.00
C706   C     0.23804   0.19297   0.97753   0.00000  Uiso   1.00
C707   C     0.02154   0.12602   0.75308   0.00000  Uiso   1.00
C708   C     0.31177   0.20744   0.74617   0.00000  Uiso   1.00
C709   C     0.31228   0.12597   0.75280   0.00000  Uiso   1.00
C710   C     0.02105   0.20748   0.74615   0.00000  Uiso   1.00
C711   C     0.29080   0.16667   0.74961   0.00000  Uiso   1.00
C712   C     0.04252   0.16676   0.74972   0.00000  Uiso   1.00
C713   C     0.19413   0.02379   0.77757   0.00000  Uiso   1.00
C714   C     0.14165   0.30945   0.71993   0.00000  Uiso   1.00
C715   C     0.13914   0.02401   0.72254   0.00000  Uiso   1.00
C716   C     0.19162   0.30924   0.78013   0.00000  Uiso   1.00
C717   C     0.16723   0.16668   0.66372   0.00000  Uiso   1.00
C718   C     0.16596   0.16664   0.83626   0.00000  Uiso   1.00
C719   C     0.19879   0.18326   0.90763   0.00000  Uiso   1.00
C720   C     0.13468   0.14814   0.59260   0.00000  Uiso   1.00
C721   C     0.16448   0.16666   0.88385   0.00000  Uiso   1.00
C722   C     0.16846   0.16639   0.61610   0.00000  Uiso   1.00
C723   C     0.12976   0.14968   0.90489   0.00000  Uiso   1.00
C724   C     0.20298   0.18322   0.59469   0.00000  Uiso   1.00
C725   C     0.12893   0.15136   0.95212   0.00000  Uiso   1.00
C726   C     0.20453   0.17874   0.54781   0.00000  Uiso   1.00
C727   C     0.16585   0.16544   0.97656   0.00000  Uiso   1.00
C728   C     0.16778   0.16428   0.52343   0.00000  Uiso   1.00
C729   C     0.20085   0.18117   0.95399   0.00000  Uiso   1.00
C730   C     0.13283   0.14886   0.54616   0.00000  Uiso   1.00
C731   C     0.09324   0.13836   0.97566   0.00000  Uiso   1.00
C732   C     0.24077   0.18965   0.52444   0.00000  Uiso   1.00
H733   H     0.22475   0.19580   0.88925   0.00000  Uiso   1.00
H734   H     0.10889   0.13555   0.61121   0.00000  Uiso   1.00
H735   H     0.03786   0.09427   0.75606   0.00000  Uiso   1.00
H736   H     0.29542   0.23920   0.74342   0.00000  Uiso   1.00
H737   H     0.29638   0.09419   0.75523   0.00000  Uiso   1.00
H738   H     0.03700   0.23924   0.74335   0.00000  Uiso   1.00
N739   N     0.16667   0.28573   0.75000   0.00000  Uiso   1.00
N740   N     0.16667   0.04760   0.75000   0.00000  Uiso   1.00
O741   O     0.10559   0.20487   0.74999   0.00000  Uiso   1.00
O742   O     0.22774   0.12846   0.75000   0.00000  Uiso   1.00
O743   O     0.22774   0.20487   0.75000   0.00000  Uiso   1.00
O744   O     0.10559   0.12846   0.75000   0.00000  Uiso   1.00
O745   O     0.16666   0.20489   0.68392   0.00000  Uiso   1.00
O746   O     0.16667   0.12844   0.81607   0.00000  Uiso   1.00
O747   O     0.16667   0.20489   0.81607   0.00000  Uiso   1.00
O748   O     0.16666   0.12844   0.68392   0.00000  Uiso   1.00
Zn749  Zn    0.16667   0.21771   0.75000   0.00000  Uiso   1.00
Zn750  Zn    0.16667   0.11563   0.75000   0.00000  Uiso   1.00
N751   N     0.09645   0.12957   0.87828   0.00000  Uiso   1.00
H752   H     0.10777   0.10136   0.86198   0.00000  Uiso   1.00
H753   H     0.08516   0.15271   0.85436   0.00000  Uiso   1.00
N754   N     0.23496   0.20685   0.62015   0.00000  Uiso   1.00
H755   H     0.24678   0.18613   0.64599   0.00000  Uiso   1.00
H756   H     0.22198   0.23549   0.63413   0.00000  Uiso   1.00
C757   C     0.05181   0.13210   0.95239   0.00000  Uiso   1.00
H758   H     0.04014   0.15704   0.92850   0.00000  Uiso   1.00
O759   O     0.03076   0.09896   0.95911   0.00000  Uiso   1.00
C760   C     0.28269   0.19342   0.54715   0.00000  Uiso   1.00
H761   H     0.30366   0.22013   0.53831   0.00000  Uiso   1.00
O762   O     0.29496   0.16508   0.57419   0.00000  Uiso   1.00
N763   N     0.06073   0.12229   0.54756   0.00000  Uiso   1.00
H764   H     0.05324   0.08913   0.53948   0.00000  Uiso   1.00
H765   H     0.03546   0.14317   0.53902   0.00000  Uiso   1.00
N766   N     0.27364   0.20626   0.95309   0.00000  Uiso   1.00
H767   H     0.29808   0.18378   0.96013   0.00000  Uiso   1.00
H768   H     0.28272   0.23836   0.96344   0.00000  Uiso   1.00
C769   C     0.22783   0.04765   0.80323   0.00000  Uiso   1.00
H770   H     0.22306   0.08034   0.81715   0.00000  Uiso   1.00
O771   O     0.26242   0.03090   0.80844   0.00000  Uiso   1.00
C772   C     0.11863   0.28536   0.68331   0.00000  Uiso   1.00
H773   H     0.10349   0.25392   0.68914   0.00000  Uiso   1.00
O774   O     0.11696   0.30049   0.64524   0.00000  Uiso   1.00
C775   C     0.10528   0.04812   0.69718   0.00000  Uiso   1.00
H776   H     0.11026   0.08037   0.68234   0.00000  Uiso   1.00
O777   O     0.07038   0.03209   0.69329   0.00000  Uiso   1.00
C778   C     0.21447   0.28491   0.81684   0.00000  Uiso   1.00
H779   H     0.23025   0.25377   0.81089   0.00000  Uiso   1.00
O780   O     0.21531   0.29952   0.85507   0.00000  Uiso   1.00
C781   C     0.42006   0.16671   0.74985   0.00000  Uiso   1.00
C782   C     0.57994   0.16664   0.74995   0.00000  Uiso   1.00
C783   C     0.42935   0.13577   0.52273   0.00000  Uiso   1.00
C784   C     0.57138   0.19297   0.97753   0.00000  Uiso   1.00
C785   C     0.35488   0.12602   0.75308   0.00000  Uiso   1.00
C786   C     0.64510   0.20744   0.74617   0.00000  Uiso   1.00
C787   C     0.64562   0.12597   0.75280   0.00000  Uiso   1.00
C788   C     0.35438   0.20748   0.74615   0.00000  Uiso   1.00
C789   C     0.62414   0.16667   0.74961   0.00000  Uiso   1.00
C790   C     0.37585   0.16676   0.74972   0.00000  Uiso   1.00
C791   C     0.52747   0.02379   0.77757   0.00000  Uiso   1.00
C792   C     0.47498   0.30945   0.71993   0.00000  Uiso   1.00
C793   C     0.47247   0.02401   0.72254   0.00000  Uiso   1.00
C794   C     0.52495   0.30924   0.78013   0.00000  Uiso   1.00
C795   C     0.50056   0.16668   0.66372   0.00000  Uiso   1.00
C796   C     0.49929   0.16664   0.83626   0.00000  Uiso   1.00
C797   C     0.53212   0.18326   0.90763   0.00000  Uiso   1.00
C798   C     0.46802   0.14814   0.59260   0.00000  Uiso   1.00
C799   C     0.49781   0.16666   0.88385   0.00000  Uiso   1.00
C800   C     0.50179   0.16639   0.61610   0.00000  Uiso   1.00
C801   C     0.46309   0.14968   0.90489   0.00000  Uiso   1.00
C802   C     0.53632   0.18322   0.59469   0.00000  Uiso   1.00
C803   C     0.46226   0.15136   0.95212   0.00000  Uiso   1.00
C804   C     0.53786   0.17874   0.54781   0.00000  Uiso   1.00
C805   C     0.49918   0.16544   0.97656   0.00000  Uiso   1.00
C806   C     0.50111   0.16428   0.52343   0.00000  Uiso   1.00
C807   C     0.53419   0.18117   0.95399   0.00000  Uiso   1.00
C808   C     0.46617   0.14886   0.54616   0.00000  Uiso   1.00
C809   C     0.42658   0.13836   0.97566   0.00000  Uiso   1.00
C810   C     0.57410   0.18965   0.52444   0.00000  Uiso   1.00
H811   H     0.55808   0.19580   0.88925   0.00000  Uiso   1.00
H812   H     0.44223   0.13555   0.61121   0.00000  Uiso   1.00
H813   H     0.37119   0.09427   0.75606   0.00000  Uiso   1.00
H814   H     0.62875   0.23920   0.74342   0.00000  Uiso   1.00
H815   H     0.62971   0.09419   0.75523   0.00000  Uiso   1.00
H816   H     0.37033   0.23924   0.74335   0.00000  Uiso   1.00
N817   N     0.50000   0.28573   0.75000   0.00000  Uiso   1.00
N818   N     0.50000   0.04760   0.75000   0.00000  Uiso   1.00
O819   O     0.43892   0.20487   0.74999   0.00000  Uiso   1.00
O820   O     0.56108   0.12846   0.75000   0.00000  Uiso   1.00
O821   O     0.56108   0.20487   0.75000   0.00000  Uiso   1.00
O822   O     0.43892   0.12846   0.75000   0.00000  Uiso   1.00
O823   O     0.49999   0.20489   0.68392   0.00000  Uiso   1.00
O824   O     0.50001   0.12844   0.81607   0.00000  Uiso   1.00
O825   O     0.50001   0.20489   0.81607   0.00000  Uiso   1.00
O826   O     0.49999   0.12844   0.68392   0.00000  Uiso   1.00
Zn827  Zn    0.50000   0.21771   0.75000   0.00000  Uiso   1.00
Zn828  Zn    0.50000   0.11563   0.75000   0.00000  Uiso   1.00
N829   N     0.42978   0.12957   0.87828   0.00000  Uiso   1.00
H830   H     0.44110   0.10136   0.86198   0.00000  Uiso   1.00
H831   H     0.41849   0.15271   0.85436   0.00000  Uiso   1.00
N832   N     0.56829   0.20685   0.62015   0.00000  Uiso   1.00
H833   H     0.58011   0.18613   0.64599   0.00000  Uiso   1.00
H834   H     0.55531   0.23549   0.63413   0.00000  Uiso   1.00
C835   C     0.38514   0.13210   0.95239   0.00000  Uiso   1.00
H836   H     0.37347   0.15704   0.92850   0.00000  Uiso   1.00
O837   O     0.36409   0.09896   0.95911   0.00000  Uiso   1.00
C838   C     0.61603   0.19342   0.54715   0.00000  Uiso   1.00
H839   H     0.63699   0.22013   0.53831   0.00000  Uiso   1.00
O840   O     0.62829   0.16508   0.57419   0.00000  Uiso   1.00
N841   N     0.39407   0.12229   0.54756   0.00000  Uiso   1.00
H842   H     0.38658   0.08913   0.53948   0.00000  Uiso   1.00
H843   H     0.36879   0.14317   0.53902   0.00000  Uiso   1.00
N844   N     0.60697   0.20626   0.95309   0.00000  Uiso   1.00
H845   H     0.63141   0.18378   0.96013   0.00000  Uiso   1.00
H846   H     0.61606   0.23836   0.96344   0.00000  Uiso   1.00
C847   C     0.56116   0.04765   0.80323   0.00000  Uiso   1.00
H848   H     0.55639   0.08034   0.81715   0.00000  Uiso   1.00
O849   O     0.59576   0.03090   0.80844   0.00000  Uiso   1.00
C850   C     0.45196   0.28536   0.68331   0.00000  Uiso   1.00
H851   H     0.43682   0.25392   0.68914   0.00000  Uiso   1.00
O852   O     0.45030   0.30049   0.64524   0.00000  Uiso   1.00
C853   C     0.43861   0.04812   0.69718   0.00000  Uiso   1.00
H854   H     0.44360   0.08037   0.68234   0.00000  Uiso   1.00
O855   O     0.40371   0.03209   0.69329   0.00000  Uiso   1.00
C856   C     0.54780   0.28491   0.81684   0.00000  Uiso   1.00
H857   H     0.56358   0.25377   0.81089   0.00000  Uiso   1.00
O858   O     0.54864   0.29952   0.85507   0.00000  Uiso   1.00
C859   C     0.75340   0.16671   0.74985   0.00000  Uiso   1.00
C860   C     0.91327   0.16664   0.74995   0.00000  Uiso   1.00
C861   C     0.76268   0.13577   0.52273   0.00000  Uiso   1.00
C862   C     0.90471   0.19297   0.97753   0.00000  Uiso   1.00
C863   C     0.68821   0.12602   0.75308   0.00000  Uiso   1.00
C864   C     0.97843   0.20744   0.74617   0.00000  Uiso   1.00
C865   C     0.97895   0.12597   0.75280   0.00000  Uiso   1.00
C866   C     0.68772   0.20748   0.74615   0.00000  Uiso   1.00
C867   C     0.95747   0.16667   0.74961   0.00000  Uiso   1.00
C868   C     0.70919   0.16676   0.74972   0.00000  Uiso   1.00
C869   C     0.86080   0.02379   0.77757   0.00000  Uiso   1.00
C870   C     0.80832   0.30945   0.71993   0.00000  Uiso   1.00
C871   C     0.80580   0.02401   0.72254   0.00000  Uiso   1.00
C872   C     0.85828   0.30924   0.78013   0.00000  Uiso   1.00
C873   C     0.83390   0.16668   0.66372   0.00000  Uiso   1.00
C874   C     0.83262   0.16664   0.83626   0.00000  Uiso   1.00
C875   C     0.86546   0.18326   0.90763   0.00000  Uiso   1.00
C876   C     0.80135   0.14814   0.59260   0.00000  Uiso   1.00
C877   C     0.83115   0.16666   0.88385   0.00000  Uiso   1.00
C878   C     0.83512   0.16639   0.61610   0.00000  Uiso   1.00
C879   C     0.79643   0.14968   0.90489   0.00000  Uiso   1.00
C880   C     0.86965   0.18322   0.59469   0.00000  Uiso   1.00
C881   C     0.79560   0.15136   0.95212   0.00000  Uiso   1.00
C882   C     0.87120   0.17874   0.54781   0.00000  Uiso   1.00
C883   C     0.83252   0.16544   0.97656   0.00000  Uiso   1.00
C884   C     0.83445   0.16428   0.52343   0.00000  Uiso   1.00
C885   C     0.86752   0.18117   0.95399   0.00000  Uiso   1.00
C886   C     0.79950   0.14886   0.54616   0.00000  Uiso   1.00
C887   C     0.75991   0.13836   0.97566   0.00000  Uiso   1.00
C888   C     0.90743   0.18965   0.52444   0.00000  Uiso   1.00
H889   H     0.89141   0.19580   0.88925   0.00000  Uiso   1.00
H890   H     0.77556   0.13555   0.61121   0.00000  Uiso   1.00
H891   H     0.70452   0.09427   0.75606   0.00000  Uiso   1.00
H892   H     0.96208   0.23920   0.74342   0.00000  Uiso   1.00
H893   H     0.96305   0.09419   0.75523   0.00000  Uiso   1.00
H894   H     0.70367   0.23924   0.74335   0.00000  Uiso   1.00
N895   N     0.83333   0.28573   0.75000   0.00000  Uiso   1.00
N896   N     0.83333   0.04760   0.75000   0.00000  Uiso   1.00
O897   O     0.77226   0.20487   0.74999   0.00000  Uiso   1.00
O898   O     0.89441   0.12846   0.75000   0.00000  Uiso   1.00
O899   O     0.89441   0.20487   0.75000   0.00000  Uiso   1.00
O900   O     0.77226   0.12846   0.75000   0.00000  Uiso   1.00
O901   O     0.83333   0.20489   0.68392   0.00000  Uiso   1.00
O902   O     0.83334   0.12844   0.81607   0.00000  Uiso   1.00
O903   O     0.83334   0.20489   0.81607   0.00000  Uiso   1.00
O904   O     0.83333   0.12844   0.68392   0.00000  Uiso   1.00
Zn905  Zn    0.83333   0.21771   0.75000   0.00000  Uiso   1.00
Zn906  Zn    0.83333   0.11563   0.75000   0.00000  Uiso   1.00
N907   N     0.76311   0.12957   0.87828   0.00000  Uiso   1.00
H908   H     0.77444   0.10136   0.86198   0.00000  Uiso   1.00
H909   H     0.75183   0.15271   0.85436   0.00000  Uiso   1.00
N910   N     0.90163   0.20685   0.62015   0.00000  Uiso   1.00
H911   H     0.91345   0.18613   0.64599   0.00000  Uiso   1.00
H912   H     0.88864   0.23549   0.63413   0.00000  Uiso   1.00
C913   C     0.71847   0.13210   0.95239   0.00000  Uiso   1.00
H914   H     0.70681   0.15704   0.92850   0.00000  Uiso   1.00
O915   O     0.69742   0.09896   0.95911   0.00000  Uiso   1.00
C916   C     0.94936   0.19342   0.54715   0.00000  Uiso   1.00
H917   H     0.97032   0.22013   0.53831   0.00000  Uiso   1.00
O918   O     0.96163   0.16508   0.57419   0.00000  Uiso   1.00
N919   N     0.72740   0.12229   0.54756   0.00000  Uiso   1.00
H920   H     0.71991   0.08913   0.53948   0.00000  Uiso   1.00
H921   H     0.70213   0.14317   0.53902   0.00000  Uiso   1.00
N922   N     0.94031   0.20626   0.95309   0.00000  Uiso   1.00
H923   H     0.96475   0.18378   0.96013   0.00000  Uiso   1.00
H924   H     0.94939   0.23836   0.96344   0.00000  Uiso   1.00
C925   C     0.89450   0.04765   0.80323   0.00000  Uiso   1.00
H926   H     0.88972   0.08034   0.81715   0.00000  Uiso   1.00
O927   O     0.92909   0.03090   0.80844   0.00000  Uiso   1.00
C928   C     0.78529   0.28536   0.68331   0.00000  Uiso   1.00
H929   H     0.77016   0.25392   0.68914   0.00000  Uiso   1.00
O930   O     0.78363   0.30049   0.64524   0.00000  Uiso   1.00
C931   C     0.77194   0.04812   0.69718   0.00000  Uiso   1.00
H932   H     0.77693   0.08037   0.68234   0.00000  Uiso   1.00
O933   O     0.73705   0.03209   0.69329   0.00000  Uiso   1.00
C934   C     0.88114   0.28491   0.81684   0.00000  Uiso   1.00
H935   H     0.89692   0.25377   0.81089   0.00000  Uiso   1.00
O936   O     0.88198   0.29952   0.85507   0.00000  Uiso   1.00
C937   C     0.08673   0.50004   0.74985   0.00000  Uiso   1.00
C938   C     0.24660   0.49997   0.74995   0.00000  Uiso   1.00
C939   C     0.09601   0.46911   0.52273   0.00000  Uiso   1.00
C940   C     0.23804   0.52630   0.97753   0.00000  Uiso   1.00
C941   C     0.02154   0.45935   0.75308   0.00000  Uiso   1.00
C942   C     0.31177   0.54077   0.74617   0.00000  Uiso   1.00
C943   C     0.31228   0.45930   0.75280   0.00000  Uiso   1.00
C944   C     0.02105   0.54081   0.74615   0.00000  Uiso   1.00
C945   C     0.29080   0.50000   0.74961   0.00000  Uiso   1.00
C946   C     0.04252   0.50009   0.74972   0.00000  Uiso   1.00
C947   C     0.19413   0.35713   0.77757   0.00000  Uiso   1.00
C948   C     0.14165   0.64279   0.71993   0.00000  Uiso   1.00
C949   C     0.13914   0.35735   0.72254   0.00000  Uiso   1.00
C950   C     0.19162   0.64257   0.78013   0.00000  Uiso   1.00
C951   C     0.16723   0.50002   0.66372   0.00000  Uiso   1.00
C952   C     0.16596   0.49998   0.83626   0.00000  Uiso   1.00
C953   C     0.19879   0.51659   0.90763   0.00000  Uiso   1.00
C954   C     0.13468   0.48147   0.59260   0.00000  Uiso   1.00
C955   C     0.16448   0.49999   0.88385   0.00000  Uiso   1.00
C956   C     0.16846   0.49972   0.61610   0.00000  Uiso   1.00
C957   C     0.12976   0.48302   0.90489   0.00000  Uiso   1.00
C958   C     0.20298   0.51655   0.59469   0.00000  Uiso   1.00
C959   C     0.12893   0.48469   0.95212   0.00000  Uiso   1.00
C960   C     0.20453   0.51208   0.54781   0.00000  Uiso   1.00
C961   C     0.16585   0.49877   0.97656   0.00000  Uiso   1.00
C962   C     0.16778   0.49761   0.52343   0.00000  Uiso   1.00
C963   C     0.20085   0.51450   0.95399   0.00000  Uiso   1.00
C964   C     0.13283   0.48220   0.54616   0.00000  Uiso   1.00
C965   C     0.09324   0.47169   0.97566   0.00000  Uiso   1.00
C966   C     0.24077   0.52298   0.52444   0.00000  Uiso   1.00
H967   H     0.22475   0.52913   0.88925   0.00000  Uiso   1.00
H968   H     0.10889   0.46889   0.61121   0.00000  Uiso   1.00
H969   H     0.03786   0.42760   0.75606   0.00000  Uiso   1.00
H970   H     0.29542   0.57253   0.74342   0.00000  Uiso   1.00
H971   H     0.29638   0.42752   0.75523   0.00000  Uiso   1.00
H972   H     0.03700   0.57258   0.74335   0.00000  Uiso   1.00
N973   N     0.16667   0.61907   0.75000   0.00000  Uiso   1.00
N974   N     0.16667   0.38093   0.75000   0.00000  Uiso   1.00
O975   O     0.10559   0.53821   0.74999   0.00000  Uiso   1.00
O976   O     0.22774   0.46179   0.75000   0.00000  Uiso   1.00
O977   O     0.22774   0.53821   0.75000   0.00000  Uiso   1.00
O978   O     0.10559   0.46179   0.75000   0.00000  Uiso   1.00
O979   O     0.16666   0.53823   0.68392   0.00000  Uiso   1.00
O980   O     0.16667   0.46177   0.81607   0.00000  Uiso   1.00
O981   O     0.16667   0.53823   0.81607   0.00000  Uiso   1.00
O982   O     0.16666   0.46177   0.68392   0.00000  Uiso   1.00
Zn983  Zn    0.16667   0.55104   0.75000   0.00000  Uiso   1.00
Zn984  Zn    0.16667   0.44896   0.75000   0.00000  Uiso   1.00
N985   N     0.09645   0.46290   0.87828   0.00000  Uiso   1.00
H986   H     0.10777   0.43469   0.86198   0.00000  Uiso   1.00
H987   H     0.08516   0.48604   0.85436   0.00000  Uiso   1.00
N988   N     0.23496   0.54018   0.62015   0.00000  Uiso   1.00
H989   H     0.24678   0.51947   0.64599   0.00000  Uiso   1.00
H990   H     0.22198   0.56882   0.63413   0.00000  Uiso   1.00
C991   C     0.05181   0.46543   0.95239   0.00000  Uiso   1.00
H992   H     0.04014   0.49038   0.92850   0.00000  Uiso   1.00
O993   O     0.03076   0.43230   0.95911   0.00000  Uiso   1.00
C994   C     0.28269   0.52675   0.54715   0.00000  Uiso   1.00
H995   H     0.30366   0.55346   0.53831   0.00000  Uiso   1.00
O996   O     0.29496   0.49842   0.57419   0.00000  Uiso   1.00
N997   N     0.06073   0.45563   0.54756   0.00000  Uiso   1.00
H998   H     0.05324   0.42247   0.53948   0.00000  Uiso   1.00
H999   H     0.03546   0.47650   0.53902   0.00000  Uiso   1.00
N1000  N     0.27364   0.53959   0.95309   0.00000  Uiso   1.00
H1001  H     0.29808   0.51712   0.96013   0.00000  Uiso   1.00
H1002  H     0.28272   0.57170   0.96344   0.00000  Uiso   1.00
C1003  C     0.22783   0.38098   0.80323   0.00000  Uiso   1.00
H1004  H     0.22306   0.41367   0.81715   0.00000  Uiso   1.00
O1005  O     0.26242   0.36423   0.80844   0.00000  Uiso   1.00
C1006  C     0.11863   0.61870   0.68331   0.00000  Uiso   1.00
H1007  H     0.10349   0.58725   0.68914   0.00000  Uiso   1.00
O1008  O     0.11696   0.63383   0.64524   0.00000  Uiso   1.00
C1009  C     0.10528   0.38145   0.69718   0.00000  Uiso   1.00
H1010  H     0.11026   0.41370   0.68234   0.00000  Uiso   1.00
O1011  O     0.07038   0.36543   0.69329   0.00000  Uiso   1.00
C1012  C     0.21447   0.61824   0.81684   0.00000  Uiso   1.00
H1013  H     0.23025   0.58710   0.81089   0.00000  Uiso   1.00
O1014  O     0.21531   0.63285   0.85507   0.00000  Uiso   1.00
C1015  C     0.42006   0.50004   0.74985   0.00000  Uiso   1.00
C1016  C     0.57994   0.49997   0.74995   0.00000  Uiso   1.00
C1017  C     0.42935   0.46911   0.52273   0.00000  Uiso   1.00
C1018  C     0.57138   0.52630   0.97753   0.00000  Uiso   1.00
C1019  C     0.35488   0.45935   0.75308   0.00000  Uiso   1.00
C1020  C     0.64510   0.54077   0.74617   0.00000  Uiso   1.00
C1021  C     0.64562   0.45930   0.75280   0.00000  Uiso   1.00
C1022  C     0.35438   0.54081   0.74615   0.00000  Uiso   1.00
C1023  C     0.62414   0.50000   0.74961   0.00000  Uiso   1.00
C1024  C     0.37585   0.50009   0.74972   0.00000  Uiso   1.00
C1025  C     0.52747   0.35713   0.77757   0.00000  Uiso   1.00
C1026  C     0.47498   0.64279   0.71993   0.00000  Uiso   1.00
C1027  C     0.47247   0.35735   0.72254   0.00000  Uiso   1.00
C1028  C     0.52495   0.64257   0.78013   0.00000  Uiso   1.00
C1029  C     0.50056   0.50002   0.66372   0.00000  Uiso   1.00
C1030  C     0.49929   0.49998   0.83626   0.00000  Uiso   1.00
C1031  C     0.53212   0.51659   0.90763   0.00000  Uiso   1.00
C1032  C     0.46802   0.48147   0.59260   0.00000  Uiso   1.00
C1033  C     0.49781   0.49999   0.88385   0.00000  Uiso   1.00
C1034  C     0.50179   0.49972   0.61610   0.00000  Uiso   1.00
C1035  C     0.46309   0.48302   0.90489   0.00000  Uiso   1.00
C1036  C     0.53632   0.51655   0.59469   0.00000  Uiso   1.00
C1037  C     0.46226   0.48469   0.95212   0.00000  Uiso   1.00
C1038  C     0.53786   0.51208   0.54781   0.00000  Uiso   1.00
C1039  C     0.49918   0.49877   0.97656   0.00000  Uiso   1.00
C1040  C     0.50111   0.49761   0.52343   0.00000  Uiso   1.00
C1041  C     0.53419   0.51450   0.95399   0.00000  Uiso   1.00
C1042  C     0.46617   0.48220   0.54616   0.00000  Uiso   1.00
C1043  C     0.42658   0.47169   0.97566   0.00000  Uiso   1.00
C1044  C     0.57410   0.52298   0.52444   0.00000  Uiso   1.00
H1045  H     0.55808   0.52913   0.88925   0.00000  Uiso   1.00
H1046  H     0.44223   0.46889   0.61121   0.00000  Uiso   1.00
H1047  H     0.37119   0.42760   0.75606   0.00000  Uiso   1.00
H1048  H     0.62875   0.57253   0.74342   0.00000  Uiso   1.00
H1049  H     0.62971   0.42752   0.75523   0.00000  Uiso   1.00
H1050  H     0.37033   0.57258   0.74335   0.00000  Uiso   1.00
N1051  N     0.50000   0.61907   0.75000   0.00000  Uiso   1.00
N1052  N     0.50000   0.38093   0.75000   0.00000  Uiso   1.00
O1053  O     0.43892   0.53821   0.74999   0.00000  Uiso   1.00
O1054  O     0.56108   0.46179   0.75000   0.00000  Uiso   1.00
O1055  O     0.56108   0.53821   0.75000   0.00000  Uiso   1.00
O1056  O     0.43892   0.46179   0.75000   0.00000  Uiso   1.00
O1057  O     0.49999   0.53823   0.68392   0.00000  Uiso   1.00
O1058  O     0.50001   0.46177   0.81607   0.00000  Uiso   1.00
O1059  O     0.50001   0.53823   0.81607   0.00000  Uiso   1.00
O1060  O     0.49999   0.46177   0.68392   0.00000  Uiso   1.00
Zn1061 Zn    0.50000   0.55104   0.75000   0.00000  Uiso   1.00
Zn1062 Zn    0.50000   0.44896   0.75000   0.00000  Uiso   1.00
N1063  N     0.42978   0.46290   0.87828   0.00000  Uiso   1.00
H1064  H     0.44110   0.43469   0.86198   0.00000  Uiso   1.00
H1065  H     0.41849   0.48604   0.85436   0.00000  Uiso   1.00
N1066  N     0.56829   0.54018   0.62015   0.00000  Uiso   1.00
H1067  H     0.58011   0.51947   0.64599   0.00000  Uiso   1.00
H1068  H     0.55531   0.56882   0.63413   0.00000  Uiso   1.00
C1069  C     0.38514   0.46543   0.95239   0.00000  Uiso   1.00
H1070  H     0.37347   0.49038   0.92850   0.00000  Uiso   1.00
O1071  O     0.36409   0.43230   0.95911   0.00000  Uiso   1.00
C1072  C     0.61603   0.52675   0.54715   0.00000  Uiso   1.00
H1073  H     0.63699   0.55346   0.53831   0.00000  Uiso   1.00
O1074  O     0.62829   0.49842   0.57419   0.00000  Uiso   1.00
N1075  N     0.39407   0.45563   0.54756   0.00000  Uiso   1.00
H1076  H     0.38658   0.42247   0.53948   0.00000  Uiso   1.00
H1077  H     0.36879   0.47650   0.53902   0.00000  Uiso   1.00
N1078  N     0.60697   0.53959   0.95309   0.00000  Uiso   1.00
H1079  H     0.63141   0.51712   0.96013   0.00000  Uiso   1.00
H1080  H     0.61606   0.57170   0.96344   0.00000  Uiso   1.00
C1081  C     0.56116   0.38098   0.80323   0.00000  Uiso   1.00
H1082  H     0.55639   0.41367   0.81715   0.00000  Uiso   1.00
O1083  O     0.59576   0.36423   0.80844   0.00000  Uiso   1.00
C1084  C     0.45196   0.61870   0.68331   0.00000  Uiso   1.00
H1085  H     0.43682   0.58725   0.68914   0.00000  Uiso   1.00
O1086  O     0.45030   0.63383   0.64524   0.00000  Uiso   1.00
C1087  C     0.43861   0.38145   0.69718   0.00000  Uiso   1.00
H1088  H     0.44360   0.41370   0.68234   0.00000  Uiso   1.00
O1089  O     0.40371   0.36543   0.69329   0.00000  Uiso   1.00
C1090  C     0.54780   0.61824   0.81684   0.00000  Uiso   1.00
H1091  H     0.56358   0.58710   0.81089   0.00000  Uiso   1.00
O1092  O     0.54864   0.63285   0.85507   0.00000  Uiso   1.00
C1093  C     0.75340   0.50004   0.74985   0.00000  Uiso   1.00
C1094  C     0.91327   0.49997   0.74995   0.00000  Uiso   1.00
C1095  C     0.76268   0.46911   0.52273   0.00000  Uiso   1.00
C1096  C     0.90471   0.52630   0.97753   0.00000  Uiso   1.00
C1097  C     0.68821   0.45935   0.75308   0.00000  Uiso   1.00
C1098  C     0.97843   0.54077   0.74617   0.00000  Uiso   1.00
C1099  C     0.97895   0.45930   0.75280   0.00000  Uiso   1.00
C1100  C     0.68772   0.54081   0.74615   0.00000  Uiso   1.00
C1101  C     0.95747   0.50000   0.74961   0.00000  Uiso   1.00
C1102  C     0.70919   0.50009   0.74972   0.00000  Uiso   1.00
C1103  C     0.86080   0.35713   0.77757   0.00000  Uiso   1.00
C1104  C     0.80832   0.64279   0.71993   0.00000  Uiso   1.00
C1105  C     0.80580   0.35735   0.72254   0.00000  Uiso   1.00
C1106  C     0.85828   0.64257   0.78013   0.00000  Uiso   1.00
C1107  C     0.83390   0.50002   0.66372   0.00000  Uiso   1.00
C1108  C     0.83262   0.49998   0.83626   0.00000  Uiso   1.00
C1109  C     0.86546   0.51659   0.90763   0.00000  Uiso   1.00
C1110  C     0.80135   0.48147   0.59260   0.00000  Uiso   1.00
C1111  C     0.83115   0.49999   0.88385   0.00000  Uiso   1.00
C1112  C     0.83512   0.49972   0.61610   0.00000  Uiso   1.00
C1113  C     0.79643   0.48302   0.90489   0.00000  Uiso   1.00
C1114  C     0.86965   0.51655   0.59469   0.00000  Uiso   1.00
C1115  C     0.79560   0.48469   0.95212   0.00000  Uiso   1.00
C1116  C     0.87120   0.51208   0.54781   0.00000  Uiso   1.00
C1117  C     0.83252   0.49877   0.97656   0.00000  Uiso   1.00
C1118  C     0.83445   0.49761   0.52343   0.00000  Uiso   1.00
C1119  C     0.86752   0.51450   0.95399   0.00000  Uiso   1.00
C1120  C     0.79950   0.48220   0.54616   0.00000  Uiso   1.00
C1121  C     0.75991   0.47169   0.97566   0.00000  Uiso   1.00
C1122  C     0.90743   0.52298   0.52444   0.00000  Uiso   1.00
H1123  H     0.89141   0.52913   0.88925   0.00000  Uiso   1.00
H1124  H     0.77556   0.46889   0.61121   0.00000  Uiso   1.00
H1125  H     0.70452   0.42760   0.75606   0.00000  Uiso   1.00
H1126  H     0.96208   0.57253   0.74342   0.00000  Uiso   1.00
H1127  H     0.96305   0.42752   0.75523   0.00000  Uiso   1.00
H1128  H     0.70367   0.57258   0.74335   0.00000  Uiso   1.00
N1129  N     0.83333   0.61907   0.75000   0.00000  Uiso   1.00
N1130  N     0.83333   0.38093   0.75000   0.00000  Uiso   1.00
O1131  O     0.77226   0.53821   0.74999   0.00000  Uiso   1.00
O1132  O     0.89441   0.46179   0.75000   0.00000  Uiso   1.00
O1133  O     0.89441   0.53821   0.75000   0.00000  Uiso   1.00
O1134  O     0.77226   0.46179   0.75000   0.00000  Uiso   1.00
O1135  O     0.83333   0.53823   0.68392   0.00000  Uiso   1.00
O1136  O     0.83334   0.46177   0.81607   0.00000  Uiso   1.00
O1137  O     0.83334   0.53823   0.81607   0.00000  Uiso   1.00
O1138  O     0.83333   0.46177   0.68392   0.00000  Uiso   1.00
Zn1139 Zn    0.83333   0.55104   0.75000   0.00000  Uiso   1.00
Zn1140 Zn    0.83333   0.44896   0.75000   0.00000  Uiso   1.00
N1141  N     0.76311   0.46290   0.87828   0.00000  Uiso   1.00
H1142  H     0.77444   0.43469   0.86198   0.00000  Uiso   1.00
H1143  H     0.75183   0.48604   0.85436   0.00000  Uiso   1.00
N1144  N     0.90163   0.54018   0.62015   0.00000  Uiso   1.00
H1145  H     0.91345   0.51947   0.64599   0.00000  Uiso   1.00
H1146  H     0.88864   0.56882   0.63413   0.00000  Uiso   1.00
C1147  C     0.71847   0.46543   0.95239   0.00000  Uiso   1.00
H1148  H     0.70681   0.49038   0.92850   0.00000  Uiso   1.00
O1149  O     0.69742   0.43230   0.95911   0.00000  Uiso   1.00
C1150  C     0.94936   0.52675   0.54715   0.00000  Uiso   1.00
H1151  H     0.97032   0.55346   0.53831   0.00000  Uiso   1.00
O1152  O     0.96163   0.49842   0.57419   0.00000  Uiso   1.00
N1153  N     0.72740   0.45563   0.54756   0.00000  Uiso   1.00
H1154  H     0.71991   0.42247   0.53948   0.00000  Uiso   1.00
H1155  H     0.70213   0.47650   0.53902   0.00000  Uiso   1.00
N1156  N     0.94031   0.53959   0.95309   0.00000  Uiso   1.00
H1157  H     0.96475   0.51712   0.96013   0.00000  Uiso   1.00
H1158  H     0.94939   0.57170   0.96344   0.00000  Uiso   1.00
C1159  C     0.89450   0.38098   0.80323   0.00000  Uiso   1.00
H1160  H     0.88972   0.41367   0.81715   0.00000  Uiso   1.00
O1161  O     0.92909   0.36423   0.80844   0.00000  Uiso   1.00
C1162  C     0.78529   0.61870   0.68331   0.00000  Uiso   1.00
H1163  H     0.77016   0.58725   0.68914   0.00000  Uiso   1.00
O1164  O     0.78363   0.63383   0.64524   0.00000  Uiso   1.00
C1165  C     0.77194   0.38145   0.69718   0.00000  Uiso   1.00
H1166  H     0.77693   0.41370   0.68234   0.00000  Uiso   1.00
O1167  O     0.73705   0.36543   0.69329   0.00000  Uiso   1.00
C1168  C     0.88114   0.61824   0.81684   0.00000  Uiso   1.00
H1169  H     0.89692   0.58710   0.81089   0.00000  Uiso   1.00
O1170  O     0.88198   0.63285   0.85507   0.00000  Uiso   1.00
C1171  C     0.08673   0.83338   0.74985   0.00000  Uiso   1.00
C1172  C     0.24660   0.83331   0.74995   0.00000  Uiso   1.00
C1173  C     0.09601   0.80244   0.52273   0.00000  Uiso   1.00
C1174  C     0.23804   0.85963   0.97753   0.00000  Uiso   1.00
C1175  C     0.02154   0.79268   0.75308   0.00000  Uiso   1.00
C1176  C     0.31177   0.87411   0.74617   0.00000  Uiso   1.00
C1177  C     0.31228   0.79263   0.75280   0.00000  Uiso   1.00
C1178  C     0.02105   0.87415   0.74615   0.00000  Uiso   1.00
C1179  C     0.29080   0.83334   0.74961   0.00000  Uiso   1.00
C1180  C     0.04252   0.83343   0.74972   0.00000  Uiso   1.00
C1181  C     0.19413   0.69046   0.77757   0.00000  Uiso   1.00
C1182  C     0.14165   0.97612   0.71993   0.00000  Uiso   1.00
C1183  C     0.13914   0.69068   0.72254   0.00000  Uiso   1.00
C1184  C     0.19162   0.97590   0.78013   0.00000  Uiso   1.00
C1185  C     0.16723   0.83335   0.66372   0.00000  Uiso   1.00
C1186  C     0.16596   0.83331   0.83626   0.00000  Uiso   1.00
C1187  C     0.19879   0.84992   0.90763   0.00000  Uiso   1.00
C1188  C     0.13468   0.81481   0.59260   0.00000  Uiso   1.00
C1189  C     0.16448   0.83332   0.88385   0.00000  Uiso   1.00
C1190  C     0.16846   0.83305   0.61610   0.00000  Uiso   1.00
C1191  C     0.12976   0.81635   0.90489   0.00000  Uiso   1.00
C1192  C     0.20298   0.84988   0.59469   0.00000  Uiso   1.00
C1193  C     0.12893   0.81802   0.95212   0.00000  Uiso   1.00
C1194  C     0.20453   0.84541   0.54781   0.00000  Uiso   1.00
C1195  C     0.16585   0.83211   0.97656   0.00000  Uiso   1.00
C1196  C     0.16778   0.83095   0.52343   0.00000  Uiso   1.00
C1197  C     0.20085   0.84784   0.95399   0.00000  Uiso   1.00
C1198  C     0.13283   0.81553   0.54616   0.00000  Uiso   1.00
C1199  C     0.09324   0.80502   0.97566   0.00000  Uiso   1.00
C1200  C     0.24077   0.85632   0.52444   0.00000  Uiso   1.00
H1201  H     0.22475   0.86246   0.88925   0.00000  Uiso   1.00
H1202  H     0.10889   0.80222   0.61121   0.00000  Uiso   1.00
H1203  H     0.03786   0.76094   0.75606   0.00000  Uiso   1.00
H1204  H     0.29542   0.90587   0.74342   0.00000  Uiso   1.00
H1205  H     0.29638   0.76086   0.75523   0.00000  Uiso   1.00
H1206  H     0.03700   0.90591   0.74335   0.00000  Uiso   1.00
N1207  N     0.16667   0.95240   0.75000   0.00000  Uiso   1.00
N1208  N     0.16667   0.71427   0.75000   0.00000  Uiso   1.00
O1209  O     0.10559   0.87154   0.74999   0.00000  Uiso   1.00
O1210  O     0.22774   0.79513   0.75000   0.00000  Uiso   1.00
O1211  O     0.22774   0.87154   0.75000   0.00000  Uiso   1.00
O1212  O     0.10559   0.79513   0.75000   0.00000  Uiso   1.00
O1213  O     0.16666   0.87156   0.68392   0.00000  Uiso   1.00
O1214  O     0.16667   0.79511   0.81607   0.00000  Uiso   1.00
O1215  O     0.16667   0.87156   0.81607   0.00000  Uiso   1.00
O1216  O     0.16666   0.79511   0.68392   0.00000  Uiso   1.00
Zn1217 Zn    0.16667   0.88437   0.75000   0.00000  Uiso   1.00
Zn1218 Zn    0.16667   0.78229   0.75000   0.00000  Uiso   1.00
N1219  N     0.09645   0.79623   0.87828   0.00000  Uiso   1.00
H1220  H     0.10777   0.76802   0.86198   0.00000  Uiso   1.00
H1221  H     0.08516   0.81937   0.85436   0.00000  Uiso   1.00
N1222  N     0.23496   0.87351   0.62015   0.00000  Uiso   1.00
H1223  H     0.24678   0.85280   0.64599   0.00000  Uiso   1.00
H1224  H     0.22198   0.90216   0.63413   0.00000  Uiso   1.00
C1225  C     0.05181   0.79876   0.95239   0.00000  Uiso   1.00
H1226  H     0.04014   0.82371   0.92850   0.00000  Uiso   1.00
O1227  O     0.03076   0.76563   0.95911   0.00000  Uiso   1.00
C1228  C     0.28269   0.86008   0.54715   0.00000  Uiso   1.00
H1229  H     0.30366   0.88680   0.53831   0.00000  Uiso   1.00
O1230  O     0.29496   0.83175   0.57419   0.00000  Uiso   1.00
N1231  N     0.06073   0.78896   0.54756   0.00000  Uiso   1.00
H1232  H     0.05324   0.75580   0.53948   0.00000  Uiso   1.00
H1233  H     0.03546   0.80983   0.53902   0.00000  Uiso   1.00
N1234  N     0.27364   0.87292   0.95309   0.00000  Uiso   1.00
H1235  H     0.29808   0.85045   0.96013   0.00000  Uiso   1.00
H1236  H     0.28272   0.90503   0.96344   0.00000  Uiso   1.00
C1237  C     0.22783   0.71432   0.80323   0.00000  Uiso   1.00
H1238  H     0.22306   0.74701   0.81715   0.00000  Uiso   1.00
O1239  O     0.26242   0.69757   0.80844   0.00000  Uiso   1.00
C1240  C     0.11863   0.95203   0.68331   0.00000  Uiso   1.00
H1241  H     0.10349   0.92059   0.68914   0.00000  Uiso   1.00
O1242  O     0.11696   0.96716   0.64524   0.00000  Uiso   1.00
C1243  C     0.10528   0.71479   0.69718   0.00000  Uiso   1.00
H1244  H     0.11026   0.74703   0.68234   0.00000  Uiso   1.00
O1245  O     0.07038   0.69876   0.69329   0.00000  Uiso   1.00
C1246  C     0.21447   0.95157   0.81684   0.00000  Uiso   1.00
H1247  H     0.23025   0.92044   0.81089   0.00000  Uiso   1.00
O1248  O     0.21531   0.96619   0.85507   0.00000  Uiso   1.00
C1249  C     0.42006   0.83338   0.74985   0.00000  Uiso   1.00
C1250  C     0.57994   0.83331   0.74995   0.00000  Uiso   1.00
C1251  C     0.42935   0.80244   0.52273   0.00000  Uiso   1.00
C1252  C     0.57138   0.85963   0.97753   0.00000  Uiso   1.00
C1253  C     0.35488   0.79268   0.75308   0.00000  Uiso   1.00
C1254  C     0.64510   0.87411   0.74617   0.00000  Uiso   1.00
C1255  C     0.64562   0.79263   0.75280   0.00000  Uiso   1.00
C1256  C     0.35438   0.87415   0.74615   0.00000  Uiso   1.00
C1257  C     0.62414   0.83334   0.74961   0.00000  Uiso   1.00
C1258  C     0.37585   0.83343   0.74972   0.00000  Uiso   1.00
C1259  C     0.52747   0.69046   0.77757   0.00000  Uiso   1.00
C1260  C     0.47498   0.97612   0.71993   0.00000  Uiso   1.00
C1261  C     0.47247   0.69068   0.72254   0.00000  Uiso   1.00
C1262  C     0.52495   0.97590   0.78013   0.00000  Uiso   1.00
C1263  C     0.50056   0.83335   0.66372   0.00000  Uiso   1.00
C1264  C     0.49929   0.83331   0.83626   0.00000  Uiso   1.00
C1265  C     0.53212   0.84992   0.90763   0.00000  Uiso   1.00
C1266  C     0.46802   0.81481   0.59260   0.00000  Uiso   1.00
C1267  C     0.49781   0.83332   0.88385   0.00000  Uiso   1.00
C1268  C     0.50179   0.83305   0.61610   0.00000  Uiso   1.00
C1269  C     0.46309   0.81635   0.90489   0.00000  Uiso   1.00
C1270  C     0.53632   0.84988   0.59469   0.00000  Uiso   1.00
C1271  C     0.46226   0.81802   0.95212   0.00000  Uiso   1.00
C1272  C     0.53786   0.84541   0.54781   0.00000  Uiso   1.00
C1273  C     0.49918   0.83211   0.97656   0.00000  Uiso   1.00
C1274  C     0.50111   0.83095   0.52343   0.00000  Uiso   1.00
C1275  C     0.53419   0.84784   0.95399   0.00000  Uiso   1.00
C1276  C     0.46617   0.81553   0.54616   0.00000  Uiso   1.00
C1277  C     0.42658   0.80502   0.97566   0.00000  Uiso   1.00
C1278  C     0.57410   0.85632   0.52444   0.00000  Uiso   1.00
H1279  H     0.55808   0.86246   0.88925   0.00000  Uiso   1.00
H1280  H     0.44223   0.80222   0.61121   0.00000  Uiso   1.00
H1281  H     0.37119   0.76094   0.75606   0.00000  Uiso   1.00
H1282  H     0.62875   0.90587   0.74342   0.00000  Uiso   1.00
H1283  H     0.62971   0.76086   0.75523   0.00000  Uiso   1.00
H1284  H     0.37033   0.90591   0.74335   0.00000  Uiso   1.00
N1285  N     0.50000   0.95240   0.75000   0.00000  Uiso   1.00
N1286  N     0.50000   0.71427   0.75000   0.00000  Uiso   1.00
O1287  O     0.43892   0.87154   0.74999   0.00000  Uiso   1.00
O1288  O     0.56108   0.79513   0.75000   0.00000  Uiso   1.00
O1289  O     0.56108   0.87154   0.75000   0.00000  Uiso   1.00
O1290  O     0.43892   0.79513   0.75000   0.00000  Uiso   1.00
O1291  O     0.49999   0.87156   0.68392   0.00000  Uiso   1.00
O1292  O     0.50001   0.79511   0.81607   0.00000  Uiso   1.00
O1293  O     0.50001   0.87156   0.81607   0.00000  Uiso   1.00
O1294  O     0.49999   0.79511   0.68392   0.00000  Uiso   1.00
Zn1295 Zn    0.50000   0.88437   0.75000   0.00000  Uiso   1.00
Zn1296 Zn    0.50000   0.78229   0.75000   0.00000  Uiso   1.00
N1297  N     0.42978   0.79623   0.87828   0.00000  Uiso   1.00
H1298  H     0.44110   0.76802   0.86198   0.00000  Uiso   1.00
H1299  H     0.41849   0.81937   0.85436   0.00000  Uiso   1.00
N1300  N     0.56829   0.87351   0.62015   0.00000  Uiso   1.00
H1301  H     0.58011   0.85280   0.64599   0.00000  Uiso   1.00
H1302  H     0.55531   0.90216   0.63413   0.00000  Uiso   1.00
C1303  C     0.38514   0.79876   0.95239   0.00000  Uiso   1.00
H1304  H     0.37347   0.82371   0.92850   0.00000  Uiso   1.00
O1305  O     0.36409   0.76563   0.95911   0.00000  Uiso   1.00
C1306  C     0.61603   0.86008   0.54715   0.00000  Uiso   1.00
H1307  H     0.63699   0.88680   0.53831   0.00000  Uiso   1.00
O1308  O     0.62829   0.83175   0.57419   0.00000  Uiso   1.00
N1309  N     0.39407   0.78896   0.54756   0.00000  Uiso   1.00
H1310  H     0.38658   0.75580   0.53948   0.00000  Uiso   1.00
H1311  H     0.36879   0.80983   0.53902   0.00000  Uiso   1.00
N1312  N     0.60697   0.87292   0.95309   0.00000  Uiso   1.00
H1313  H     0.63141   0.85045   0.96013   0.00000  Uiso   1.00
H1314  H     0.61606   0.90503   0.96344   0.00000  Uiso   1.00
C1315  C     0.56116   0.71432   0.80323   0.00000  Uiso   1.00
H1316  H     0.55639   0.74701   0.81715   0.00000  Uiso   1.00
O1317  O     0.59576   0.69757   0.80844   0.00000  Uiso   1.00
C1318  C     0.45196   0.95203   0.68331   0.00000  Uiso   1.00
H1319  H     0.43682   0.92059   0.68914   0.00000  Uiso   1.00
O1320  O     0.45030   0.96716   0.64524   0.00000  Uiso   1.00
C1321  C     0.43861   0.71479   0.69718   0.00000  Uiso   1.00
H1322  H     0.44360   0.74703   0.68234   0.00000  Uiso   1.00
O1323  O     0.40371   0.69876   0.69329   0.00000  Uiso   1.00
C1324  C     0.54780   0.95157   0.81684   0.00000  Uiso   1.00
H1325  H     0.56358   0.92044   0.81089   0.00000  Uiso   1.00
O1326  O     0.54864   0.96619   0.85507   0.00000  Uiso   1.00
C1327  C     0.75340   0.83338   0.74985   0.00000  Uiso   1.00
C1328  C     0.91327   0.83331   0.74995   0.00000  Uiso   1.00
C1329  C     0.76268   0.80244   0.52273   0.00000  Uiso   1.00
C1330  C     0.90471   0.85963   0.97753   0.00000  Uiso   1.00
C1331  C     0.68821   0.79268   0.75308   0.00000  Uiso   1.00
C1332  C     0.97843   0.87411   0.74617   0.00000  Uiso   1.00
C1333  C     0.97895   0.79263   0.75280   0.00000  Uiso   1.00
C1334  C     0.68772   0.87415   0.74615   0.00000  Uiso   1.00
C1335  C     0.95747   0.83334   0.74961   0.00000  Uiso   1.00
C1336  C     0.70919   0.83343   0.74972   0.00000  Uiso   1.00
C1337  C     0.86080   0.69046   0.77757   0.00000  Uiso   1.00
C1338  C     0.80832   0.97612   0.71993   0.00000  Uiso   1.00
C1339  C     0.80580   0.69068   0.72254   0.00000  Uiso   1.00
C1340  C     0.85828   0.97590   0.78013   0.00000  Uiso   1.00
C1341  C     0.83390   0.83335   0.66372   0.00000  Uiso   1.00
C1342  C     0.83262   0.83331   0.83626   0.00000  Uiso   1.00
C1343  C     0.86546   0.84992   0.90763   0.00000  Uiso   1.00
C1344  C     0.80135   0.81481   0.59260   0.00000  Uiso   1.00
C1345  C     0.83115   0.83332   0.88385   0.00000  Uiso   1.00
C1346  C     0.83512   0.83305   0.61610   0.00000  Uiso   1.00
C1347  C     0.79643   0.81635   0.90489   0.00000  Uiso   1.00
C1348  C     0.86965   0.84988   0.59469   0.00000  Uiso   1.00
C1349  C     0.79560   0.81802   0.95212   0.00000  Uiso   1.00
C1350  C     0.87120   0.84541   0.54781   0.00000  Uiso   1.00
C1351  C     0.83252   0.83211   0.97656   0.00000  Uiso   1.00
C1352  C     0.83445   0.83095   0.52343   0.00000  Uiso   1.00
C1353  C     0.86752   0.84784   0.95399   0.00000  Uiso   1.00
C1354  C     0.79950   0.81553   0.54616   0.00000  Uiso   1.00
C1355  C     0.75991   0.80502   0.97566   0.00000  Uiso   1.00
C1356  C     0.90743   0.85632   0.52444   0.00000  Uiso   1.00
H1357  H     0.89141   0.86246   0.88925   0.00000  Uiso   1.00
H1358  H     0.77556   0.80222   0.61121   0.00000  Uiso   1.00
H1359  H     0.70452   0.76094   0.75606   0.00000  Uiso   1.00
H1360  H     0.96208   0.90587   0.74342   0.00000  Uiso   1.00
H1361  H     0.96305   0.76086   0.75523   0.00000  Uiso   1.00
H1362  H     0.70367   0.90591   0.74335   0.00000  Uiso   1.00
N1363  N     0.83333   0.95240   0.75000   0.00000  Uiso   1.00
N1364  N     0.83333   0.71427   0.75000   0.00000  Uiso   1.00
O1365  O     0.77226   0.87154   0.74999   0.00000  Uiso   1.00
O1366  O     0.89441   0.79513   0.75000   0.00000  Uiso   1.00
O1367  O     0.89441   0.87154   0.75000   0.00000  Uiso   1.00
O1368  O     0.77226   0.79513   0.75000   0.00000  Uiso   1.00
O1369  O     0.83333   0.87156   0.68392   0.00000  Uiso   1.00
O1370  O     0.83334   0.79511   0.81607   0.00000  Uiso   1.00
O1371  O     0.83334   0.87156   0.81607   0.00000  Uiso   1.00
O1372  O     0.83333   0.79511   0.68392   0.00000  Uiso   1.00
Zn1373 Zn    0.83333   0.88437   0.75000   0.00000  Uiso   1.00
Zn1374 Zn    0.83333   0.78229   0.75000   0.00000  Uiso   1.00
N1375  N     0.76311   0.79623   0.87828   0.00000  Uiso   1.00
H1376  H     0.77444   0.76802   0.86198   0.00000  Uiso   1.00
H1377  H     0.75183   0.81937   0.85436   0.00000  Uiso   1.00
N1378  N     0.90163   0.87351   0.62015   0.00000  Uiso   1.00
H1379  H     0.91345   0.85280   0.64599   0.00000  Uiso   1.00
H1380  H     0.88864   0.90216   0.63413   0.00000  Uiso   1.00
C1381  C     0.71847   0.79876   0.95239   0.00000  Uiso   1.00
H1382  H     0.70681   0.82371   0.92850   0.00000  Uiso   1.00
O1383  O     0.69742   0.76563   0.95911   0.00000  Uiso   1.00
C1384  C     0.94936   0.86008   0.54715   0.00000  Uiso   1.00
H1385  H     0.97032   0.88680   0.53831   0.00000  Uiso   1.00
O1386  O     0.96163   0.83175   0.57419   0.00000  Uiso   1.00
N1387  N     0.72740   0.78896   0.54756   0.00000  Uiso   1.00
H1388  H     0.71991   0.75580   0.53948   0.00000  Uiso   1.00
H1389  H     0.70213   0.80983   0.53902   0.00000  Uiso   1.00
N1390  N     0.94031   0.87292   0.95309   0.00000  Uiso   1.00
H1391  H     0.96475   0.85045   0.96013   0.00000  Uiso   1.00
H1392  H     0.94939   0.90503   0.96344   0.00000  Uiso   1.00
C1393  C     0.89450   0.71432   0.80323   0.00000  Uiso   1.00
H1394  H     0.88972   0.74701   0.81715   0.00000  Uiso   1.00
O1395  O     0.92909   0.69757   0.80844   0.00000  Uiso   1.00
C1396  C     0.78529   0.95203   0.68331   0.00000  Uiso   1.00
H1397  H     0.77016   0.92059   0.68914   0.00000  Uiso   1.00
O1398  O     0.78363   0.96716   0.64524   0.00000  Uiso   1.00
C1399  C     0.77194   0.71479   0.69718   0.00000  Uiso   1.00
H1400  H     0.77693   0.74703   0.68234   0.00000  Uiso   1.00
O1401  O     0.73705   0.69876   0.69329   0.00000  Uiso   1.00
C1402  C     0.88114   0.95157   0.81684   0.00000  Uiso   1.00
H1403  H     0.89692   0.92044   0.81089   0.00000  Uiso   1.00
O1404  O     0.88198   0.96619   0.85507   0.00000  Uiso   1.00
loop_
_geom_bond_atom_site_label_1
_geom_bond_atom_site_label_2
_geom_bond_distance
_geom_bond_site_symmetry_2
_ccdc_geom_bond_type
C1     C10     1.421   .     S
C1     O39     1.291   .     A
C1     O42     1.291   .     A
C2     O41     1.290   .     A
C2     O40     1.292   .     A
C2     C9      1.421   .     S
C3     C28     1.405   .     A
C3     N61     1.439   .     S
C3     C731    1.406   1_554 S
C4     C27     1.406   .     A
C4     N64     1.439   .     S
C4     C732    1.402   .     S
C5     H33     1.083   .     S
C5     C10     1.397   .     A
C5     C163    1.368   1_455 S
C6     C9      1.398   .     A
C6     H34     1.084   .     S
C6     C86     1.370   .     S
C7     C9      1.396   .     A
C7     H35     1.082   .     S
C7     C83     1.368   .     S
C8     H36     1.084   .     S
C8     C10     1.397   .     A
C8     C162    1.370   1_455 S
C11    C67     1.483   .     S
C11    N38     1.376   .     A
C11    C482    1.434   1_545 S
C12    N37     1.374   .     A
C12    C70     1.481   .     S
C12    C247    1.433   .     S
C13    N38     1.375   .     A
C13    C73     1.483   .     S
C13    C480    1.433   1_545 S
C14    N37     1.373   .     A
C14    C76     1.481   .     S
C14    C245    1.434   .     S
C15    C20     1.424   .     S
C15    O43     1.291   .     A
C15    O46     1.291   .     A
C16    O44     1.290   .     A
C16    O45     1.291   .     A
C16    C19     1.423   .     S
C17    C27     1.384   .     A
C17    H31     1.085   .     S
C17    C19     1.379   .     A
C18    C28     1.385   .     A
C18    H32     1.085   .     S
C18    C20     1.380   .     A
C19    C21     1.399   .     A
C20    C22     1.398   .     A
C21    N49     1.438   .     S
C21    C23     1.412   .     A
C22    C24     1.409   .     A
C22    N52     1.438   .     S
C23    C29     1.425   .     A
C23    C25     1.430   .     A
C24    C26     1.428   .     A
C24    C30     1.421   .     A
C25    C27     1.417   .     A
C25    C728    1.398   .     S
C26    C28     1.415   .     A
C26    C727    1.398   1_554 S
C29    C55     1.487   .     S
C29    C705    1.406   .     S
C30    C58     1.487   .     S
C30    C706    1.402   1_554 S
N37    Zn47    2.030   .     S
N38    Zn48    2.030   .     S
O39    Zn47    2.001   .     S
O40    Zn48    2.001   .     S
O41    Zn47    1.999   .     S
O42    Zn48    1.999   .     S
O43    Zn47    2.009   .     S
O44    Zn48    2.009   .     S
O45    Zn47    2.009   .     S
O46    Zn48    2.009   .     S
N49    H51     1.046   .     S
N49    H50     1.045   .     S
N52    H54     1.045   .     S
N52    H53     1.046   .     S
C55    H56     1.085   .     S
C55    O57     1.221   .     D
C58    O60     1.221   .     D
C58    H59     1.085   .     S
N61    H63     1.045   .     S
N61    H62     1.045   .     S
N64    H66     1.045   .     S
N64    H65     1.046   .     S
C67    H68     1.074   .     S
C67    O69     1.221   .     D
C70    H71     1.075   .     S
C70    O72     1.221   .     D
C73    H74     1.074   .     S
C73    O75     1.221   .     D
C76    O78     1.221   .     D
C76    H77     1.076   .     S
C79    C88     1.421   .     S
C79    O117    1.291   .     A
C79    O120    1.291   .     A
C80    O119    1.290   .     A
C80    O118    1.292   .     A
C80    C87     1.421   .     S
C81    C106    1.405   .     A
C81    N139    1.439   .     S
C81    C809    1.406   1_554 S
C82    C105    1.406   .     A
C82    N142    1.439   .     S
C82    C810    1.402   .     S
C83    H111    1.083   .     S
C83    C88     1.397   .     A
C84    C87     1.398   .     A
C84    H112    1.084   .     S
C84    C164    1.370   .     S
C85    C87     1.396   .     A
C85    H113    1.082   .     S
C85    C161    1.368   .     S
C86    H114    1.084   .     S
C86    C88     1.397   .     A
C89    C145    1.483   .     S
C89    N116    1.376   .     A
C89    C560    1.434   1_545 S
C90    N115    1.374   .     A
C90    C148    1.481   .     S
C90    C325    1.433   .     S
C91    N116    1.375   .     A
C91    C151    1.483   .     S
C91    C558    1.433   1_545 S
C92    N115    1.373   .     A
C92    C154    1.481   .     S
C92    C323    1.434   .     S
C93    C98     1.424   .     S
C93    O121    1.291   .     A
C93    O124    1.291   .     A
C94    O122    1.290   .     A
C94    O123    1.291   .     A
C94    C97     1.423   .     S
C95    C105    1.384   .     A
C95    H109    1.085   .     S
C95    C97     1.379   .     A
C96    C106    1.385   .     A
C96    H110    1.085   .     S
C96    C98     1.380   .     A
C97    C99     1.399   .     A
C98    C100    1.398   .     A
C99    N127    1.438   .     S
C99    C101    1.412   .     A
C100   C102    1.409   .     A
C100   N130    1.438   .     S
C101   C107    1.425   .     A
C101   C103    1.430   .     A
C102   C104    1.428   .     A
C102   C108    1.421   .     A
C103   C105    1.417   .     A
C103   C806    1.398   .     S
C104   C106    1.415   .     A
C104   C805    1.398   1_554 S
C107   C133    1.487   .     S
C107   C783    1.406   .     S
C108   C136    1.487   .     S
C108   C784    1.402   1_554 S
N115   Zn125   2.030   .     S
N116   Zn126   2.030   .     S
O117   Zn125   2.001   .     S
O118   Zn126   2.001   .     S
O119   Zn125   1.999   .     S
O120   Zn126   1.999   .     S
O121   Zn125   2.009   .     S
O122   Zn126   2.009   .     S
O123   Zn125   2.009   .     S
O124   Zn126   2.009   .     S
N127   H129    1.046   .     S
N127   H128    1.045   .     S
N130   H132    1.045   .     S
N130   H131    1.046   .     S
C133   H134    1.085   .     S
C133   O135    1.221   .     D
C136   O138    1.221   .     D
C136   H137    1.085   .     S
N139   H141    1.045   .     S
N139   H140    1.045   .     S
N142   H144    1.045   .     S
N142   H143    1.046   .     S
C145   H146    1.074   .     S
C145   O147    1.221   .     D
C148   H149    1.075   .     S
C148   O150    1.221   .     D
C151   H152    1.074   .     S
C151   O153    1.221   .     D
C154   O156    1.221   .     D
C154   H155    1.076   .     S
C157   C166    1.421   .     S
C157   O195    1.291   .     A
C157   O198    1.291   .     A
C158   O197    1.290   .     A
C158   O196    1.292   .     A
C158   C165    1.421   .     S
C159   C184    1.405   .     A
C159   N217    1.439   .     S
C159   C887    1.406   1_554 S
C160   C183    1.406   .     A
C160   N220    1.439   .     S
C160   C888    1.402   .     S
C161   H189    1.083   .     S
C161   C166    1.397   .     A
C162   C165    1.398   .     A
C162   H190    1.084   .     S
C162   C8      1.370   1_655 S
C163   C165    1.396   .     A
C163   H191    1.082   .     S
C163   C5      1.368   1_655 S
C164   H192    1.084   .     S
C164   C166    1.397   .     A
C167   C223    1.483   .     S
C167   N194    1.376   .     A
C167   C638    1.434   1_545 S
C168   N193    1.374   .     A
C168   C226    1.481   .     S
C168   C403    1.433   .     S
C169   N194    1.375   .     A
C169   C229    1.483   .     S
C169   C636    1.433   1_545 S
C170   N193    1.373   .     A
C170   C232    1.481   .     S
C170   C401    1.434   .     S
C171   C176    1.424   .     S
C171   O199    1.291   .     A
C171   O202    1.291   .     A
C172   O200    1.290   .     A
C172   O201    1.291   .     A
C172   C175    1.423   .     S
C173   C183    1.384   .     A
C173   H187    1.085   .     S
C173   C175    1.379   .     A
C174   C184    1.385   .     A
C174   H188    1.085   .     S
C174   C176    1.380   .     A
C175   C177    1.399   .     A
C176   C178    1.398   .     A
C177   N205    1.438   .     S
C177   C179    1.412   .     A
C178   C180    1.409   .     A
C178   N208    1.438   .     S
C179   C185    1.425   .     A
C179   C181    1.430   .     A
C180   C182    1.428   .     A
C180   C186    1.421   .     A
C181   C183    1.417   .     A
C181   C884    1.398   .     S
C182   C184    1.415   .     A
C182   C883    1.398   1_554 S
C185   C211    1.487   .     S
C185   C861    1.406   .     S
C186   C214    1.487   .     S
C186   C862    1.402   1_554 S
N193   Zn203   2.030   .     S
N194   Zn204   2.030   .     S
O195   Zn203   2.001   .     S
O196   Zn204   2.001   .     S
O197   Zn203   1.999   .     S
O198   Zn204   1.999   .     S
O199   Zn203   2.009   .     S
O200   Zn204   2.009   .     S
O201   Zn203   2.009   .     S
O202   Zn204   2.009   .     S
N205   H207    1.046   .     S
N205   H206    1.045   .     S
N208   H210    1.045   .     S
N208   H209    1.046   .     S
C211   H212    1.085   .     S
C211   O213    1.221   .     D
C214   O216    1.221   .     D
C214   H215    1.085   .     S
N217   H219    1.045   .     S
N217   H218    1.045   .     S
N220   H222    1.045   .     S
N220   H221    1.046   .     S
C223   H224    1.074   .     S
C223   O225    1.221   .     D
C226   H227    1.075   .     S
C226   O228    1.221   .     D
C229   H230    1.074   .     S
C229   O231    1.221   .     D
C232   O234    1.221   .     D
C232   H233    1.076   .     S
C235   C244    1.421   .     S
C235   O273    1.291   .     A
C235   O276    1.291   .     A
C236   O275    1.290   .     A
C236   O274    1.292   .     A
C236   C243    1.421   .     S
C237   C262    1.405   .     A
C237   N295    1.439   .     S
C237   C965    1.406   1_554 S
C238   C261    1.406   .     A
C238   N298    1.439   .     S
C238   C966    1.402   .     S
C239   H267    1.083   .     S
C239   C244    1.397   .     A
C239   C397    1.368   1_455 S
C240   C243    1.398   .     A
C240   H268    1.084   .     S
C240   C320    1.370   .     S
C241   C243    1.396   .     A
C241   H269    1.082   .     S
C241   C317    1.368   .     S
C242   H270    1.084   .     S
C242   C244    1.397   .     A
C242   C396    1.370   1_455 S
C245   C301    1.483   .     S
C245   N272    1.376   .     A
C246   N271    1.374   .     A
C246   C304    1.481   .     S
C246   C481    1.433   .     S
C247   N272    1.375   .     A
C247   C307    1.483   .     S
C248   N271    1.373   .     A
C248   C310    1.481   .     S
C248   C479    1.434   .     S
C249   C254    1.424   .     S
C249   O277    1.291   .     A
C249   O280    1.291   .     A
C250   O278    1.290   .     A
C250   O279    1.291   .     A
C250   C253    1.423   .     S
C251   C261    1.384   .     A
C251   H265    1.085   .     S
C251   C253    1.379   .     A
C252   C262    1.385   .     A
C252   H266    1.085   .     S
C252   C254    1.380   .     A
C253   C255    1.399   .     A
C254   C256    1.398   .     A
C255   N283    1.438   .     S
C255   C257    1.412   .     A
C256   C258    1.409   .     A
C256   N286    1.438   .     S
C257   C263    1.425   .     A
C257   C259    1.430   .     A
C258   C260    1.428   .     A
C258   C264    1.421   .     A
C259   C261    1.417   .     A
C259   C962    1.398   .     S
C260   C262    1.415   .     A
C260   C961    1.398   1_554 S
C263   C289    1.487   .     S
C263   C939    1.406   .     S
C264   C292    1.487   .     S
C264   C940    1.402   1_554 S
N271   Zn281   2.030   .     S
N272   Zn282   2.030   .     S
O273   Zn281   2.001   .     S
O274   Zn282   2.001   .     S
O275   Zn281   1.999   .     S
O276   Zn282   1.999   .     S
O277   Zn281   2.009   .     S
O278   Zn282   2.009   .     S
O279   Zn281   2.009   .     S
O280   Zn282   2.009   .     S
N283   H285    1.046   .     S
N283   H284    1.045   .     S
N286   H288    1.045   .     S
N286   H287    1.046   .     S
C289   H290    1.085   .     S
C289   O291    1.221   .     D
C292   O294    1.221   .     D
C292   H293    1.085   .     S
N295   H297    1.045   .     S
N295   H296    1.045   .     S
N298   H300    1.045   .     S
N298   H299    1.046   .     S
C301   H302    1.074   .     S
C301   O303    1.221   .     D
C304   H305    1.075   .     S
C304   O306    1.221   .     D
C307   H308    1.074   .     S
C307   O309    1.221   .     D
C310   O312    1.221   .     D
C310   H311    1.076   .     S
C313   C322    1.421   .     S
C313   O351    1.291   .     A
C313   O354    1.291   .     A
C314   O353    1.290   .     A
C314   O352    1.292   .     A
C314   C321    1.421   .     S
C315   C340    1.405   .     A
C315   N373    1.439   .     S
C315   C1043   1.406   1_554 S
C316   C339    1.406   .     A
C316   N376    1.439   .     S
C316   C1044   1.402   .     S
C317   H345    1.083   .     S
C317   C322    1.397   .     A
C318   C321    1.398   .     A
C318   H346    1.084   .     S
C318   C398    1.370   .     S
C319   C321    1.396   .     A
C319   H347    1.082   .     S
C319   C395    1.368   .     S
C320   H348    1.084   .     S
C320   C322    1.397   .     A
C323   C379    1.483   .     S
C323   N350    1.376   .     A
C324   N349    1.374   .     A
C324   C382    1.481   .     S
C324   C559    1.433   .     S
C325   N350    1.375   .     A
C325   C385    1.483   .     S
C326   N349    1.373   .     A
C326   C388    1.481   .     S
C326   C557    1.434   .     S
C327   C332    1.424   .     S
C327   O355    1.291   .     A
C327   O358    1.291   .     A
C328   O356    1.290   .     A
C328   O357    1.291   .     A
C328   C331    1.423   .     S
C329   C339    1.384   .     A
C329   H343    1.085   .     S
C329   C331    1.379   .     A
C330   C340    1.385   .     A
C330   H344    1.085   .     S
C330   C332    1.380   .     A
C331   C333    1.399   .     A
C332   C334    1.398   .     A
C333   N361    1.438   .     S
C333   C335    1.412   .     A
C334   C336    1.409   .     A
C334   N364    1.438   .     S
C335   C341    1.425   .     A
C335   C337    1.430   .     A
C336   C338    1.428   .     A
C336   C342    1.421   .     A
C337   C339    1.417   .     A
C337   C1040   1.398   .     S
C338   C340    1.415   .     A
C338   C1039   1.398   1_554 S
C341   C367    1.487   .     S
C341   C1017   1.406   .     S
C342   C370    1.487   .     S
C342   C1018   1.402   1_554 S
N349   Zn359   2.030   .     S
N350   Zn360   2.030   .     S
O351   Zn359   2.001   .     S
O352   Zn360   2.001   .     S
O353   Zn359   1.999   .     S
O354   Zn360   1.999   .     S
O355   Zn359   2.009   .     S
O356   Zn360   2.009   .     S
O357   Zn359   2.009   .     S
O358   Zn360   2.009   .     S
N361   H363    1.046   .     S
N361   H362    1.045   .     S
N364   H366    1.045   .     S
N364   H365    1.046   .     S
C367   H368    1.085   .     S
C367   O369    1.221   .     D
C370   O372    1.221   .     D
C370   H371    1.085   .     S
N373   H375    1.045   .     S
N373   H374    1.045   .     S
N376   H378    1.045   .     S
N376   H377    1.046   .     S
C379   H380    1.074   .     S
C379   O381    1.221   .     D
C382   H383    1.075   .     S
C382   O384    1.221   .     D
C385   H386    1.074   .     S
C385   O387    1.221   .     D
C388   O390    1.221   .     D
C388   H389    1.076   .     S
C391   C400    1.421   .     S
C391   O429    1.291   .     A
C391   O432    1.291   .     A
C392   O431    1.290   .     A
C392   O430    1.292   .     A
C392   C399    1.421   .     S
C393   C418    1.405   .     A
C393   N451    1.439   .     S
C393   C1121   1.406   1_554 S
C394   C417    1.406   .     A
C394   N454    1.439   .     S
C394   C1122   1.402   .     S
C395   H423    1.083   .     S
C395   C400    1.397   .     A
C396   C399    1.398   .     A
C396   H424    1.084   .     S
C396   C242    1.370   1_655 S
C397   C399    1.396   .     A
C397   H425    1.082   .     S
C397   C239    1.368   1_655 S
C398   H426    1.084   .     S
C398   C400    1.397   .     A
C401   C457    1.483   .     S
C401   N428    1.376   .     A
C402   N427    1.374   .     A
C402   C460    1.481   .     S
C402   C637    1.433   .     S
C403   N428    1.375   .     A
C403   C463    1.483   .     S
C404   N427    1.373   .     A
C404   C466    1.481   .     S
C404   C635    1.434   .     S
C405   C410    1.424   .     S
C405   O433    1.291   .     A
C405   O436    1.291   .     A
C406   O434    1.290   .     A
C406   O435    1.291   .     A
C406   C409    1.423   .     S
C407   C417    1.384   .     A
C407   H421    1.085   .     S
C407   C409    1.379   .     A
C408   C418    1.385   .     A
C408   H422    1.085   .     S
C408   C410    1.380   .     A
C409   C411    1.399   .     A
C410   C412    1.398   .     A
C411   N439    1.438   .     S
C411   C413    1.412   .     A
C412   C414    1.409   .     A
C412   N442    1.438   .     S
C413   C419    1.425   .     A
C413   C415    1.430   .     A
C414   C416    1.428   .     A
C414   C420    1.421   .     A
C415   C417    1.417   .     A
C415   C1118   1.398   .     S
C416   C418    1.415   .     A
C416   C1117   1.398   1_554 S
C419   C445    1.487   .     S
C419   C1095   1.406   .     S
C420   C448    1.487   .     S
C420   C1096   1.402   1_554 S
N427   Zn437   2.030   .     S
N428   Zn438   2.030   .     S
O429   Zn437   2.001   .     S
O430   Zn438   2.001   .     S
O431   Zn437   1.999   .     S
O432   Zn438   1.999   .     S
O433   Zn437   2.009   .     S
O434   Zn438   2.009   .     S
O435   Zn437   2.009   .     S
O436   Zn438   2.009   .     S
N439   H441    1.046   .     S
N439   H440    1.045   .     S
N442   H444    1.045   .     S
N442   H443    1.046   .     S
C445   H446    1.085   .     S
C445   O447    1.221   .     D
C448   O450    1.221   .     D
C448   H449    1.085   .     S
N451   H453    1.045   .     S
N451   H452    1.045   .     S
N454   H456    1.045   .     S
N454   H455    1.046   .     S
C457   H458    1.074   .     S
C457   O459    1.221   .     D
C460   H461    1.075   .     S
C460   O462    1.221   .     D
C463   H464    1.074   .     S
C463   O465    1.221   .     D
C466   O468    1.221   .     D
C466   H467    1.076   .     S
C469   C478    1.421   .     S
C469   O507    1.291   .     A
C469   O510    1.291   .     A
C470   O509    1.290   .     A
C470   O508    1.292   .     A
C470   C477    1.421   .     S
C471   C496    1.405   .     A
C471   N529    1.439   .     S
C471   C1199   1.406   1_554 S
C472   C495    1.406   .     A
C472   N532    1.439   .     S
C472   C1200   1.402   .     S
C473   H501    1.083   .     S
C473   C478    1.397   .     A
C473   C631    1.368   1_455 S
C474   C477    1.398   .     A
C474   H502    1.084   .     S
C474   C554    1.370   .     S
C475   C477    1.396   .     A
C475   H503    1.082   .     S
C475   C551    1.368   .     S
C476   H504    1.084   .     S
C476   C478    1.397   .     A
C476   C630    1.370   1_455 S
C479   C535    1.483   .     S
C479   N506    1.376   .     A
C480   N505    1.374   .     A
C480   C538    1.481   .     S
C480   C13     1.433   1_565 S
C481   N506    1.375   .     A
C481   C541    1.483   .     S
C482   N505    1.373   .     A
C482   C544    1.481   .     S
C482   C11     1.434   1_565 S
C483   C488    1.424   .     S
C483   O511    1.291   .     A
C483   O514    1.291   .     A
C484   O512    1.290   .     A
C484   O513    1.291   .     A
C484   C487    1.423   .     S
C485   C495    1.384   .     A
C485   H499    1.085   .     S
C485   C487    1.379   .     A
C486   C496    1.385   .     A
C486   H500    1.085   .     S
C486   C488    1.380   .     A
C487   C489    1.399   .     A
C488   C490    1.398   .     A
C489   N517    1.438   .     S
C489   C491    1.412   .     A
C490   C492    1.409   .     A
C490   N520    1.438   .     S
C491   C497    1.425   .     A
C491   C493    1.430   .     A
C492   C494    1.428   .     A
C492   C498    1.421   .     A
C493   C495    1.417   .     A
C493   C1196   1.398   .     S
C494   C496    1.415   .     A
C494   C1195   1.398   1_554 S
C497   C523    1.487   .     S
C497   C1173   1.406   .     S
C498   C526    1.487   .     S
C498   C1174   1.402   1_554 S
N505   Zn515   2.030   .     S
N506   Zn516   2.030   .     S
O507   Zn515   2.001   .     S
O508   Zn516   2.001   .     S
O509   Zn515   1.999   .     S
O510   Zn516   1.999   .     S
O511   Zn515   2.009   .     S
O512   Zn516   2.009   .     S
O513   Zn515   2.009   .     S
O514   Zn516   2.009   .     S
N517   H519    1.046   .     S
N517   H518    1.045   .     S
N520   H522    1.045   .     S
N520   H521    1.046   .     S
C523   H524    1.085   .     S
C523   O525    1.221   .     D
C526   O528    1.221   .     D
C526   H527    1.085   .     S
N529   H531    1.045   .     S
N529   H530    1.045   .     S
N532   H534    1.045   .     S
N532   H533    1.046   .     S
C535   H536    1.074   .     S
C535   O537    1.221   .     D
C538   H539    1.075   .     S
C538   O540    1.221   .     D
C541   H542    1.074   .     S
C541   O543    1.221   .     D
C544   O546    1.221   .     D
C544   H545    1.076   .     S
C547   C556    1.421   .     S
C547   O585    1.291   .     A
C547   O588    1.291   .     A
C548   O587    1.290   .     A
C548   O586    1.292   .     A
C548   C555    1.421   .     S
C549   C574    1.405   .     A
C549   N607    1.439   .     S
C549   C1277   1.406   1_554 S
C550   C573    1.406   .     A
C550   N610    1.439   .     S
C550   C1278   1.402   .     S
C551   H579    1.083   .     S
C551   C556    1.397   .     A
C552   C555    1.398   .     A
C552   H580    1.084   .     S
C552   C632    1.370   .     S
C553   C555    1.396   .     A
C553   H581    1.082   .     S
C553   C629    1.368   .     S
C554   H582    1.084   .     S
C554   C556    1.397   .     A
C557   C613    1.483   .     S
C557   N584    1.376   .     A
C558   N583    1.374   .     A
C558   C616    1.481   .     S
C558   C91     1.433   1_565 S
C559   N584    1.375   .     A
C559   C619    1.483   .     S
C560   N583    1.373   .     A
C560   C622    1.481   .     S
C560   C89     1.434   1_565 S
C561   C566    1.424   .     S
C561   O589    1.291   .     A
C561   O592    1.291   .     A
C562   O590    1.290   .     A
C562   O591    1.291   .     A
C562   C565    1.423   .     S
C563   C573    1.384   .     A
C563   H577    1.085   .     S
C563   C565    1.379   .     A
C564   C574    1.385   .     A
C564   H578    1.085   .     S
C564   C566    1.380   .     A
C565   C567    1.399   .     A
C566   C568    1.398   .     A
C567   N595    1.438   .     S
C567   C569    1.412   .     A
C568   C570    1.409   .     A
C568   N598    1.438   .     S
C569   C575    1.425   .     A
C569   C571    1.430   .     A
C570   C572    1.428   .     A
C570   C576    1.421   .     A
C571   C573    1.417   .     A
C571   C1274   1.398   .     S
C572   C574    1.415   .     A
C572   C1273   1.398   1_554 S
C575   C601    1.487   .     S
C575   C1251   1.406   .     S
C576   C604    1.487   .     S
C576   C1252   1.402   1_554 S
N583   Zn593   2.030   .     S
N584   Zn594   2.030   .     S
O585   Zn593   2.001   .     S
O586   Zn594   2.001   .     S
O587   Zn593   1.999   .     S
O588   Zn594   1.999   .     S
O589   Zn593   2.009   .     S
O590   Zn594   2.009   .     S
O591   Zn593   2.009   .     S
O592   Zn594   2.009   .     S
N595   H597    1.046   .     S
N595   H596    1.045   .     S
N598   H600    1.045   .     S
N598   H599    1.046   .     S
C601   H602    1.085   .     S
C601   O603    1.221   .     D
C604   O606    1.221   .     D
C604   H605    1.085   .     S
N607   H609    1.045   .     S
N607   H608    1.045   .     S
N610   H612    1.045   .     S
N610   H611    1.046   .     S
C613   H614    1.074   .     S
C613   O615    1.221   .     D
C616   H617    1.075   .     S
C616   O618    1.221   .     D
C619   H620    1.074   .     S
C619   O621    1.221   .     D
C622   O624    1.221   .     D
C622   H623    1.076   .     S
C625   C634    1.421   .     S
C625   O663    1.291   .     A
C625   O666    1.291   .     A
C626   O665    1.290   .     A
C626   O664    1.292   .     A
C626   C633    1.421   .     S
C627   C652    1.405   .     A
C627   N685    1.439   .     S
C627   C1355   1.406   1_554 S
C628   C651    1.406   .     A
C628   N688    1.439   .     S
C628   C1356   1.402   .     S
C629   H657    1.083   .     S
C629   C634    1.397   .     A
C630   C633    1.398   .     A
C630   H658    1.084   .     S
C630   C476    1.370   1_655 S
C631   C633    1.396   .     A
C631   H659    1.082   .     S
C631   C473    1.368   1_655 S
C632   H660    1.084   .     S
C632   C634    1.397   .     A
C635   C691    1.483   .     S
C635   N662    1.376   .     A
C636   N661    1.374   .     A
C636   C694    1.481   .     S
C636   C169    1.433   1_565 S
C637   N662    1.375   .     A
C637   C697    1.483   .     S
C638   N661    1.373   .     A
C638   C700    1.481   .     S
C638   C167    1.434   1_565 S
C639   C644    1.424   .     S
C639   O667    1.291   .     A
C639   O670    1.291   .     A
C640   O668    1.290   .     A
C640   O669    1.291   .     A
C640   C643    1.423   .     S
C641   C651    1.384   .     A
C641   H655    1.085   .     S
C641   C643    1.379   .     A
C642   C652    1.385   .     A
C642   H656    1.085   .     S
C642   C644    1.380   .     A
C643   C645    1.399   .     A
C644   C646    1.398   .     A
C645   N673    1.438   .     S
C645   C647    1.412   .     A
C646   C648    1.409   .     A
C646   N676    1.438   .     S
C647   C653    1.425   .     A
C647   C649    1.430   .     A
C648   C650    1.428   .     A
C648   C654    1.421   .     A
C649   C651    1.417   .     A
C649   C1352   1.398   .     S
C650   C652    1.415   .     A
C650   C1351   1.398   1_554 S
C653   C679    1.487   .     S
C653   C1329   1.406   .     S
C654   C682    1.487   .     S
C654   C1330   1.402   1_554 S
N661   Zn671   2.030   .     S
N662   Zn672   2.030   .     S
O663   Zn671   2.001   .     S
O664   Zn672   2.001   .     S
O665   Zn671   1.999   .     S
O666   Zn672   1.999   .     S
O667   Zn671   2.009   .     S
O668   Zn672   2.009   .     S
O669   Zn671   2.009   .     S
O670   Zn672   2.009   .     S
N673   H675    1.046   .     S
N673   H674    1.045   .     S
N676   H678    1.045   .     S
N676   H677    1.046   .     S
C679   H680    1.085   .     S
C679   O681    1.221   .     D
C682   O684    1.221   .     D
C682   H683    1.085   .     S
N685   H687    1.045   .     S
N685   H686    1.045   .     S
N688   H690    1.045   .     S
N688   H689    1.046   .     S
C691   H692    1.074   .     S
C691   O693    1.221   .     D
C694   H695    1.075   .     S
C694   O696    1.221   .     D
C697   H698    1.074   .     S
C697   O699    1.221   .     D
C700   O702    1.221   .     D
C700   H701    1.076   .     S
C703   C712    1.421   .     S
C703   O741    1.291   .     A
C703   O744    1.291   .     A
C704   O743    1.290   .     A
C704   O742    1.292   .     A
C704   C711    1.421   .     S
C705   C730    1.405   .     A
C705   N763    1.439   .     S
C706   C729    1.406   .     A
C706   N766    1.439   .     S
C706   C30     1.402   1_556 S
C707   H735    1.083   .     S
C707   C712    1.397   .     A
C707   C865    1.368   1_455 S
C708   C711    1.398   .     A
C708   H736    1.084   .     S
C708   C788    1.370   .     S
C709   C711    1.396   .     A
C709   H737    1.082   .     S
C709   C785    1.368   .     S
C710   H738    1.084   .     S
C710   C712    1.397   .     A
C710   C864    1.370   1_455 S
C713   C769    1.483   .     S
C713   N740    1.376   .     A
C713   C1184   1.434   1_545 S
C714   N739    1.374   .     A
C714   C772    1.481   .     S
C714   C949    1.433   .     S
C715   N740    1.375   .     A
C715   C775    1.483   .     S
C715   C1182   1.433   1_545 S
C716   N739    1.373   .     A
C716   C778    1.481   .     S
C716   C947    1.434   .     S
C717   C722    1.424   .     S
C717   O745    1.291   .     A
C717   O748    1.291   .     A
C718   O746    1.290   .     A
C718   O747    1.291   .     A
C718   C721    1.423   .     S
C719   C729    1.384   .     A
C719   H733    1.085   .     S
C719   C721    1.379   .     A
C720   C730    1.385   .     A
C720   H734    1.085   .     S
C720   C722    1.380   .     A
C721   C723    1.399   .     A
C722   C724    1.398   .     A
C723   N751    1.438   .     S
C723   C725    1.412   .     A
C724   C726    1.409   .     A
C724   N754    1.438   .     S
C725   C731    1.425   .     A
C725   C727    1.430   .     A
C726   C728    1.428   .     A
C726   C732    1.421   .     A
C727   C729    1.417   .     A
C727   C26     1.398   1_556 S
C728   C730    1.415   .     A
C731   C757    1.487   .     S
C731   C3      1.406   1_556 S
C732   C760    1.487   .     S
N739   Zn749   2.030   .     S
N740   Zn750   2.030   .     S
O741   Zn749   2.001   .     S
O742   Zn750   2.001   .     S
O743   Zn749   1.999   .     S
O744   Zn750   1.999   .     S
O745   Zn749   2.009   .     S
O746   Zn750   2.009   .     S
O747   Zn749   2.009   .     S
O748   Zn750   2.009   .     S
N751   H753    1.046   .     S
N751   H752    1.045   .     S
N754   H756    1.045   .     S
N754   H755    1.046   .     S
C757   H758    1.085   .     S
C757   O759    1.221   .     D
C760   O762    1.221   .     D
C760   H761    1.085   .     S
N763   H765    1.045   .     S
N763   H764    1.045   .     S
N766   H768    1.045   .     S
N766   H767    1.046   .     S
C769   H770    1.074   .     S
C769   O771    1.221   .     D
C772   H773    1.075   .     S
C772   O774    1.221   .     D
C775   H776    1.074   .     S
C775   O777    1.221   .     D
C778   O780    1.221   .     D
C778   H779    1.076   .     S
C781   C790    1.421   .     S
C781   O819    1.291   .     A
C781   O822    1.291   .     A
C782   O821    1.290   .     A
C782   O820    1.292   .     A
C782   C789    1.421   .     S
C783   C808    1.405   .     A
C783   N841    1.439   .     S
C784   C807    1.406   .     A
C784   N844    1.439   .     S
C784   C108    1.402   1_556 S
C785   H813    1.083   .     S
C785   C790    1.397   .     A
C786   C789    1.398   .     A
C786   H814    1.084   .     S
C786   C866    1.370   .     S
C787   C789    1.396   .     A
C787   H815    1.082   .     S
C787   C863    1.368   .     S
C788   H816    1.084   .     S
C788   C790    1.397   .     A
C791   C847    1.483   .     S
C791   N818    1.376   .     A
C791   C1262   1.434   1_545 S
C792   N817    1.374   .     A
C792   C850    1.481   .     S
C792   C1027   1.433   .     S
C793   N818    1.375   .     A
C793   C853    1.483   .     S
C793   C1260   1.433   1_545 S
C794   N817    1.373   .     A
C794   C856    1.481   .     S
C794   C1025   1.434   .     S
C795   C800    1.424   .     S
C795   O823    1.291   .     A
C795   O826    1.291   .     A
C796   O824    1.290   .     A
C796   O825    1.291   .     A
C796   C799    1.423   .     S
C797   C807    1.384   .     A
C797   H811    1.085   .     S
C797   C799    1.379   .     A
C798   C808    1.385   .     A
C798   H812    1.085   .     S
C798   C800    1.380   .     A
C799   C801    1.399   .     A
C800   C802    1.398   .     A
C801   N829    1.438   .     S
C801   C803    1.412   .     A
C802   C804    1.409   .     A
C802   N832    1.438   .     S
C803   C809    1.425   .     A
C803   C805    1.430   .     A
C804   C806    1.428   .     A
C804   C810    1.421   .     A
C805   C807    1.417   .     A
C805   C104    1.398   1_556 S
C806   C808    1.415   .     A
C809   C835    1.487   .     S
C809   C81     1.406   1_556 S
C810   C838    1.487   .     S
N817   Zn827   2.030   .     S
N818   Zn828   2.030   .     S
O819   Zn827   2.001   .     S
O820   Zn828   2.001   .     S
O821   Zn827   1.999   .     S
O822   Zn828   1.999   .     S
O823   Zn827   2.009   .     S
O824   Zn828   2.009   .     S
O825   Zn827   2.009   .     S
O826   Zn828   2.009   .     S
N829   H831    1.046   .     S
N829   H830    1.045   .     S
N832   H834    1.045   .     S
N832   H833    1.046   .     S
C835   H836    1.085   .     S
C835   O837    1.221   .     D
C838   O840    1.221   .     D
C838   H839    1.085   .     S
N841   H843    1.045   .     S
N841   H842    1.045   .     S
N844   H846    1.045   .     S
N844   H845    1.046   .     S
C847   H848    1.074   .     S
C847   O849    1.221   .     D
C850   H851    1.075   .     S
C850   O852    1.221   .     D
C853   H854    1.074   .     S
C853   O855    1.221   .     D
C856   O858    1.221   .     D
C856   H857    1.076   .     S
C859   C868    1.421   .     S
C859   O897    1.291   .     A
C859   O900    1.291   .     A
C860   O899    1.290   .     A
C860   O898    1.292   .     A
C860   C867    1.421   .     S
C861   C886    1.405   .     A
C861   N919    1.439   .     S
C862   C885    1.406   .     A
C862   N922    1.439   .     S
C862   C186    1.402   1_556 S
C863   H891    1.083   .     S
C863   C868    1.397   .     A
C864   C867    1.398   .     A
C864   H892    1.084   .     S
C864   C710    1.370   1_655 S
C865   C867    1.396   .     A
C865   H893    1.082   .     S
C865   C707    1.368   1_655 S
C866   H894    1.084   .     S
C866   C868    1.397   .     A
C869   C925    1.483   .     S
C869   N896    1.376   .     A
C869   C1340   1.434   1_545 S
C870   N895    1.374   .     A
C870   C928    1.481   .     S
C870   C1105   1.433   .     S
C871   N896    1.375   .     A
C871   C931    1.483   .     S
C871   C1338   1.433   1_545 S
C872   N895    1.373   .     A
C872   C934    1.481   .     S
C872   C1103   1.434   .     S
C873   C878    1.424   .     S
C873   O901    1.291   .     A
C873   O904    1.291   .     A
C874   O902    1.290   .     A
C874   O903    1.291   .     A
C874   C877    1.423   .     S
C875   C885    1.384   .     A
C875   H889    1.085   .     S
C875   C877    1.379   .     A
C876   C886    1.385   .     A
C876   H890    1.085   .     S
C876   C878    1.380   .     A
C877   C879    1.399   .     A
C878   C880    1.398   .     A
C879   N907    1.438   .     S
C879   C881    1.412   .     A
C880   C882    1.409   .     A
C880   N910    1.438   .     S
C881   C887    1.425   .     A
C881   C883    1.430   .     A
C882   C884    1.428   .     A
C882   C888    1.421   .     A
C883   C885    1.417   .     A
C883   C182    1.398   1_556 S
C884   C886    1.415   .     A
C887   C913    1.487   .     S
C887   C159    1.406   1_556 S
C888   C916    1.487   .     S
N895   Zn905   2.030   .     S
N896   Zn906   2.030   .     S
O897   Zn905   2.001   .     S
O898   Zn906   2.001   .     S
O899   Zn905   1.999   .     S
O900   Zn906   1.999   .     S
O901   Zn905   2.009   .     S
O902   Zn906   2.009   .     S
O903   Zn905   2.009   .     S
O904   Zn906   2.009   .     S
N907   H909    1.046   .     S
N907   H908    1.045   .     S
N910   H912    1.045   .     S
N910   H911    1.046   .     S
C913   H914    1.085   .     S
C913   O915    1.221   .     D
C916   O918    1.221   .     D
C916   H917    1.085   .     S
N919   H921    1.045   .     S
N919   H920    1.045   .     S
N922   H924    1.045   .     S
N922   H923    1.046   .     S
C925   H926    1.074   .     S
C925   O927    1.221   .     D
C928   H929    1.075   .     S
C928   O930    1.221   .     D
C931   H932    1.074   .     S
C931   O933    1.221   .     D
C934   O936    1.221   .     D
C934   H935    1.076   .     S
C937   C946    1.421   .     S
C937   O975    1.291   .     A
C937   O978    1.291   .     A
C938   O977    1.290   .     A
C938   O976    1.292   .     A
C938   C945    1.421   .     S
C939   C964    1.405   .     A
C939   N997    1.439   .     S
C940   C963    1.406   .     A
C940   N1000   1.439   .     S
C940   C264    1.402   1_556 S
C941   H969    1.083   .     S
C941   C946    1.397   .     A
C941   C1099   1.368   1_455 S
C942   C945    1.398   .     A
C942   H970    1.084   .     S
C942   C1022   1.370   .     S
C943   C945    1.396   .     A
C943   H971    1.082   .     S
C943   C1019   1.368   .     S
C944   H972    1.084   .     S
C944   C946    1.397   .     A
C944   C1098   1.370   1_455 S
C947   C1003   1.483   .     S
C947   N974    1.376   .     A
C948   N973    1.374   .     A
C948   C1006   1.481   .     S
C948   C1183   1.433   .     S
C949   N974    1.375   .     A
C949   C1009   1.483   .     S
C950   N973    1.373   .     A
C950   C1012   1.481   .     S
C950   C1181   1.434   .     S
C951   C956    1.424   .     S
C951   O979    1.291   .     A
C951   O982    1.291   .     A
C952   O980    1.290   .     A
C952   O981    1.291   .     A
C952   C955    1.423   .     S
C953   C963    1.384   .     A
C953   H967    1.085   .     S
C953   C955    1.379   .     A
C954   C964    1.385   .     A
C954   H968    1.085   .     S
C954   C956    1.380   .     A
C955   C957    1.399   .     A
C956   C958    1.398   .     A
C957   N985    1.438   .     S
C957   C959    1.412   .     A
C958   C960    1.409   .     A
C958   N988    1.438   .     S
C959   C965    1.425   .     A
C959   C961    1.430   .     A
C960   C962    1.428   .     A
C960   C966    1.421   .     A
C961   C963    1.417   .     A
C961   C260    1.398   1_556 S
C962   C964    1.415   .     A
C965   C991    1.487   .     S
C965   C237    1.406   1_556 S
C966   C994    1.487   .     S
N973   Zn983   2.030   .     S
N974   Zn984   2.030   .     S
O975   Zn983   2.001   .     S
O976   Zn984   2.001   .     S
O977   Zn983   1.999   .     S
O978   Zn984   1.999   .     S
O979   Zn983   2.009   .     S
O980   Zn984   2.009   .     S
O981   Zn983   2.009   .     S
O982   Zn984   2.009   .     S
N985   H987    1.046   .     S
N985   H986    1.045   .     S
N988   H990    1.045   .     S
N988   H989    1.046   .     S
C991   H992    1.085   .     S
C991   O993    1.221   .     D
C994   O996    1.221   .     D
C994   H995    1.085   .     S
N997   H999    1.045   .     S
N997   H998    1.045   .     S
N1000  H1002   1.045   .     S
N1000  H1001   1.046   .     S
C1003  H1004   1.074   .     S
C1003  O1005   1.221   .     D
C1006  H1007   1.075   .     S
C1006  O1008   1.221   .     D
C1009  H1010   1.074   .     S
C1009  O1011   1.221   .     D
C1012  O1014   1.221   .     D
C1012  H1013   1.076   .     S
C1015  C1024   1.421   .     S
C1015  O1053   1.291   .     A
C1015  O1056   1.291   .     A
C1016  O1055   1.290   .     A
C1016  O1054   1.292   .     A
C1016  C1023   1.421   .     S
C1017  C1042   1.405   .     A
C1017  N1075   1.439   .     S
C1018  C1041   1.406   .     A
C1018  N1078   1.439   .     S
C1018  C342    1.402   1_556 S
C1019  H1047   1.083   .     S
C1019  C1024   1.397   .     A
C1020  C1023   1.398   .     A
C1020  H1048   1.084   .     S
C1020  C1100   1.370   .     S
C1021  C1023   1.396   .     A
C1021  H1049   1.082   .     S
C1021  C1097   1.368   .     S
C1022  H1050   1.084   .     S
C1022  C1024   1.397   .     A
C1025  C1081   1.483   .     S
C1025  N1052   1.376   .     A
C1026  N1051   1.374   .     A
C1026  C1084   1.481   .     S
C1026  C1261   1.433   .     S
C1027  N1052   1.375   .     A
C1027  C1087   1.483   .     S
C1028  N1051   1.373   .     A
C1028  C1090   1.481   .     S
C1028  C1259   1.434   .     S
C1029  C1034   1.424   .     S
C1029  O1057   1.291   .     A
C1029  O1060   1.291   .     A
C1030  O1058   1.290   .     A
C1030  O1059   1.291   .     A
C1030  C1033   1.423   .     S
C1031  C1041   1.384   .     A
C1031  H1045   1.085   .     S
C1031  C1033   1.379   .     A
C1032  C1042   1.385   .     A
C1032  H1046   1.085   .     S
C1032  C1034   1.380   .     A
C1033  C1035   1.399   .     A
C1034  C1036   1.398   .     A
C1035  N1063   1.438   .     S
C1035  C1037   1.412   .     A
C1036  C1038   1.409   .     A
C1036  N1066   1.438   .     S
C1037  C1043   1.425   .     A
C1037  C1039   1.430   .     A
C1038  C1040   1.428   .     A
C1038  C1044   1.421   .     A
C1039  C1041   1.417   .     A
C1039  C338    1.398   1_556 S
C1040  C1042   1.415   .     A
C1043  C1069   1.487   .     S
C1043  C315    1.406   1_556 S
C1044  C1072   1.487   .     S
N1051  Zn1061  2.030   .     S
N1052  Zn1062  2.030   .     S
O1053  Zn1061  2.001   .     S
O1054  Zn1062  2.001   .     S
O1055  Zn1061  1.999   .     S
O1056  Zn1062  1.999   .     S
O1057  Zn1061  2.009   .     S
O1058  Zn1062  2.009   .     S
O1059  Zn1061  2.009   .     S
O1060  Zn1062  2.009   .     S
N1063  H1065   1.046   .     S
N1063  H1064   1.045   .     S
N1066  H1068   1.045   .     S
N1066  H1067   1.046   .     S
C1069  H1070   1.085   .     S
C1069  O1071   1.221   .     D
C1072  O1074   1.221   .     D
C1072  H1073   1.085   .     S
N1075  H1077   1.045   .     S
N1075  H1076   1.045   .     S
N1078  H1080   1.045   .     S
N1078  H1079   1.046   .     S
C1081  H1082   1.074   .     S
C1081  O1083   1.221   .     D
C1084  H1085   1.075   .     S
C1084  O1086   1.221   .     D
C1087  H1088   1.074   .     S
C1087  O1089   1.221   .     D
C1090  O1092   1.221   .     D
C1090  H1091   1.076   .     S
C1093  C1102   1.421   .     S
C1093  O1131   1.291   .     A
C1093  O1134   1.291   .     A
C1094  O1133   1.290   .     A
C1094  O1132   1.292   .     A
C1094  C1101   1.421   .     S
C1095  C1120   1.405   .     A
C1095  N1153   1.439   .     S
C1096  C1119   1.406   .     A
C1096  N1156   1.439   .     S
C1096  C420    1.402   1_556 S
C1097  H1125   1.083   .     S
C1097  C1102   1.397   .     A
C1098  C1101   1.398   .     A
C1098  H1126   1.084   .     S
C1098  C944    1.370   1_655 S
C1099  C1101   1.396   .     A
C1099  H1127   1.082   .     S
C1099  C941    1.368   1_655 S
C1100  H1128   1.084   .     S
C1100  C1102   1.397   .     A
C1103  C1159   1.483   .     S
C1103  N1130   1.376   .     A
C1104  N1129   1.374   .     A
C1104  C1162   1.481   .     S
C1104  C1339   1.433   .     S
C1105  N1130   1.375   .     A
C1105  C1165   1.483   .     S
C1106  N1129   1.373   .     A
C1106  C1168   1.481   .     S
C1106  C1337   1.434   .     S
C1107  C1112   1.424   .     S
C1107  O1135   1.291   .     A
C1107  O1138   1.291   .     A
C1108  O1136   1.290   .     A
C1108  O1137   1.291   .     A
C1108  C1111   1.423   .     S
C1109  C1119   1.384   .     A
C1109  H1123   1.085   .     S
C1109  C1111   1.379   .     A
C1110  C1120   1.385   .     A
C1110  H1124   1.085   .     S
C1110  C1112   1.380   .     A
C1111  C1113   1.399   .     A
C1112  C1114   1.398   .     A
C1113  N1141   1.438   .     S
C1113  C1115   1.412   .     A
C1114  C1116   1.409   .     A
C1114  N1144   1.438   .     S
C1115  C1121   1.425   .     A
C1115  C1117   1.430   .     A
C1116  C1118   1.428   .     A
C1116  C1122   1.421   .     A
C1117  C1119   1.417   .     A
C1117  C416    1.398   1_556 S
C1118  C1120   1.415   .     A
C1121  C1147   1.487   .     S
C1121  C393    1.406   1_556 S
C1122  C1150   1.487   .     S
N1129  Zn1139  2.030   .     S
N1130  Zn1140  2.030   .     S
O1131  Zn1139  2.001   .     S
O1132  Zn1140  2.001   .     S
O1133  Zn1139  1.999   .     S
O1134  Zn1140  1.999   .     S
O1135  Zn1139  2.009   .     S
O1136  Zn1140  2.009   .     S
O1137  Zn1139  2.009   .     S
O1138  Zn1140  2.009   .     S
N1141  H1143   1.046   .     S
N1141  H1142   1.045   .     S
N1144  H1146   1.045   .     S
N1144  H1145   1.046   .     S
C1147  H1148   1.085   .     S
C1147  O1149   1.221   .     D
C1150  O1152   1.221   .     D
C1150  H1151   1.085   .     S
N1153  H1155   1.045   .     S
N1153  H1154   1.045   .     S
N1156  H1158   1.045   .     S
N1156  H1157   1.046   .     S
C1159  H1160   1.074   .     S
C1159  O1161   1.221   .     D
C1162  H1163   1.075   .     S
C1162  O1164   1.221   .     D
C1165  H1166   1.074   .     S
C1165  O1167   1.221   .     D
C1168  O1170   1.221   .     D
C1168  H1169   1.076   .     S
C1171  C1180   1.421   .     S
C1171  O1209   1.291   .     A
C1171  O1212   1.291   .     A
C1172  O1211   1.290   .     A
C1172  O1210   1.292   .     A
C1172  C1179   1.421   .     S
C1173  C1198   1.405   .     A
C1173  N1231   1.439   .     S
C1174  C1197   1.406   .     A
C1174  N1234   1.439   .     S
C1174  C498    1.402   1_556 S
C1175  H1203   1.083   .     S
C1175  C1180   1.397   .     A
C1175  C1333   1.368   1_455 S
C1176  C1179   1.398   .     A
C1176  H1204   1.084   .     S
C1176  C1256   1.370   .     S
C1177  C1179   1.396   .     A
C1177  H1205   1.082   .     S
C1177  C1253   1.368   .     S
C1178  H1206   1.084   .     S
C1178  C1180   1.397   .     A
C1178  C1332   1.370   1_455 S
C1181  C1237   1.483   .     S
C1181  N1208   1.376   .     A
C1182  N1207   1.374   .     A
C1182  C1240   1.481   .     S
C1182  C715    1.433   1_565 S
C1183  N1208   1.375   .     A
C1183  C1243   1.483   .     S
C1184  N1207   1.373   .     A
C1184  C1246   1.481   .     S
C1184  C713    1.434   1_565 S
C1185  C1190   1.424   .     S
C1185  O1213   1.291   .     A
C1185  O1216   1.291   .     A
C1186  O1214   1.290   .     A
C1186  O1215   1.291   .     A
C1186  C1189   1.423   .     S
C1187  C1197   1.384   .     A
C1187  H1201   1.085   .     S
C1187  C1189   1.379   .     A
C1188  C1198   1.385   .     A
C1188  H1202   1.085   .     S
C1188  C1190   1.380   .     A
C1189  C1191   1.399   .     A
C1190  C1192   1.398   .     A
C1191  N1219   1.438   .     S
C1191  C1193   1.412   .     A
C1192  C1194   1.409   .     A
C1192  N1222   1.438   .     S
C1193  C1199   1.425   .     A
C1193  C1195   1.430   .     A
C1194  C1196   1.428   .     A
C1194  C1200   1.421   .     A
C1195  C1197   1.417   .     A
C1195  C494    1.398   1_556 S
C1196  C1198   1.415   .     A
C1199  C1225   1.487   .     S
C1199  C471    1.406   1_556 S
C1200  C1228   1.487   .     S
N1207  Zn1217  2.030   .     S
N1208  Zn1218  2.030   .     S
O1209  Zn1217  2.001   .     S
O1210  Zn1218  2.001   .     S
O1211  Zn1217  1.999   .     S
O1212  Zn1218  1.999   .     S
O1213  Zn1217  2.009   .     S
O1214  Zn1218  2.009   .     S
O1215  Zn1217  2.009   .     S
O1216  Zn1218  2.009   .     S
N1219  H1221   1.046   .     S
N1219  H1220   1.045   .     S
N1222  H1224   1.045   .     S
N1222  H1223   1.046   .     S
C1225  H1226   1.085   .     S
C1225  O1227   1.221   .     D
C1228  O1230   1.221   .     D
C1228  H1229   1.085   .     S
N1231  H1233   1.045   .     S
N1231  H1232   1.045   .     S
N1234  H1236   1.045   .     S
N1234  H1235   1.046   .     S
C1237  H1238   1.074   .     S
C1237  O1239   1.221   .     D
C1240  H1241   1.075   .     S
C1240  O1242   1.221   .     D
C1243  H1244   1.074   .     S
C1243  O1245   1.221   .     D
C1246  O1248   1.221   .     D
C1246  H1247   1.076   .     S
C1249  C1258   1.421   .     S
C1249  O1287   1.291   .     A
C1249  O1290   1.291   .     A
C1250  O1289   1.290   .     A
C1250  O1288   1.292   .     A
C1250  C1257   1.421   .     S
C1251  C1276   1.405   .     A
C1251  N1309   1.439   .     S
C1252  C1275   1.406   .     A
C1252  N1312   1.439   .     S
C1252  C576    1.402   1_556 S
C1253  H1281   1.083   .     S
C1253  C1258   1.397   .     A
C1254  C1257   1.398   .     A
C1254  H1282   1.084   .     S
C1254  C1334   1.370   .     S
C1255  C1257   1.396   .     A
C1255  H1283   1.082   .     S
C1255  C1331   1.368   .     S
C1256  H1284   1.084   .     S
C1256  C1258   1.397   .     A
C1259  C1315   1.483   .     S
C1259  N1286   1.376   .     A
C1260  N1285   1.374   .     A
C1260  C1318   1.481   .     S
C1260  C793    1.433   1_565 S
C1261  N1286   1.375   .     A
C1261  C1321   1.483   .     S
C1262  N1285   1.373   .     A
C1262  C1324   1.481   .     S
C1262  C791    1.434   1_565 S
C1263  C1268   1.424   .     S
C1263  O1291   1.291   .     A
C1263  O1294   1.291   .     A
C1264  O1292   1.290   .     A
C1264  O1293   1.291   .     A
C1264  C1267   1.423   .     S
C1265  C1275   1.384   .     A
C1265  H1279   1.085   .     S
C1265  C1267   1.379   .     A
C1266  C1276   1.385   .     A
C1266  H1280   1.085   .     S
C1266  C1268   1.380   .     A
C1267  C1269   1.399   .     A
C1268  C1270   1.398   .     A
C1269  N1297   1.438   .     S
C1269  C1271   1.412   .     A
C1270  C1272   1.409   .     A
C1270  N1300   1.438   .     S
C1271  C1277   1.425   .     A
C1271  C1273   1.430   .     A
C1272  C1274   1.428   .     A
C1272  C1278   1.421   .     A
C1273  C1275   1.417   .     A
C1273  C572    1.398   1_556 S
C1274  C1276   1.415   .     A
C1277  C1303   1.487   .     S
C1277  C549    1.406   1_556 S
C1278  C1306   1.487   .     S
N1285  Zn1295  2.030   .     S
N1286  Zn1296  2.030   .     S
O1287  Zn1295  2.001   .     S
O1288  Zn1296  2.001   .     S
O1289  Zn1295  1.999   .     S
O1290  Zn1296  1.999   .     S
O1291  Zn1295  2.009   .     S
O1292  Zn1296  2.009   .     S
O1293  Zn1295  2.009   .     S
O1294  Zn1296  2.009   .     S
N1297  H1299   1.046   .     S
N1297  H1298   1.045   .     S
N1300  H1302   1.045   .     S
N1300  H1301   1.046   .     S
C1303  H1304   1.085   .     S
C1303  O1305   1.221   .     D
C1306  O1308   1.221   .     D
C1306  H1307   1.085   .     S
N1309  H1311   1.045   .     S
N1309  H1310   1.045   .     S
N1312  H1314   1.045   .     S
N1312  H1313   1.046   .     S
C1315  H1316   1.074   .     S
C1315  O1317   1.221   .     D
C1318  H1319   1.075   .     S
C1318  O1320   1.221   .     D
C1321  H1322   1.074   .     S
C1321  O1323   1.221   .     D
C1324  O1326   1.221   .     D
C1324  H1325   1.076   .     S
C1327  C1336   1.421   .     S
C1327  O1365   1.291   .     A
C1327  O1368   1.291   .     A
C1328  O1367   1.290   .     A
C1328  O1366   1.292   .     A
C1328  C1335   1.421   .     S
C1329  C1354   1.405   .     A
C1329  N1387   1.439   .     S
C1330  C1353   1.406   .     A
C1330  N1390   1.439   .     S
C1330  C654    1.402   1_556 S
C1331  H1359   1.083   .     S
C1331  C1336   1.397   .     A
C1332  C1335   1.398   .     A
C1332  H1360   1.084   .     S
C1332  C1178   1.370   1_655 S
C1333  C1335   1.396   .     A
C1333  H1361   1.082   .     S
C1333  C1175   1.368   1_655 S
C1334  H1362   1.084   .     S
C1334  C1336   1.397   .     A
C1337  C1393   1.483   .     S
C1337  N1364   1.376   .     A
C1338  N1363   1.374   .     A
C1338  C1396   1.481   .     S
C1338  C871    1.433   1_565 S
C1339  N1364   1.375   .     A
C1339  C1399   1.483   .     S
C1340  N1363   1.373   .     A
C1340  C1402   1.481   .     S
C1340  C869    1.434   1_565 S
C1341  C1346   1.424   .     S
C1341  O1369   1.291   .     A
C1341  O1372   1.291   .     A
C1342  O1370   1.290   .     A
C1342  O1371   1.291   .     A
C1342  C1345   1.423   .     S
C1343  C1353   1.384   .     A
C1343  H1357   1.085   .     S
C1343  C1345   1.379   .     A
C1344  C1354   1.385   .     A
C1344  H1358   1.085   .     S
C1344  C1346   1.380   .     A
C1345  C1347   1.399   .     A
C1346  C1348   1.398   .     A
C1347  N1375   1.438   .     S
C1347  C1349   1.412   .     A
C1348  C1350   1.409   .     A
C1348  N1378   1.438   .     S
C1349  C1355   1.425   .     A
C1349  C1351   1.430   .     A
C1350  C1352   1.428   .     A
C1350  C1356   1.421   .     A
C1351  C1353   1.417   .     A
C1351  C650    1.398   1_556 S
C1352  C1354   1.415   .     A
C1355  C1381   1.487   .     S
C1355  C627    1.406   1_556 S
C1356  C1384   1.487   .     S
N1363  Zn1373  2.030   .     S
N1364  Zn1374  2.030   .     S
O1365  Zn1373  2.001   .     S
O1366  Zn1374  2.001   .     S
O1367  Zn1373  1.999   .     S
O1368  Zn1374  1.999   .     S
O1369  Zn1373  2.009   .     S
O1370  Zn1374  2.009   .     S
O1371  Zn1373  2.009   .     S
O1372  Zn1374  2.009   .     S
N1375  H1377   1.046   .     S
N1375  H1376   1.045   .     S
N1378  H1380   1.045   .     S
N1378  H1379   1.046   .     S
C1381  H1382   1.085   .     S
C1381  O1383   1.221   .     D
C1384  O1386   1.221   .     D
C1384  H1385   1.085   .     S
N1387  H1389   1.045   .     S
N1387  H1388   1.045   .     S
N1390  H1392   1.045   .     S
N1390  H1391   1.046   .     S
C1393  H1394   1.074   .     S
C1393  O1395   1.221   .     D
C1396  H1397   1.075   .     S
C1396  O1398   1.221   .     D
C1399  H1400   1.074   .     S
C1399  O1401   1.221   .     D
C1402  O1404   1.221   .     D
C1402  H1403   1.076   .     S
