data_str_m3_o1_o16_pcu_sym.193
_audit_creation_date              2020-01-03
_audit_creation_method            'Materials Studio'
_symmetry_space_group_name_H-M    'P1'
_symmetry_Int_Tables_number       1
_symmetry_cell_setting            triclinic
loop_
_symmetry_equiv_pos_as_xyz
  x,y,z
_cell_length_a                    29.6654
_cell_length_b                    32.0203
_cell_length_c                    26.3115
_cell_angle_alpha                 90.5046
_cell_angle_beta                  69.7201
_cell_angle_gamma                 89.4438
loop_
_atom_site_label
_atom_site_type_symbol
_atom_site_fract_x
_atom_site_fract_y
_atom_site_fract_z
_atom_site_U_iso_or_equiv
_atom_site_adp_type
_atom_site_occupancy
O1     O     0.12846   0.22775   0.25000   0.00000  Uiso   1.00
O2     O     0.20490   0.22774   0.25000   0.00000  Uiso   1.00
C3     C     0.16640   0.24654   0.25036   0.00000  Uiso   1.00
O4     O     0.10947   0.16666   0.32681   0.00000  Uiso   1.00
O5     O     0.18591   0.16665   0.32681   0.00000  Uiso   1.00
C6     C     0.14005   0.16374   0.35194   0.00000  Uiso   1.00
Zn7    Zn    0.11562   0.16667   0.25000   0.00000  Uiso   1.00
Zn8    Zn    0.21771   0.16666   0.25000   0.00000  Uiso   1.00
O9     O     0.12843   0.10559   0.24999   0.00000  Uiso   1.00
O10    O     0.20488   0.10558   0.24999   0.00000  Uiso   1.00
O11    O     0.14742   0.16668   0.17319   0.00000  Uiso   1.00
O12    O     0.22387   0.16667   0.17319   0.00000  Uiso   1.00
C13    C     0.16615   0.08671   0.25172   0.00000  Uiso   1.00
C14    C     0.19339   0.16705   0.14774   0.00000  Uiso   1.00
C15    C     0.26468   0.13511   0.00464   0.00000  Uiso   1.00
H16    H     0.28296   0.14447   0.07557   0.00000  Uiso   1.00
H17    H     0.29985   0.12190   0.48297   0.00000  Uiso   1.00
C18    C     0.20958   0.16310   0.08886   0.00000  Uiso   1.00
C19    C     0.07610   0.17099   0.44179   0.00000  Uiso   1.00
C20    C     0.06243   0.17365   0.49778   0.00000  Uiso   1.00
C21    C     0.09625   0.16671   0.02266   0.00000  Uiso   1.00
C22    C     0.14432   0.15500   0.49160   0.00000  Uiso   1.00
C23    C     0.15517   0.14500   0.43657   0.00000  Uiso   1.00
C24    C     0.18201   0.15328   0.01304   0.00000  Uiso   1.00
C25    C     0.22831   0.13705   0.48145   0.00000  Uiso   1.00
C26    C     0.23622   0.12188   0.42857   0.00000  Uiso   1.00
C27    C     0.19869   0.12379   0.40824   0.00000  Uiso   1.00
C28    C     0.17506   0.16878   0.06482   0.00000  Uiso   1.00
C29    C     0.25521   0.14788   0.05808   0.00000  Uiso   1.00
C30    C     0.12290   0.15805   0.41069   0.00000  Uiso   1.00
H31    H     0.14213   0.18469   0.08818   0.00000  Uiso   1.00
H32    H     0.05058   0.18027   0.42279   0.00000  Uiso   1.00
H33    H     0.08349   0.17007   0.06618   0.00000  Uiso   1.00
H34    H     0.02612   0.18318   0.02182   0.00000  Uiso   1.00
H35    H     0.20459   0.10977   0.36884   0.00000  Uiso   1.00
C36    C     0.20656   0.31141   0.22011   0.00000  Uiso   1.00
H37    H     0.23820   0.29468   0.19402   0.00000  Uiso   1.00
C38    C     0.20603   0.02080   0.22094   0.00000  Uiso   1.00
H39    H     0.23693   0.03691   0.19472   0.00000  Uiso   1.00
C40    C     0.16523   0.04241   0.25399   0.00000  Uiso   1.00
C41    C     0.12408   0.02134   0.28725   0.00000  Uiso   1.00
C42    C     0.12475   0.31152   0.28515   0.00000  Uiso   1.00
H43    H     0.09381   0.29417   0.30995   0.00000  Uiso   1.00
C44    C     0.16577   0.29053   0.25168   0.00000  Uiso   1.00
C45    C     0.31793   0.13468   0.22582   0.00000  Uiso   1.00
C46    C     0.03212   0.13486   0.22634   0.00000  Uiso   1.00
H47    H     0.05710   0.10982   0.20683   0.00000  Uiso   1.00
N48    N     0.04760   0.16668   0.25001   0.00000  Uiso   1.00
C49    C     0.01595   0.19826   0.27466   0.00000  Uiso   1.00
H50    H     0.02758   0.22359   0.29442   0.00000  Uiso   1.00
C51    C     0.30140   0.19820   0.27476   0.00000  Uiso   1.00
H52    H     0.27702   0.22347   0.29462   0.00000  Uiso   1.00
N53    N     0.28573   0.16665   0.25000   0.00000  Uiso   1.00
C54    C     0.08018   0.04371   0.32530   0.00000  Uiso   1.00
H55    H     0.09091   0.06692   0.35046   0.00000  Uiso   1.00
H56    H     0.06061   0.05953   0.30165   0.00000  Uiso   1.00
H57    H     0.05489   0.02175   0.35322   0.00000  Uiso   1.00
C58    C     0.30561   0.09959   0.19710   0.00000  Uiso   1.00
O59    O     0.31341   0.06380   0.20805   0.00000  Uiso   1.00
O60    O     0.28966   0.10713   0.15408   0.00000  Uiso   1.00
H61    H     0.28733   0.08077   0.13360   0.00000  Uiso   1.00
C62    C     0.28398   0.10733   0.39137   0.00000  Uiso   1.00
O63    O     0.28735   0.07578   0.36368   0.00000  Uiso   1.00
O64    O     0.32462   0.13124   0.38544   0.00000  Uiso   1.00
H65    H     0.02140   0.11931   0.35720   0.00000  Uiso   1.00
O66    O     0.46179   0.22775   0.25000   0.00000  Uiso   1.00
O67    O     0.53823   0.22774   0.25000   0.00000  Uiso   1.00
C68    C     0.49974   0.24654   0.25036   0.00000  Uiso   1.00
O69    O     0.44280   0.16666   0.32681   0.00000  Uiso   1.00
O70    O     0.51924   0.16665   0.32681   0.00000  Uiso   1.00
C71    C     0.47338   0.16374   0.35194   0.00000  Uiso   1.00
Zn72   Zn    0.44896   0.16667   0.25000   0.00000  Uiso   1.00
Zn73   Zn    0.55104   0.16666   0.25000   0.00000  Uiso   1.00
O74    O     0.46177   0.10559   0.24999   0.00000  Uiso   1.00
O75    O     0.53821   0.10558   0.24999   0.00000  Uiso   1.00
O76    O     0.48076   0.16668   0.17319   0.00000  Uiso   1.00
O77    O     0.55720   0.16667   0.17319   0.00000  Uiso   1.00
C78    C     0.49949   0.08671   0.25172   0.00000  Uiso   1.00
C79    C     0.52672   0.16705   0.14774   0.00000  Uiso   1.00
C80    C     0.59802   0.13511   0.00464   0.00000  Uiso   1.00
H81    H     0.61630   0.14447   0.07557   0.00000  Uiso   1.00
H82    H     0.63318   0.12190   0.48297   0.00000  Uiso   1.00
C83    C     0.54292   0.16310   0.08886   0.00000  Uiso   1.00
C84    C     0.40944   0.17099   0.44179   0.00000  Uiso   1.00
C85    C     0.39576   0.17365   0.49778   0.00000  Uiso   1.00
C86    C     0.42959   0.16671   0.02266   0.00000  Uiso   1.00
C87    C     0.47766   0.15500   0.49160   0.00000  Uiso   1.00
C88    C     0.48850   0.14500   0.43657   0.00000  Uiso   1.00
C89    C     0.51534   0.15328   0.01304   0.00000  Uiso   1.00
C90    C     0.56165   0.13705   0.48145   0.00000  Uiso   1.00
C91    C     0.56956   0.12188   0.42857   0.00000  Uiso   1.00
C92    C     0.53203   0.12379   0.40824   0.00000  Uiso   1.00
C93    C     0.50840   0.16878   0.06482   0.00000  Uiso   1.00
C94    C     0.58854   0.14788   0.05808   0.00000  Uiso   1.00
C95    C     0.45624   0.15805   0.41069   0.00000  Uiso   1.00
H96    H     0.47546   0.18469   0.08818   0.00000  Uiso   1.00
H97    H     0.38391   0.18027   0.42279   0.00000  Uiso   1.00
H98    H     0.41682   0.17007   0.06618   0.00000  Uiso   1.00
H99    H     0.35945   0.18318   0.02182   0.00000  Uiso   1.00
H100   H     0.53792   0.10977   0.36884   0.00000  Uiso   1.00
C101   C     0.53989   0.31141   0.22011   0.00000  Uiso   1.00
H102   H     0.57153   0.29468   0.19402   0.00000  Uiso   1.00
C103   C     0.53936   0.02080   0.22094   0.00000  Uiso   1.00
H104   H     0.57026   0.03691   0.19472   0.00000  Uiso   1.00
C105   C     0.49856   0.04241   0.25399   0.00000  Uiso   1.00
C106   C     0.45741   0.02134   0.28725   0.00000  Uiso   1.00
C107   C     0.45808   0.31152   0.28515   0.00000  Uiso   1.00
H108   H     0.42715   0.29417   0.30995   0.00000  Uiso   1.00
C109   C     0.49910   0.29053   0.25168   0.00000  Uiso   1.00
C110   C     0.65126   0.13468   0.22582   0.00000  Uiso   1.00
C111   C     0.36546   0.13486   0.22634   0.00000  Uiso   1.00
H112   H     0.39043   0.10982   0.20683   0.00000  Uiso   1.00
N113   N     0.38093   0.16668   0.25001   0.00000  Uiso   1.00
C114   C     0.34928   0.19826   0.27466   0.00000  Uiso   1.00
H115   H     0.36091   0.22359   0.29442   0.00000  Uiso   1.00
C116   C     0.63473   0.19820   0.27476   0.00000  Uiso   1.00
H117   H     0.61035   0.22347   0.29462   0.00000  Uiso   1.00
N118   N     0.61906   0.16665   0.25000   0.00000  Uiso   1.00
C119   C     0.41352   0.04371   0.32530   0.00000  Uiso   1.00
H120   H     0.42424   0.06692   0.35046   0.00000  Uiso   1.00
H121   H     0.39395   0.05953   0.30165   0.00000  Uiso   1.00
H122   H     0.38823   0.02175   0.35322   0.00000  Uiso   1.00
C123   C     0.63895   0.09959   0.19710   0.00000  Uiso   1.00
O124   O     0.64674   0.06380   0.20805   0.00000  Uiso   1.00
O125   O     0.62300   0.10713   0.15408   0.00000  Uiso   1.00
H126   H     0.62066   0.08077   0.13360   0.00000  Uiso   1.00
C127   C     0.61731   0.10733   0.39137   0.00000  Uiso   1.00
O128   O     0.62069   0.07578   0.36368   0.00000  Uiso   1.00
O129   O     0.65795   0.13124   0.38544   0.00000  Uiso   1.00
H130   H     0.35473   0.11931   0.35720   0.00000  Uiso   1.00
O131   O     0.79512   0.22775   0.25000   0.00000  Uiso   1.00
O132   O     0.87157   0.22774   0.25000   0.00000  Uiso   1.00
C133   C     0.83307   0.24654   0.25036   0.00000  Uiso   1.00
O134   O     0.77613   0.16666   0.32681   0.00000  Uiso   1.00
O135   O     0.85258   0.16665   0.32681   0.00000  Uiso   1.00
C136   C     0.80672   0.16374   0.35194   0.00000  Uiso   1.00
Zn137  Zn    0.78229   0.16667   0.25000   0.00000  Uiso   1.00
Zn138  Zn    0.88438   0.16666   0.25000   0.00000  Uiso   1.00
O139   O     0.79510   0.10559   0.24999   0.00000  Uiso   1.00
O140   O     0.87154   0.10558   0.24999   0.00000  Uiso   1.00
O141   O     0.81409   0.16668   0.17319   0.00000  Uiso   1.00
O142   O     0.89053   0.16667   0.17319   0.00000  Uiso   1.00
C143   C     0.83282   0.08671   0.25172   0.00000  Uiso   1.00
C144   C     0.86006   0.16705   0.14774   0.00000  Uiso   1.00
C145   C     0.93135   0.13511   0.00464   0.00000  Uiso   1.00
H146   H     0.94963   0.14447   0.07557   0.00000  Uiso   1.00
H147   H     0.96652   0.12190   0.48297   0.00000  Uiso   1.00
C148   C     0.87625   0.16310   0.08886   0.00000  Uiso   1.00
C149   C     0.74277   0.17099   0.44179   0.00000  Uiso   1.00
C150   C     0.72909   0.17365   0.49778   0.00000  Uiso   1.00
C151   C     0.76292   0.16671   0.02266   0.00000  Uiso   1.00
C152   C     0.81099   0.15500   0.49160   0.00000  Uiso   1.00
C153   C     0.82184   0.14500   0.43657   0.00000  Uiso   1.00
C154   C     0.84868   0.15328   0.01304   0.00000  Uiso   1.00
C155   C     0.89498   0.13705   0.48145   0.00000  Uiso   1.00
C156   C     0.90289   0.12188   0.42857   0.00000  Uiso   1.00
C157   C     0.86536   0.12379   0.40824   0.00000  Uiso   1.00
C158   C     0.84173   0.16878   0.06482   0.00000  Uiso   1.00
C159   C     0.92187   0.14788   0.05808   0.00000  Uiso   1.00
C160   C     0.78957   0.15805   0.41069   0.00000  Uiso   1.00
H161   H     0.80879   0.18469   0.08818   0.00000  Uiso   1.00
H162   H     0.71724   0.18027   0.42279   0.00000  Uiso   1.00
H163   H     0.75016   0.17007   0.06618   0.00000  Uiso   1.00
H164   H     0.69279   0.18318   0.02182   0.00000  Uiso   1.00
H165   H     0.87126   0.10977   0.36884   0.00000  Uiso   1.00
C166   C     0.87323   0.31141   0.22011   0.00000  Uiso   1.00
H167   H     0.90486   0.29468   0.19402   0.00000  Uiso   1.00
C168   C     0.87269   0.02080   0.22094   0.00000  Uiso   1.00
H169   H     0.90360   0.03691   0.19472   0.00000  Uiso   1.00
C170   C     0.83189   0.04241   0.25399   0.00000  Uiso   1.00
C171   C     0.79075   0.02134   0.28725   0.00000  Uiso   1.00
C172   C     0.79141   0.31152   0.28515   0.00000  Uiso   1.00
H173   H     0.76048   0.29417   0.30995   0.00000  Uiso   1.00
C174   C     0.83244   0.29053   0.25168   0.00000  Uiso   1.00
C175   C     0.98460   0.13468   0.22582   0.00000  Uiso   1.00
C176   C     0.69879   0.13486   0.22634   0.00000  Uiso   1.00
H177   H     0.72376   0.10982   0.20683   0.00000  Uiso   1.00
N178   N     0.71426   0.16668   0.25001   0.00000  Uiso   1.00
C179   C     0.68261   0.19826   0.27466   0.00000  Uiso   1.00
H180   H     0.69425   0.22359   0.29442   0.00000  Uiso   1.00
C181   C     0.96806   0.19820   0.27476   0.00000  Uiso   1.00
H182   H     0.94369   0.22347   0.29462   0.00000  Uiso   1.00
N183   N     0.95239   0.16665   0.25000   0.00000  Uiso   1.00
C184   C     0.74685   0.04371   0.32530   0.00000  Uiso   1.00
H185   H     0.75757   0.06692   0.35046   0.00000  Uiso   1.00
H186   H     0.72728   0.05953   0.30165   0.00000  Uiso   1.00
H187   H     0.72156   0.02175   0.35322   0.00000  Uiso   1.00
C188   C     0.97228   0.09959   0.19710   0.00000  Uiso   1.00
O189   O     0.98008   0.06380   0.20805   0.00000  Uiso   1.00
O190   O     0.95633   0.10713   0.15408   0.00000  Uiso   1.00
H191   H     0.95400   0.08077   0.13360   0.00000  Uiso   1.00
C192   C     0.95064   0.10733   0.39137   0.00000  Uiso   1.00
O193   O     0.95402   0.07578   0.36368   0.00000  Uiso   1.00
O194   O     0.99129   0.13124   0.38544   0.00000  Uiso   1.00
H195   H     0.68807   0.11931   0.35720   0.00000  Uiso   1.00
O196   O     0.12846   0.56108   0.25000   0.00000  Uiso   1.00
O197   O     0.20490   0.56107   0.25000   0.00000  Uiso   1.00
C198   C     0.16640   0.57987   0.25036   0.00000  Uiso   1.00
O199   O     0.10947   0.50000   0.32681   0.00000  Uiso   1.00
O200   O     0.18591   0.49999   0.32681   0.00000  Uiso   1.00
C201   C     0.14005   0.49707   0.35194   0.00000  Uiso   1.00
Zn202  Zn    0.11562   0.50001   0.25000   0.00000  Uiso   1.00
Zn203  Zn    0.21771   0.49999   0.25000   0.00000  Uiso   1.00
O204   O     0.12843   0.43893   0.24999   0.00000  Uiso   1.00
O205   O     0.20488   0.43892   0.24999   0.00000  Uiso   1.00
O206   O     0.14742   0.50001   0.17319   0.00000  Uiso   1.00
O207   O     0.22387   0.50000   0.17319   0.00000  Uiso   1.00
C208   C     0.16615   0.42004   0.25172   0.00000  Uiso   1.00
C209   C     0.19339   0.50038   0.14774   0.00000  Uiso   1.00
C210   C     0.26468   0.46845   0.00464   0.00000  Uiso   1.00
H211   H     0.28296   0.47780   0.07557   0.00000  Uiso   1.00
H212   H     0.29985   0.45524   0.48297   0.00000  Uiso   1.00
C213   C     0.20958   0.49644   0.08886   0.00000  Uiso   1.00
C214   C     0.07610   0.50432   0.44179   0.00000  Uiso   1.00
C215   C     0.06243   0.50698   0.49778   0.00000  Uiso   1.00
C216   C     0.09625   0.50005   0.02266   0.00000  Uiso   1.00
C217   C     0.14432   0.48834   0.49160   0.00000  Uiso   1.00
C218   C     0.15517   0.47833   0.43657   0.00000  Uiso   1.00
C219   C     0.18201   0.48662   0.01304   0.00000  Uiso   1.00
C220   C     0.22831   0.47039   0.48145   0.00000  Uiso   1.00
C221   C     0.23622   0.45522   0.42857   0.00000  Uiso   1.00
C222   C     0.19869   0.45712   0.40824   0.00000  Uiso   1.00
C223   C     0.17506   0.50211   0.06482   0.00000  Uiso   1.00
C224   C     0.25521   0.48121   0.05808   0.00000  Uiso   1.00
C225   C     0.12290   0.49138   0.41069   0.00000  Uiso   1.00
H226   H     0.14213   0.51802   0.08818   0.00000  Uiso   1.00
H227   H     0.05058   0.51361   0.42279   0.00000  Uiso   1.00
H228   H     0.08349   0.50341   0.06618   0.00000  Uiso   1.00
H229   H     0.02612   0.51651   0.02182   0.00000  Uiso   1.00
H230   H     0.20459   0.44310   0.36884   0.00000  Uiso   1.00
C231   C     0.20656   0.64474   0.22011   0.00000  Uiso   1.00
H232   H     0.23820   0.62801   0.19402   0.00000  Uiso   1.00
C233   C     0.20603   0.35414   0.22094   0.00000  Uiso   1.00
H234   H     0.23693   0.37024   0.19472   0.00000  Uiso   1.00
C235   C     0.16523   0.37574   0.25399   0.00000  Uiso   1.00
C236   C     0.12408   0.35467   0.28725   0.00000  Uiso   1.00
C237   C     0.12475   0.64485   0.28515   0.00000  Uiso   1.00
H238   H     0.09381   0.62750   0.30995   0.00000  Uiso   1.00
C239   C     0.16577   0.62386   0.25168   0.00000  Uiso   1.00
C240   C     0.31793   0.46801   0.22582   0.00000  Uiso   1.00
C241   C     0.03212   0.46820   0.22634   0.00000  Uiso   1.00
H242   H     0.05710   0.44315   0.20683   0.00000  Uiso   1.00
N243   N     0.04760   0.50001   0.25001   0.00000  Uiso   1.00
C244   C     0.01595   0.53159   0.27466   0.00000  Uiso   1.00
H245   H     0.02758   0.55692   0.29442   0.00000  Uiso   1.00
C246   C     0.30140   0.53153   0.27476   0.00000  Uiso   1.00
H247   H     0.27702   0.55680   0.29462   0.00000  Uiso   1.00
N248   N     0.28573   0.49998   0.25000   0.00000  Uiso   1.00
C249   C     0.08018   0.37704   0.32530   0.00000  Uiso   1.00
H250   H     0.09091   0.40026   0.35046   0.00000  Uiso   1.00
H251   H     0.06061   0.39286   0.30165   0.00000  Uiso   1.00
H252   H     0.05489   0.35508   0.35322   0.00000  Uiso   1.00
C253   C     0.30561   0.43292   0.19710   0.00000  Uiso   1.00
O254   O     0.31341   0.39713   0.20805   0.00000  Uiso   1.00
O255   O     0.28966   0.44046   0.15408   0.00000  Uiso   1.00
H256   H     0.28733   0.41411   0.13360   0.00000  Uiso   1.00
C257   C     0.28398   0.44066   0.39137   0.00000  Uiso   1.00
O258   O     0.28735   0.40911   0.36368   0.00000  Uiso   1.00
O259   O     0.32462   0.46458   0.38544   0.00000  Uiso   1.00
H260   H     0.02140   0.45264   0.35720   0.00000  Uiso   1.00
O261   O     0.46179   0.56108   0.25000   0.00000  Uiso   1.00
O262   O     0.53823   0.56107   0.25000   0.00000  Uiso   1.00
C263   C     0.49974   0.57987   0.25036   0.00000  Uiso   1.00
O264   O     0.44280   0.50000   0.32681   0.00000  Uiso   1.00
O265   O     0.51924   0.49999   0.32681   0.00000  Uiso   1.00
C266   C     0.47338   0.49707   0.35194   0.00000  Uiso   1.00
Zn267  Zn    0.44896   0.50001   0.25000   0.00000  Uiso   1.00
Zn268  Zn    0.55104   0.49999   0.25000   0.00000  Uiso   1.00
O269   O     0.46177   0.43893   0.24999   0.00000  Uiso   1.00
O270   O     0.53821   0.43892   0.24999   0.00000  Uiso   1.00
O271   O     0.48076   0.50001   0.17319   0.00000  Uiso   1.00
O272   O     0.55720   0.50000   0.17319   0.00000  Uiso   1.00
C273   C     0.49949   0.42004   0.25172   0.00000  Uiso   1.00
C274   C     0.52672   0.50038   0.14774   0.00000  Uiso   1.00
C275   C     0.59802   0.46845   0.00464   0.00000  Uiso   1.00
H276   H     0.61630   0.47780   0.07557   0.00000  Uiso   1.00
H277   H     0.63318   0.45524   0.48297   0.00000  Uiso   1.00
C278   C     0.54292   0.49644   0.08886   0.00000  Uiso   1.00
C279   C     0.40944   0.50432   0.44179   0.00000  Uiso   1.00
C280   C     0.39576   0.50698   0.49778   0.00000  Uiso   1.00
C281   C     0.42959   0.50005   0.02266   0.00000  Uiso   1.00
C282   C     0.47766   0.48834   0.49160   0.00000  Uiso   1.00
C283   C     0.48850   0.47833   0.43657   0.00000  Uiso   1.00
C284   C     0.51534   0.48662   0.01304   0.00000  Uiso   1.00
C285   C     0.56165   0.47039   0.48145   0.00000  Uiso   1.00
C286   C     0.56956   0.45522   0.42857   0.00000  Uiso   1.00
C287   C     0.53203   0.45712   0.40824   0.00000  Uiso   1.00
C288   C     0.50840   0.50211   0.06482   0.00000  Uiso   1.00
C289   C     0.58854   0.48121   0.05808   0.00000  Uiso   1.00
C290   C     0.45624   0.49138   0.41069   0.00000  Uiso   1.00
H291   H     0.47546   0.51802   0.08818   0.00000  Uiso   1.00
H292   H     0.38391   0.51361   0.42279   0.00000  Uiso   1.00
H293   H     0.41682   0.50341   0.06618   0.00000  Uiso   1.00
H294   H     0.35945   0.51651   0.02182   0.00000  Uiso   1.00
H295   H     0.53792   0.44310   0.36884   0.00000  Uiso   1.00
C296   C     0.53989   0.64474   0.22011   0.00000  Uiso   1.00
H297   H     0.57153   0.62801   0.19402   0.00000  Uiso   1.00
C298   C     0.53936   0.35414   0.22094   0.00000  Uiso   1.00
H299   H     0.57026   0.37024   0.19472   0.00000  Uiso   1.00
C300   C     0.49856   0.37574   0.25399   0.00000  Uiso   1.00
C301   C     0.45741   0.35467   0.28725   0.00000  Uiso   1.00
C302   C     0.45808   0.64485   0.28515   0.00000  Uiso   1.00
H303   H     0.42715   0.62750   0.30995   0.00000  Uiso   1.00
C304   C     0.49910   0.62386   0.25168   0.00000  Uiso   1.00
C305   C     0.65126   0.46801   0.22582   0.00000  Uiso   1.00
C306   C     0.36546   0.46820   0.22634   0.00000  Uiso   1.00
H307   H     0.39043   0.44315   0.20683   0.00000  Uiso   1.00
N308   N     0.38093   0.50001   0.25001   0.00000  Uiso   1.00
C309   C     0.34928   0.53159   0.27466   0.00000  Uiso   1.00
H310   H     0.36091   0.55692   0.29442   0.00000  Uiso   1.00
C311   C     0.63473   0.53153   0.27476   0.00000  Uiso   1.00
H312   H     0.61035   0.55680   0.29462   0.00000  Uiso   1.00
N313   N     0.61906   0.49998   0.25000   0.00000  Uiso   1.00
C314   C     0.41352   0.37704   0.32530   0.00000  Uiso   1.00
H315   H     0.42424   0.40026   0.35046   0.00000  Uiso   1.00
H316   H     0.39395   0.39286   0.30165   0.00000  Uiso   1.00
H317   H     0.38823   0.35508   0.35322   0.00000  Uiso   1.00
C318   C     0.63895   0.43292   0.19710   0.00000  Uiso   1.00
O319   O     0.64674   0.39713   0.20805   0.00000  Uiso   1.00
O320   O     0.62300   0.44046   0.15408   0.00000  Uiso   1.00
H321   H     0.62066   0.41411   0.13360   0.00000  Uiso   1.00
C322   C     0.61731   0.44066   0.39137   0.00000  Uiso   1.00
O323   O     0.62069   0.40911   0.36368   0.00000  Uiso   1.00
O324   O     0.65795   0.46458   0.38544   0.00000  Uiso   1.00
H325   H     0.35473   0.45264   0.35720   0.00000  Uiso   1.00
O326   O     0.79512   0.56108   0.25000   0.00000  Uiso   1.00
O327   O     0.87157   0.56107   0.25000   0.00000  Uiso   1.00
C328   C     0.83307   0.57987   0.25036   0.00000  Uiso   1.00
O329   O     0.77613   0.50000   0.32681   0.00000  Uiso   1.00
O330   O     0.85258   0.49999   0.32681   0.00000  Uiso   1.00
C331   C     0.80672   0.49707   0.35194   0.00000  Uiso   1.00
Zn332  Zn    0.78229   0.50001   0.25000   0.00000  Uiso   1.00
Zn333  Zn    0.88438   0.49999   0.25000   0.00000  Uiso   1.00
O334   O     0.79510   0.43893   0.24999   0.00000  Uiso   1.00
O335   O     0.87154   0.43892   0.24999   0.00000  Uiso   1.00
O336   O     0.81409   0.50001   0.17319   0.00000  Uiso   1.00
O337   O     0.89053   0.50000   0.17319   0.00000  Uiso   1.00
C338   C     0.83282   0.42004   0.25172   0.00000  Uiso   1.00
C339   C     0.86006   0.50038   0.14774   0.00000  Uiso   1.00
C340   C     0.93135   0.46845   0.00464   0.00000  Uiso   1.00
H341   H     0.94963   0.47780   0.07557   0.00000  Uiso   1.00
H342   H     0.96652   0.45524   0.48297   0.00000  Uiso   1.00
C343   C     0.87625   0.49644   0.08886   0.00000  Uiso   1.00
C344   C     0.74277   0.50432   0.44179   0.00000  Uiso   1.00
C345   C     0.72909   0.50698   0.49778   0.00000  Uiso   1.00
C346   C     0.76292   0.50005   0.02266   0.00000  Uiso   1.00
C347   C     0.81099   0.48834   0.49160   0.00000  Uiso   1.00
C348   C     0.82184   0.47833   0.43657   0.00000  Uiso   1.00
C349   C     0.84868   0.48662   0.01304   0.00000  Uiso   1.00
C350   C     0.89498   0.47039   0.48145   0.00000  Uiso   1.00
C351   C     0.90289   0.45522   0.42857   0.00000  Uiso   1.00
C352   C     0.86536   0.45712   0.40824   0.00000  Uiso   1.00
C353   C     0.84173   0.50211   0.06482   0.00000  Uiso   1.00
C354   C     0.92187   0.48121   0.05808   0.00000  Uiso   1.00
C355   C     0.78957   0.49138   0.41069   0.00000  Uiso   1.00
H356   H     0.80879   0.51802   0.08818   0.00000  Uiso   1.00
H357   H     0.71724   0.51361   0.42279   0.00000  Uiso   1.00
H358   H     0.75016   0.50341   0.06618   0.00000  Uiso   1.00
H359   H     0.69279   0.51651   0.02182   0.00000  Uiso   1.00
H360   H     0.87126   0.44310   0.36884   0.00000  Uiso   1.00
C361   C     0.87323   0.64474   0.22011   0.00000  Uiso   1.00
H362   H     0.90486   0.62801   0.19402   0.00000  Uiso   1.00
C363   C     0.87269   0.35414   0.22094   0.00000  Uiso   1.00
H364   H     0.90360   0.37024   0.19472   0.00000  Uiso   1.00
C365   C     0.83189   0.37574   0.25399   0.00000  Uiso   1.00
C366   C     0.79075   0.35467   0.28725   0.00000  Uiso   1.00
C367   C     0.79141   0.64485   0.28515   0.00000  Uiso   1.00
H368   H     0.76048   0.62750   0.30995   0.00000  Uiso   1.00
C369   C     0.83244   0.62386   0.25168   0.00000  Uiso   1.00
C370   C     0.98460   0.46801   0.22582   0.00000  Uiso   1.00
C371   C     0.69879   0.46820   0.22634   0.00000  Uiso   1.00
H372   H     0.72376   0.44315   0.20683   0.00000  Uiso   1.00
N373   N     0.71426   0.50001   0.25001   0.00000  Uiso   1.00
C374   C     0.68261   0.53159   0.27466   0.00000  Uiso   1.00
H375   H     0.69425   0.55692   0.29442   0.00000  Uiso   1.00
C376   C     0.96806   0.53153   0.27476   0.00000  Uiso   1.00
H377   H     0.94369   0.55680   0.29462   0.00000  Uiso   1.00
N378   N     0.95239   0.49998   0.25000   0.00000  Uiso   1.00
C379   C     0.74685   0.37704   0.32530   0.00000  Uiso   1.00
H380   H     0.75757   0.40026   0.35046   0.00000  Uiso   1.00
H381   H     0.72728   0.39286   0.30165   0.00000  Uiso   1.00
H382   H     0.72156   0.35508   0.35322   0.00000  Uiso   1.00
C383   C     0.97228   0.43292   0.19710   0.00000  Uiso   1.00
O384   O     0.98008   0.39713   0.20805   0.00000  Uiso   1.00
O385   O     0.95633   0.44046   0.15408   0.00000  Uiso   1.00
H386   H     0.95400   0.41411   0.13360   0.00000  Uiso   1.00
C387   C     0.95064   0.44066   0.39137   0.00000  Uiso   1.00
O388   O     0.95402   0.40911   0.36368   0.00000  Uiso   1.00
O389   O     0.99129   0.46458   0.38544   0.00000  Uiso   1.00
H390   H     0.68807   0.45264   0.35720   0.00000  Uiso   1.00
O391   O     0.12846   0.89442   0.25000   0.00000  Uiso   1.00
O392   O     0.20490   0.89441   0.25000   0.00000  Uiso   1.00
C393   C     0.16640   0.91320   0.25036   0.00000  Uiso   1.00
O394   O     0.10947   0.83333   0.32681   0.00000  Uiso   1.00
O395   O     0.18591   0.83332   0.32681   0.00000  Uiso   1.00
C396   C     0.14005   0.83040   0.35194   0.00000  Uiso   1.00
Zn397  Zn    0.11562   0.83334   0.25000   0.00000  Uiso   1.00
Zn398  Zn    0.21771   0.83333   0.25000   0.00000  Uiso   1.00
O399   O     0.12843   0.77226   0.24999   0.00000  Uiso   1.00
O400   O     0.20488   0.77225   0.24999   0.00000  Uiso   1.00
O401   O     0.14742   0.83335   0.17319   0.00000  Uiso   1.00
O402   O     0.22387   0.83334   0.17319   0.00000  Uiso   1.00
C403   C     0.16615   0.75338   0.25172   0.00000  Uiso   1.00
C404   C     0.19339   0.83371   0.14774   0.00000  Uiso   1.00
C405   C     0.26468   0.80178   0.00464   0.00000  Uiso   1.00
H406   H     0.28296   0.81113   0.07557   0.00000  Uiso   1.00
H407   H     0.29985   0.78857   0.48297   0.00000  Uiso   1.00
C408   C     0.20958   0.82977   0.08886   0.00000  Uiso   1.00
C409   C     0.07610   0.83765   0.44179   0.00000  Uiso   1.00
C410   C     0.06243   0.84031   0.49778   0.00000  Uiso   1.00
C411   C     0.09625   0.83338   0.02266   0.00000  Uiso   1.00
C412   C     0.14432   0.82167   0.49160   0.00000  Uiso   1.00
C413   C     0.15517   0.81166   0.43657   0.00000  Uiso   1.00
C414   C     0.18201   0.81995   0.01304   0.00000  Uiso   1.00
C415   C     0.22831   0.80372   0.48145   0.00000  Uiso   1.00
C416   C     0.23622   0.78855   0.42857   0.00000  Uiso   1.00
C417   C     0.19869   0.79045   0.40824   0.00000  Uiso   1.00
C418   C     0.17506   0.83545   0.06482   0.00000  Uiso   1.00
C419   C     0.25521   0.81455   0.05808   0.00000  Uiso   1.00
C420   C     0.12290   0.82472   0.41069   0.00000  Uiso   1.00
H421   H     0.14213   0.85135   0.08818   0.00000  Uiso   1.00
H422   H     0.05058   0.84694   0.42279   0.00000  Uiso   1.00
H423   H     0.08349   0.83674   0.06618   0.00000  Uiso   1.00
H424   H     0.02612   0.84985   0.02182   0.00000  Uiso   1.00
H425   H     0.20459   0.77643   0.36884   0.00000  Uiso   1.00
C426   C     0.20656   0.97808   0.22011   0.00000  Uiso   1.00
H427   H     0.23820   0.96135   0.19402   0.00000  Uiso   1.00
C428   C     0.20603   0.68747   0.22094   0.00000  Uiso   1.00
H429   H     0.23693   0.70357   0.19472   0.00000  Uiso   1.00
C430   C     0.16523   0.70908   0.25399   0.00000  Uiso   1.00
C431   C     0.12408   0.68800   0.28725   0.00000  Uiso   1.00
C432   C     0.12475   0.97818   0.28515   0.00000  Uiso   1.00
H433   H     0.09381   0.96083   0.30995   0.00000  Uiso   1.00
C434   C     0.16577   0.95719   0.25168   0.00000  Uiso   1.00
C435   C     0.31793   0.80134   0.22582   0.00000  Uiso   1.00
C436   C     0.03212   0.80153   0.22634   0.00000  Uiso   1.00
H437   H     0.05710   0.77649   0.20683   0.00000  Uiso   1.00
N438   N     0.04760   0.83334   0.25001   0.00000  Uiso   1.00
C439   C     0.01595   0.86492   0.27466   0.00000  Uiso   1.00
H440   H     0.02758   0.89026   0.29442   0.00000  Uiso   1.00
C441   C     0.30140   0.86487   0.27476   0.00000  Uiso   1.00
H442   H     0.27702   0.89013   0.29462   0.00000  Uiso   1.00
N443   N     0.28573   0.83331   0.25000   0.00000  Uiso   1.00
C444   C     0.08018   0.71037   0.32530   0.00000  Uiso   1.00
H445   H     0.09091   0.73359   0.35046   0.00000  Uiso   1.00
H446   H     0.06061   0.72619   0.30165   0.00000  Uiso   1.00
H447   H     0.05489   0.68841   0.35322   0.00000  Uiso   1.00
C448   C     0.30561   0.76625   0.19710   0.00000  Uiso   1.00
O449   O     0.31341   0.73047   0.20805   0.00000  Uiso   1.00
O450   O     0.28966   0.77380   0.15408   0.00000  Uiso   1.00
H451   H     0.28733   0.74744   0.13360   0.00000  Uiso   1.00
C452   C     0.28398   0.77400   0.39137   0.00000  Uiso   1.00
O453   O     0.28735   0.74244   0.36368   0.00000  Uiso   1.00
O454   O     0.32462   0.79791   0.38544   0.00000  Uiso   1.00
H455   H     0.02140   0.78598   0.35720   0.00000  Uiso   1.00
O456   O     0.46179   0.89442   0.25000   0.00000  Uiso   1.00
O457   O     0.53823   0.89441   0.25000   0.00000  Uiso   1.00
C458   C     0.49974   0.91320   0.25036   0.00000  Uiso   1.00
O459   O     0.44280   0.83333   0.32681   0.00000  Uiso   1.00
O460   O     0.51924   0.83332   0.32681   0.00000  Uiso   1.00
C461   C     0.47338   0.83040   0.35194   0.00000  Uiso   1.00
Zn462  Zn    0.44896   0.83334   0.25000   0.00000  Uiso   1.00
Zn463  Zn    0.55104   0.83333   0.25000   0.00000  Uiso   1.00
O464   O     0.46177   0.77226   0.24999   0.00000  Uiso   1.00
O465   O     0.53821   0.77225   0.24999   0.00000  Uiso   1.00
O466   O     0.48076   0.83335   0.17319   0.00000  Uiso   1.00
O467   O     0.55720   0.83334   0.17319   0.00000  Uiso   1.00
C468   C     0.49949   0.75338   0.25172   0.00000  Uiso   1.00
C469   C     0.52672   0.83371   0.14774   0.00000  Uiso   1.00
C470   C     0.59802   0.80178   0.00464   0.00000  Uiso   1.00
H471   H     0.61630   0.81113   0.07557   0.00000  Uiso   1.00
H472   H     0.63318   0.78857   0.48297   0.00000  Uiso   1.00
C473   C     0.54292   0.82977   0.08886   0.00000  Uiso   1.00
C474   C     0.40944   0.83765   0.44179   0.00000  Uiso   1.00
C475   C     0.39576   0.84031   0.49778   0.00000  Uiso   1.00
C476   C     0.42959   0.83338   0.02266   0.00000  Uiso   1.00
C477   C     0.47766   0.82167   0.49160   0.00000  Uiso   1.00
C478   C     0.48850   0.81166   0.43657   0.00000  Uiso   1.00
C479   C     0.51534   0.81995   0.01304   0.00000  Uiso   1.00
C480   C     0.56165   0.80372   0.48145   0.00000  Uiso   1.00
C481   C     0.56956   0.78855   0.42857   0.00000  Uiso   1.00
C482   C     0.53203   0.79045   0.40824   0.00000  Uiso   1.00
C483   C     0.50840   0.83545   0.06482   0.00000  Uiso   1.00
C484   C     0.58854   0.81455   0.05808   0.00000  Uiso   1.00
C485   C     0.45624   0.82472   0.41069   0.00000  Uiso   1.00
H486   H     0.47546   0.85135   0.08818   0.00000  Uiso   1.00
H487   H     0.38391   0.84694   0.42279   0.00000  Uiso   1.00
H488   H     0.41682   0.83674   0.06618   0.00000  Uiso   1.00
H489   H     0.35945   0.84985   0.02182   0.00000  Uiso   1.00
H490   H     0.53792   0.77643   0.36884   0.00000  Uiso   1.00
C491   C     0.53989   0.97808   0.22011   0.00000  Uiso   1.00
H492   H     0.57153   0.96135   0.19402   0.00000  Uiso   1.00
C493   C     0.53936   0.68747   0.22094   0.00000  Uiso   1.00
H494   H     0.57026   0.70357   0.19472   0.00000  Uiso   1.00
C495   C     0.49856   0.70908   0.25399   0.00000  Uiso   1.00
C496   C     0.45741   0.68800   0.28725   0.00000  Uiso   1.00
C497   C     0.45808   0.97818   0.28515   0.00000  Uiso   1.00
H498   H     0.42715   0.96083   0.30995   0.00000  Uiso   1.00
C499   C     0.49910   0.95719   0.25168   0.00000  Uiso   1.00
C500   C     0.65126   0.80134   0.22582   0.00000  Uiso   1.00
C501   C     0.36546   0.80153   0.22634   0.00000  Uiso   1.00
H502   H     0.39043   0.77649   0.20683   0.00000  Uiso   1.00
N503   N     0.38093   0.83334   0.25001   0.00000  Uiso   1.00
C504   C     0.34928   0.86492   0.27466   0.00000  Uiso   1.00
H505   H     0.36091   0.89026   0.29442   0.00000  Uiso   1.00
C506   C     0.63473   0.86487   0.27476   0.00000  Uiso   1.00
H507   H     0.61035   0.89013   0.29462   0.00000  Uiso   1.00
N508   N     0.61906   0.83331   0.25000   0.00000  Uiso   1.00
C509   C     0.41352   0.71037   0.32530   0.00000  Uiso   1.00
H510   H     0.42424   0.73359   0.35046   0.00000  Uiso   1.00
H511   H     0.39395   0.72619   0.30165   0.00000  Uiso   1.00
H512   H     0.38823   0.68841   0.35322   0.00000  Uiso   1.00
C513   C     0.63895   0.76625   0.19710   0.00000  Uiso   1.00
O514   O     0.64674   0.73047   0.20805   0.00000  Uiso   1.00
O515   O     0.62300   0.77380   0.15408   0.00000  Uiso   1.00
H516   H     0.62066   0.74744   0.13360   0.00000  Uiso   1.00
C517   C     0.61731   0.77400   0.39137   0.00000  Uiso   1.00
O518   O     0.62069   0.74244   0.36368   0.00000  Uiso   1.00
O519   O     0.65795   0.79791   0.38544   0.00000  Uiso   1.00
H520   H     0.35473   0.78598   0.35720   0.00000  Uiso   1.00
O521   O     0.79512   0.89442   0.25000   0.00000  Uiso   1.00
O522   O     0.87157   0.89441   0.25000   0.00000  Uiso   1.00
C523   C     0.83307   0.91320   0.25036   0.00000  Uiso   1.00
O524   O     0.77613   0.83333   0.32681   0.00000  Uiso   1.00
O525   O     0.85258   0.83332   0.32681   0.00000  Uiso   1.00
C526   C     0.80672   0.83040   0.35194   0.00000  Uiso   1.00
Zn527  Zn    0.78229   0.83334   0.25000   0.00000  Uiso   1.00
Zn528  Zn    0.88438   0.83333   0.25000   0.00000  Uiso   1.00
O529   O     0.79510   0.77226   0.24999   0.00000  Uiso   1.00
O530   O     0.87154   0.77225   0.24999   0.00000  Uiso   1.00
O531   O     0.81409   0.83335   0.17319   0.00000  Uiso   1.00
O532   O     0.89053   0.83334   0.17319   0.00000  Uiso   1.00
C533   C     0.83282   0.75338   0.25172   0.00000  Uiso   1.00
C534   C     0.86006   0.83371   0.14774   0.00000  Uiso   1.00
C535   C     0.93135   0.80178   0.00464   0.00000  Uiso   1.00
H536   H     0.94963   0.81113   0.07557   0.00000  Uiso   1.00
H537   H     0.96652   0.78857   0.48297   0.00000  Uiso   1.00
C538   C     0.87625   0.82977   0.08886   0.00000  Uiso   1.00
C539   C     0.74277   0.83765   0.44179   0.00000  Uiso   1.00
C540   C     0.72909   0.84031   0.49778   0.00000  Uiso   1.00
C541   C     0.76292   0.83338   0.02266   0.00000  Uiso   1.00
C542   C     0.81099   0.82167   0.49160   0.00000  Uiso   1.00
C543   C     0.82184   0.81166   0.43657   0.00000  Uiso   1.00
C544   C     0.84868   0.81995   0.01304   0.00000  Uiso   1.00
C545   C     0.89498   0.80372   0.48145   0.00000  Uiso   1.00
C546   C     0.90289   0.78855   0.42857   0.00000  Uiso   1.00
C547   C     0.86536   0.79045   0.40824   0.00000  Uiso   1.00
C548   C     0.84173   0.83545   0.06482   0.00000  Uiso   1.00
C549   C     0.92187   0.81455   0.05808   0.00000  Uiso   1.00
C550   C     0.78957   0.82472   0.41069   0.00000  Uiso   1.00
H551   H     0.80879   0.85135   0.08818   0.00000  Uiso   1.00
H552   H     0.71724   0.84694   0.42279   0.00000  Uiso   1.00
H553   H     0.75016   0.83674   0.06618   0.00000  Uiso   1.00
H554   H     0.69279   0.84985   0.02182   0.00000  Uiso   1.00
H555   H     0.87126   0.77643   0.36884   0.00000  Uiso   1.00
C556   C     0.87323   0.97808   0.22011   0.00000  Uiso   1.00
H557   H     0.90486   0.96135   0.19402   0.00000  Uiso   1.00
C558   C     0.87269   0.68747   0.22094   0.00000  Uiso   1.00
H559   H     0.90360   0.70357   0.19472   0.00000  Uiso   1.00
C560   C     0.83189   0.70908   0.25399   0.00000  Uiso   1.00
C561   C     0.79075   0.68800   0.28725   0.00000  Uiso   1.00
C562   C     0.79141   0.97818   0.28515   0.00000  Uiso   1.00
H563   H     0.76048   0.96083   0.30995   0.00000  Uiso   1.00
C564   C     0.83244   0.95719   0.25168   0.00000  Uiso   1.00
C565   C     0.98460   0.80134   0.22582   0.00000  Uiso   1.00
C566   C     0.69879   0.80153   0.22634   0.00000  Uiso   1.00
H567   H     0.72376   0.77649   0.20683   0.00000  Uiso   1.00
N568   N     0.71426   0.83334   0.25001   0.00000  Uiso   1.00
C569   C     0.68261   0.86492   0.27466   0.00000  Uiso   1.00
H570   H     0.69425   0.89026   0.29442   0.00000  Uiso   1.00
C571   C     0.96806   0.86487   0.27476   0.00000  Uiso   1.00
H572   H     0.94369   0.89013   0.29462   0.00000  Uiso   1.00
N573   N     0.95239   0.83331   0.25000   0.00000  Uiso   1.00
C574   C     0.74685   0.71037   0.32530   0.00000  Uiso   1.00
H575   H     0.75757   0.73359   0.35046   0.00000  Uiso   1.00
H576   H     0.72728   0.72619   0.30165   0.00000  Uiso   1.00
H577   H     0.72156   0.68841   0.35322   0.00000  Uiso   1.00
C578   C     0.97228   0.76625   0.19710   0.00000  Uiso   1.00
O579   O     0.98008   0.73047   0.20805   0.00000  Uiso   1.00
O580   O     0.95633   0.77380   0.15408   0.00000  Uiso   1.00
H581   H     0.95400   0.74744   0.13360   0.00000  Uiso   1.00
C582   C     0.95064   0.77400   0.39137   0.00000  Uiso   1.00
O583   O     0.95402   0.74244   0.36368   0.00000  Uiso   1.00
O584   O     0.99129   0.79791   0.38544   0.00000  Uiso   1.00
H585   H     0.68807   0.78598   0.35720   0.00000  Uiso   1.00
O586   O     0.12846   0.22775   0.75000   0.00000  Uiso   1.00
O587   O     0.20490   0.22774   0.75000   0.00000  Uiso   1.00
C588   C     0.16640   0.24654   0.75036   0.00000  Uiso   1.00
O589   O     0.10947   0.16666   0.82681   0.00000  Uiso   1.00
O590   O     0.18591   0.16665   0.82681   0.00000  Uiso   1.00
C591   C     0.14005   0.16374   0.85194   0.00000  Uiso   1.00
Zn592  Zn    0.11562   0.16667   0.75000   0.00000  Uiso   1.00
Zn593  Zn    0.21771   0.16666   0.75000   0.00000  Uiso   1.00
O594   O     0.12843   0.10559   0.74999   0.00000  Uiso   1.00
O595   O     0.20488   0.10558   0.74999   0.00000  Uiso   1.00
O596   O     0.14742   0.16668   0.67319   0.00000  Uiso   1.00
O597   O     0.22387   0.16667   0.67319   0.00000  Uiso   1.00
C598   C     0.16615   0.08671   0.75172   0.00000  Uiso   1.00
C599   C     0.19339   0.16705   0.64774   0.00000  Uiso   1.00
C600   C     0.26468   0.13511   0.50464   0.00000  Uiso   1.00
H601   H     0.28296   0.14447   0.57557   0.00000  Uiso   1.00
H602   H     0.29985   0.12190   0.98297   0.00000  Uiso   1.00
C603   C     0.20958   0.16310   0.58886   0.00000  Uiso   1.00
C604   C     0.07610   0.17099   0.94179   0.00000  Uiso   1.00
C605   C     0.06243   0.17365   0.99778   0.00000  Uiso   1.00
C606   C     0.09625   0.16671   0.52266   0.00000  Uiso   1.00
C607   C     0.14432   0.15500   0.99160   0.00000  Uiso   1.00
C608   C     0.15517   0.14500   0.93657   0.00000  Uiso   1.00
C609   C     0.18201   0.15328   0.51304   0.00000  Uiso   1.00
C610   C     0.22831   0.13705   0.98145   0.00000  Uiso   1.00
C611   C     0.23622   0.12188   0.92857   0.00000  Uiso   1.00
C612   C     0.19869   0.12379   0.90824   0.00000  Uiso   1.00
C613   C     0.17506   0.16878   0.56482   0.00000  Uiso   1.00
C614   C     0.25521   0.14788   0.55808   0.00000  Uiso   1.00
C615   C     0.12290   0.15805   0.91069   0.00000  Uiso   1.00
H616   H     0.14213   0.18469   0.58818   0.00000  Uiso   1.00
H617   H     0.05058   0.18027   0.92279   0.00000  Uiso   1.00
H618   H     0.08349   0.17007   0.56618   0.00000  Uiso   1.00
H619   H     0.02612   0.18318   0.52182   0.00000  Uiso   1.00
H620   H     0.20459   0.10977   0.86884   0.00000  Uiso   1.00
C621   C     0.20656   0.31141   0.72011   0.00000  Uiso   1.00
H622   H     0.23820   0.29468   0.69402   0.00000  Uiso   1.00
C623   C     0.20603   0.02080   0.72094   0.00000  Uiso   1.00
H624   H     0.23693   0.03691   0.69472   0.00000  Uiso   1.00
C625   C     0.16523   0.04241   0.75399   0.00000  Uiso   1.00
C626   C     0.12408   0.02134   0.78725   0.00000  Uiso   1.00
C627   C     0.12475   0.31152   0.78515   0.00000  Uiso   1.00
H628   H     0.09381   0.29417   0.80995   0.00000  Uiso   1.00
C629   C     0.16577   0.29053   0.75168   0.00000  Uiso   1.00
C630   C     0.31793   0.13468   0.72582   0.00000  Uiso   1.00
C631   C     0.03212   0.13486   0.72634   0.00000  Uiso   1.00
H632   H     0.05710   0.10982   0.70683   0.00000  Uiso   1.00
N633   N     0.04760   0.16668   0.75001   0.00000  Uiso   1.00
C634   C     0.01595   0.19826   0.77466   0.00000  Uiso   1.00
H635   H     0.02758   0.22359   0.79442   0.00000  Uiso   1.00
C636   C     0.30140   0.19820   0.77476   0.00000  Uiso   1.00
H637   H     0.27702   0.22347   0.79462   0.00000  Uiso   1.00
N638   N     0.28573   0.16665   0.75000   0.00000  Uiso   1.00
C639   C     0.08018   0.04371   0.82530   0.00000  Uiso   1.00
H640   H     0.09091   0.06692   0.85046   0.00000  Uiso   1.00
H641   H     0.06061   0.05953   0.80165   0.00000  Uiso   1.00
H642   H     0.05489   0.02175   0.85322   0.00000  Uiso   1.00
C643   C     0.30561   0.09959   0.69710   0.00000  Uiso   1.00
O644   O     0.31341   0.06380   0.70805   0.00000  Uiso   1.00
O645   O     0.28966   0.10713   0.65408   0.00000  Uiso   1.00
H646   H     0.28733   0.08077   0.63360   0.00000  Uiso   1.00
C647   C     0.28398   0.10733   0.89137   0.00000  Uiso   1.00
O648   O     0.28735   0.07578   0.86368   0.00000  Uiso   1.00
O649   O     0.32462   0.13124   0.88544   0.00000  Uiso   1.00
H650   H     0.02140   0.11931   0.85720   0.00000  Uiso   1.00
O651   O     0.46179   0.22775   0.75000   0.00000  Uiso   1.00
O652   O     0.53823   0.22774   0.75000   0.00000  Uiso   1.00
C653   C     0.49974   0.24654   0.75036   0.00000  Uiso   1.00
O654   O     0.44280   0.16666   0.82681   0.00000  Uiso   1.00
O655   O     0.51924   0.16665   0.82681   0.00000  Uiso   1.00
C656   C     0.47338   0.16374   0.85194   0.00000  Uiso   1.00
Zn657  Zn    0.44896   0.16667   0.75000   0.00000  Uiso   1.00
Zn658  Zn    0.55104   0.16666   0.75000   0.00000  Uiso   1.00
O659   O     0.46177   0.10559   0.74999   0.00000  Uiso   1.00
O660   O     0.53821   0.10558   0.74999   0.00000  Uiso   1.00
O661   O     0.48076   0.16668   0.67319   0.00000  Uiso   1.00
O662   O     0.55720   0.16667   0.67319   0.00000  Uiso   1.00
C663   C     0.49949   0.08671   0.75172   0.00000  Uiso   1.00
C664   C     0.52672   0.16705   0.64774   0.00000  Uiso   1.00
C665   C     0.59802   0.13511   0.50464   0.00000  Uiso   1.00
H666   H     0.61630   0.14447   0.57557   0.00000  Uiso   1.00
H667   H     0.63318   0.12190   0.98297   0.00000  Uiso   1.00
C668   C     0.54292   0.16310   0.58886   0.00000  Uiso   1.00
C669   C     0.40944   0.17099   0.94179   0.00000  Uiso   1.00
C670   C     0.39576   0.17365   0.99778   0.00000  Uiso   1.00
C671   C     0.42959   0.16671   0.52266   0.00000  Uiso   1.00
C672   C     0.47766   0.15500   0.99160   0.00000  Uiso   1.00
C673   C     0.48850   0.14500   0.93657   0.00000  Uiso   1.00
C674   C     0.51534   0.15328   0.51304   0.00000  Uiso   1.00
C675   C     0.56165   0.13705   0.98145   0.00000  Uiso   1.00
C676   C     0.56956   0.12188   0.92857   0.00000  Uiso   1.00
C677   C     0.53203   0.12379   0.90824   0.00000  Uiso   1.00
C678   C     0.50840   0.16878   0.56482   0.00000  Uiso   1.00
C679   C     0.58854   0.14788   0.55808   0.00000  Uiso   1.00
C680   C     0.45624   0.15805   0.91069   0.00000  Uiso   1.00
H681   H     0.47546   0.18469   0.58818   0.00000  Uiso   1.00
H682   H     0.38391   0.18027   0.92279   0.00000  Uiso   1.00
H683   H     0.41682   0.17007   0.56618   0.00000  Uiso   1.00
H684   H     0.35945   0.18318   0.52182   0.00000  Uiso   1.00
H685   H     0.53792   0.10977   0.86884   0.00000  Uiso   1.00
C686   C     0.53989   0.31141   0.72011   0.00000  Uiso   1.00
H687   H     0.57153   0.29468   0.69402   0.00000  Uiso   1.00
C688   C     0.53936   0.02080   0.72094   0.00000  Uiso   1.00
H689   H     0.57026   0.03691   0.69472   0.00000  Uiso   1.00
C690   C     0.49856   0.04241   0.75399   0.00000  Uiso   1.00
C691   C     0.45741   0.02134   0.78725   0.00000  Uiso   1.00
C692   C     0.45808   0.31152   0.78515   0.00000  Uiso   1.00
H693   H     0.42715   0.29417   0.80995   0.00000  Uiso   1.00
C694   C     0.49910   0.29053   0.75168   0.00000  Uiso   1.00
C695   C     0.65126   0.13468   0.72582   0.00000  Uiso   1.00
C696   C     0.36546   0.13486   0.72634   0.00000  Uiso   1.00
H697   H     0.39043   0.10982   0.70683   0.00000  Uiso   1.00
N698   N     0.38093   0.16668   0.75001   0.00000  Uiso   1.00
C699   C     0.34928   0.19826   0.77466   0.00000  Uiso   1.00
H700   H     0.36091   0.22359   0.79442   0.00000  Uiso   1.00
C701   C     0.63473   0.19820   0.77476   0.00000  Uiso   1.00
H702   H     0.61035   0.22347   0.79462   0.00000  Uiso   1.00
N703   N     0.61906   0.16665   0.75000   0.00000  Uiso   1.00
C704   C     0.41352   0.04371   0.82530   0.00000  Uiso   1.00
H705   H     0.42424   0.06692   0.85046   0.00000  Uiso   1.00
H706   H     0.39395   0.05953   0.80165   0.00000  Uiso   1.00
H707   H     0.38823   0.02175   0.85322   0.00000  Uiso   1.00
C708   C     0.63895   0.09959   0.69710   0.00000  Uiso   1.00
O709   O     0.64674   0.06380   0.70805   0.00000  Uiso   1.00
O710   O     0.62300   0.10713   0.65408   0.00000  Uiso   1.00
H711   H     0.62066   0.08077   0.63360   0.00000  Uiso   1.00
C712   C     0.61731   0.10733   0.89137   0.00000  Uiso   1.00
O713   O     0.62069   0.07578   0.86368   0.00000  Uiso   1.00
O714   O     0.65795   0.13124   0.88544   0.00000  Uiso   1.00
H715   H     0.35473   0.11931   0.85720   0.00000  Uiso   1.00
O716   O     0.79512   0.22775   0.75000   0.00000  Uiso   1.00
O717   O     0.87157   0.22774   0.75000   0.00000  Uiso   1.00
C718   C     0.83307   0.24654   0.75036   0.00000  Uiso   1.00
O719   O     0.77613   0.16666   0.82681   0.00000  Uiso   1.00
O720   O     0.85258   0.16665   0.82681   0.00000  Uiso   1.00
C721   C     0.80672   0.16374   0.85194   0.00000  Uiso   1.00
Zn722  Zn    0.78229   0.16667   0.75000   0.00000  Uiso   1.00
Zn723  Zn    0.88438   0.16666   0.75000   0.00000  Uiso   1.00
O724   O     0.79510   0.10559   0.74999   0.00000  Uiso   1.00
O725   O     0.87154   0.10558   0.74999   0.00000  Uiso   1.00
O726   O     0.81409   0.16668   0.67319   0.00000  Uiso   1.00
O727   O     0.89053   0.16667   0.67319   0.00000  Uiso   1.00
C728   C     0.83282   0.08671   0.75172   0.00000  Uiso   1.00
C729   C     0.86006   0.16705   0.64774   0.00000  Uiso   1.00
C730   C     0.93135   0.13511   0.50464   0.00000  Uiso   1.00
H731   H     0.94963   0.14447   0.57557   0.00000  Uiso   1.00
H732   H     0.96652   0.12190   0.98297   0.00000  Uiso   1.00
C733   C     0.87625   0.16310   0.58886   0.00000  Uiso   1.00
C734   C     0.74277   0.17099   0.94179   0.00000  Uiso   1.00
C735   C     0.72909   0.17365   0.99778   0.00000  Uiso   1.00
C736   C     0.76292   0.16671   0.52266   0.00000  Uiso   1.00
C737   C     0.81099   0.15500   0.99160   0.00000  Uiso   1.00
C738   C     0.82184   0.14500   0.93657   0.00000  Uiso   1.00
C739   C     0.84868   0.15328   0.51304   0.00000  Uiso   1.00
C740   C     0.89498   0.13705   0.98145   0.00000  Uiso   1.00
C741   C     0.90289   0.12188   0.92857   0.00000  Uiso   1.00
C742   C     0.86536   0.12379   0.90824   0.00000  Uiso   1.00
C743   C     0.84173   0.16878   0.56482   0.00000  Uiso   1.00
C744   C     0.92187   0.14788   0.55808   0.00000  Uiso   1.00
C745   C     0.78957   0.15805   0.91069   0.00000  Uiso   1.00
H746   H     0.80879   0.18469   0.58818   0.00000  Uiso   1.00
H747   H     0.71724   0.18027   0.92279   0.00000  Uiso   1.00
H748   H     0.75016   0.17007   0.56618   0.00000  Uiso   1.00
H749   H     0.69279   0.18318   0.52182   0.00000  Uiso   1.00
H750   H     0.87126   0.10977   0.86884   0.00000  Uiso   1.00
C751   C     0.87323   0.31141   0.72011   0.00000  Uiso   1.00
H752   H     0.90486   0.29468   0.69402   0.00000  Uiso   1.00
C753   C     0.87269   0.02080   0.72094   0.00000  Uiso   1.00
H754   H     0.90360   0.03691   0.69472   0.00000  Uiso   1.00
C755   C     0.83189   0.04241   0.75399   0.00000  Uiso   1.00
C756   C     0.79075   0.02134   0.78725   0.00000  Uiso   1.00
C757   C     0.79141   0.31152   0.78515   0.00000  Uiso   1.00
H758   H     0.76048   0.29417   0.80995   0.00000  Uiso   1.00
C759   C     0.83244   0.29053   0.75168   0.00000  Uiso   1.00
C760   C     0.98460   0.13468   0.72582   0.00000  Uiso   1.00
C761   C     0.69879   0.13486   0.72634   0.00000  Uiso   1.00
H762   H     0.72376   0.10982   0.70683   0.00000  Uiso   1.00
N763   N     0.71426   0.16668   0.75001   0.00000  Uiso   1.00
C764   C     0.68261   0.19826   0.77466   0.00000  Uiso   1.00
H765   H     0.69425   0.22359   0.79442   0.00000  Uiso   1.00
C766   C     0.96806   0.19820   0.77476   0.00000  Uiso   1.00
H767   H     0.94369   0.22347   0.79462   0.00000  Uiso   1.00
N768   N     0.95239   0.16665   0.75000   0.00000  Uiso   1.00
C769   C     0.74685   0.04371   0.82530   0.00000  Uiso   1.00
H770   H     0.75757   0.06692   0.85046   0.00000  Uiso   1.00
H771   H     0.72728   0.05953   0.80165   0.00000  Uiso   1.00
H772   H     0.72156   0.02175   0.85322   0.00000  Uiso   1.00
C773   C     0.97228   0.09959   0.69710   0.00000  Uiso   1.00
O774   O     0.98008   0.06380   0.70805   0.00000  Uiso   1.00
O775   O     0.95633   0.10713   0.65408   0.00000  Uiso   1.00
H776   H     0.95400   0.08077   0.63360   0.00000  Uiso   1.00
C777   C     0.95064   0.10733   0.89137   0.00000  Uiso   1.00
O778   O     0.95402   0.07578   0.86368   0.00000  Uiso   1.00
O779   O     0.99129   0.13124   0.88544   0.00000  Uiso   1.00
H780   H     0.68807   0.11931   0.85720   0.00000  Uiso   1.00
O781   O     0.12846   0.56108   0.75000   0.00000  Uiso   1.00
O782   O     0.20490   0.56107   0.75000   0.00000  Uiso   1.00
C783   C     0.16640   0.57987   0.75036   0.00000  Uiso   1.00
O784   O     0.10947   0.50000   0.82681   0.00000  Uiso   1.00
O785   O     0.18591   0.49999   0.82681   0.00000  Uiso   1.00
C786   C     0.14005   0.49707   0.85194   0.00000  Uiso   1.00
Zn787  Zn    0.11562   0.50001   0.75000   0.00000  Uiso   1.00
Zn788  Zn    0.21771   0.49999   0.75000   0.00000  Uiso   1.00
O789   O     0.12843   0.43893   0.74999   0.00000  Uiso   1.00
O790   O     0.20488   0.43892   0.74999   0.00000  Uiso   1.00
O791   O     0.14742   0.50001   0.67319   0.00000  Uiso   1.00
O792   O     0.22387   0.50000   0.67319   0.00000  Uiso   1.00
C793   C     0.16615   0.42004   0.75172   0.00000  Uiso   1.00
C794   C     0.19339   0.50038   0.64774   0.00000  Uiso   1.00
C795   C     0.26468   0.46845   0.50464   0.00000  Uiso   1.00
H796   H     0.28296   0.47780   0.57557   0.00000  Uiso   1.00
H797   H     0.29985   0.45524   0.98297   0.00000  Uiso   1.00
C798   C     0.20958   0.49644   0.58886   0.00000  Uiso   1.00
C799   C     0.07610   0.50432   0.94179   0.00000  Uiso   1.00
C800   C     0.06243   0.50698   0.99778   0.00000  Uiso   1.00
C801   C     0.09625   0.50005   0.52266   0.00000  Uiso   1.00
C802   C     0.14432   0.48834   0.99160   0.00000  Uiso   1.00
C803   C     0.15517   0.47833   0.93657   0.00000  Uiso   1.00
C804   C     0.18201   0.48662   0.51304   0.00000  Uiso   1.00
C805   C     0.22831   0.47039   0.98145   0.00000  Uiso   1.00
C806   C     0.23622   0.45522   0.92857   0.00000  Uiso   1.00
C807   C     0.19869   0.45712   0.90824   0.00000  Uiso   1.00
C808   C     0.17506   0.50211   0.56482   0.00000  Uiso   1.00
C809   C     0.25521   0.48121   0.55808   0.00000  Uiso   1.00
C810   C     0.12290   0.49138   0.91069   0.00000  Uiso   1.00
H811   H     0.14213   0.51802   0.58818   0.00000  Uiso   1.00
H812   H     0.05058   0.51361   0.92279   0.00000  Uiso   1.00
H813   H     0.08349   0.50341   0.56618   0.00000  Uiso   1.00
H814   H     0.02612   0.51651   0.52182   0.00000  Uiso   1.00
H815   H     0.20459   0.44310   0.86884   0.00000  Uiso   1.00
C816   C     0.20656   0.64474   0.72011   0.00000  Uiso   1.00
H817   H     0.23820   0.62801   0.69402   0.00000  Uiso   1.00
C818   C     0.20603   0.35414   0.72094   0.00000  Uiso   1.00
H819   H     0.23693   0.37024   0.69472   0.00000  Uiso   1.00
C820   C     0.16523   0.37574   0.75399   0.00000  Uiso   1.00
C821   C     0.12408   0.35467   0.78725   0.00000  Uiso   1.00
C822   C     0.12475   0.64485   0.78515   0.00000  Uiso   1.00
H823   H     0.09381   0.62750   0.80995   0.00000  Uiso   1.00
C824   C     0.16577   0.62386   0.75168   0.00000  Uiso   1.00
C825   C     0.31793   0.46801   0.72582   0.00000  Uiso   1.00
C826   C     0.03212   0.46820   0.72634   0.00000  Uiso   1.00
H827   H     0.05710   0.44315   0.70683   0.00000  Uiso   1.00
N828   N     0.04760   0.50001   0.75001   0.00000  Uiso   1.00
C829   C     0.01595   0.53159   0.77466   0.00000  Uiso   1.00
H830   H     0.02758   0.55692   0.79442   0.00000  Uiso   1.00
C831   C     0.30140   0.53153   0.77476   0.00000  Uiso   1.00
H832   H     0.27702   0.55680   0.79462   0.00000  Uiso   1.00
N833   N     0.28573   0.49998   0.75000   0.00000  Uiso   1.00
C834   C     0.08018   0.37704   0.82530   0.00000  Uiso   1.00
H835   H     0.09091   0.40026   0.85046   0.00000  Uiso   1.00
H836   H     0.06061   0.39286   0.80165   0.00000  Uiso   1.00
H837   H     0.05489   0.35508   0.85322   0.00000  Uiso   1.00
C838   C     0.30561   0.43292   0.69710   0.00000  Uiso   1.00
O839   O     0.31341   0.39713   0.70805   0.00000  Uiso   1.00
O840   O     0.28966   0.44046   0.65408   0.00000  Uiso   1.00
H841   H     0.28733   0.41411   0.63360   0.00000  Uiso   1.00
C842   C     0.28398   0.44066   0.89137   0.00000  Uiso   1.00
O843   O     0.28735   0.40911   0.86368   0.00000  Uiso   1.00
O844   O     0.32462   0.46458   0.88544   0.00000  Uiso   1.00
H845   H     0.02140   0.45264   0.85720   0.00000  Uiso   1.00
O846   O     0.46179   0.56108   0.75000   0.00000  Uiso   1.00
O847   O     0.53823   0.56107   0.75000   0.00000  Uiso   1.00
C848   C     0.49974   0.57987   0.75036   0.00000  Uiso   1.00
O849   O     0.44280   0.50000   0.82681   0.00000  Uiso   1.00
O850   O     0.51924   0.49999   0.82681   0.00000  Uiso   1.00
C851   C     0.47338   0.49707   0.85194   0.00000  Uiso   1.00
Zn852  Zn    0.44896   0.50001   0.75000   0.00000  Uiso   1.00
Zn853  Zn    0.55104   0.49999   0.75000   0.00000  Uiso   1.00
O854   O     0.46177   0.43893   0.74999   0.00000  Uiso   1.00
O855   O     0.53821   0.43892   0.74999   0.00000  Uiso   1.00
O856   O     0.48076   0.50001   0.67319   0.00000  Uiso   1.00
O857   O     0.55720   0.50000   0.67319   0.00000  Uiso   1.00
C858   C     0.49949   0.42004   0.75172   0.00000  Uiso   1.00
C859   C     0.52672   0.50038   0.64774   0.00000  Uiso   1.00
C860   C     0.59802   0.46845   0.50464   0.00000  Uiso   1.00
H861   H     0.61630   0.47780   0.57557   0.00000  Uiso   1.00
H862   H     0.63318   0.45524   0.98297   0.00000  Uiso   1.00
C863   C     0.54292   0.49644   0.58886   0.00000  Uiso   1.00
C864   C     0.40944   0.50432   0.94179   0.00000  Uiso   1.00
C865   C     0.39576   0.50698   0.99778   0.00000  Uiso   1.00
C866   C     0.42959   0.50005   0.52266   0.00000  Uiso   1.00
C867   C     0.47766   0.48834   0.99160   0.00000  Uiso   1.00
C868   C     0.48850   0.47833   0.93657   0.00000  Uiso   1.00
C869   C     0.51534   0.48662   0.51304   0.00000  Uiso   1.00
C870   C     0.56165   0.47039   0.98145   0.00000  Uiso   1.00
C871   C     0.56956   0.45522   0.92857   0.00000  Uiso   1.00
C872   C     0.53203   0.45712   0.90824   0.00000  Uiso   1.00
C873   C     0.50840   0.50211   0.56482   0.00000  Uiso   1.00
C874   C     0.58854   0.48121   0.55808   0.00000  Uiso   1.00
C875   C     0.45624   0.49138   0.91069   0.00000  Uiso   1.00
H876   H     0.47546   0.51802   0.58818   0.00000  Uiso   1.00
H877   H     0.38391   0.51361   0.92279   0.00000  Uiso   1.00
H878   H     0.41682   0.50341   0.56618   0.00000  Uiso   1.00
H879   H     0.35945   0.51651   0.52182   0.00000  Uiso   1.00
H880   H     0.53792   0.44310   0.86884   0.00000  Uiso   1.00
C881   C     0.53989   0.64474   0.72011   0.00000  Uiso   1.00
H882   H     0.57153   0.62801   0.69402   0.00000  Uiso   1.00
C883   C     0.53936   0.35414   0.72094   0.00000  Uiso   1.00
H884   H     0.57026   0.37024   0.69472   0.00000  Uiso   1.00
C885   C     0.49856   0.37574   0.75399   0.00000  Uiso   1.00
C886   C     0.45741   0.35467   0.78725   0.00000  Uiso   1.00
C887   C     0.45808   0.64485   0.78515   0.00000  Uiso   1.00
H888   H     0.42715   0.62750   0.80995   0.00000  Uiso   1.00
C889   C     0.49910   0.62386   0.75168   0.00000  Uiso   1.00
C890   C     0.65126   0.46801   0.72582   0.00000  Uiso   1.00
C891   C     0.36546   0.46820   0.72634   0.00000  Uiso   1.00
H892   H     0.39043   0.44315   0.70683   0.00000  Uiso   1.00
N893   N     0.38093   0.50001   0.75001   0.00000  Uiso   1.00
C894   C     0.34928   0.53159   0.77466   0.00000  Uiso   1.00
H895   H     0.36091   0.55692   0.79442   0.00000  Uiso   1.00
C896   C     0.63473   0.53153   0.77476   0.00000  Uiso   1.00
H897   H     0.61035   0.55680   0.79462   0.00000  Uiso   1.00
N898   N     0.61906   0.49998   0.75000   0.00000  Uiso   1.00
C899   C     0.41352   0.37704   0.82530   0.00000  Uiso   1.00
H900   H     0.42424   0.40026   0.85046   0.00000  Uiso   1.00
H901   H     0.39395   0.39286   0.80165   0.00000  Uiso   1.00
H902   H     0.38823   0.35508   0.85322   0.00000  Uiso   1.00
C903   C     0.63895   0.43292   0.69710   0.00000  Uiso   1.00
O904   O     0.64674   0.39713   0.70805   0.00000  Uiso   1.00
O905   O     0.62300   0.44046   0.65408   0.00000  Uiso   1.00
H906   H     0.62066   0.41411   0.63360   0.00000  Uiso   1.00
C907   C     0.61731   0.44066   0.89137   0.00000  Uiso   1.00
O908   O     0.62069   0.40911   0.86368   0.00000  Uiso   1.00
O909   O     0.65795   0.46458   0.88544   0.00000  Uiso   1.00
H910   H     0.35473   0.45264   0.85720   0.00000  Uiso   1.00
O911   O     0.79512   0.56108   0.75000   0.00000  Uiso   1.00
O912   O     0.87157   0.56107   0.75000   0.00000  Uiso   1.00
C913   C     0.83307   0.57987   0.75036   0.00000  Uiso   1.00
O914   O     0.77613   0.50000   0.82681   0.00000  Uiso   1.00
O915   O     0.85258   0.49999   0.82681   0.00000  Uiso   1.00
C916   C     0.80672   0.49707   0.85194   0.00000  Uiso   1.00
Zn917  Zn    0.78229   0.50001   0.75000   0.00000  Uiso   1.00
Zn918  Zn    0.88438   0.49999   0.75000   0.00000  Uiso   1.00
O919   O     0.79510   0.43893   0.74999   0.00000  Uiso   1.00
O920   O     0.87154   0.43892   0.74999   0.00000  Uiso   1.00
O921   O     0.81409   0.50001   0.67319   0.00000  Uiso   1.00
O922   O     0.89053   0.50000   0.67319   0.00000  Uiso   1.00
C923   C     0.83282   0.42004   0.75172   0.00000  Uiso   1.00
C924   C     0.86006   0.50038   0.64774   0.00000  Uiso   1.00
C925   C     0.93135   0.46845   0.50464   0.00000  Uiso   1.00
H926   H     0.94963   0.47780   0.57557   0.00000  Uiso   1.00
H927   H     0.96652   0.45524   0.98297   0.00000  Uiso   1.00
C928   C     0.87625   0.49644   0.58886   0.00000  Uiso   1.00
C929   C     0.74277   0.50432   0.94179   0.00000  Uiso   1.00
C930   C     0.72909   0.50698   0.99778   0.00000  Uiso   1.00
C931   C     0.76292   0.50005   0.52266   0.00000  Uiso   1.00
C932   C     0.81099   0.48834   0.99160   0.00000  Uiso   1.00
C933   C     0.82184   0.47833   0.93657   0.00000  Uiso   1.00
C934   C     0.84868   0.48662   0.51304   0.00000  Uiso   1.00
C935   C     0.89498   0.47039   0.98145   0.00000  Uiso   1.00
C936   C     0.90289   0.45522   0.92857   0.00000  Uiso   1.00
C937   C     0.86536   0.45712   0.90824   0.00000  Uiso   1.00
C938   C     0.84173   0.50211   0.56482   0.00000  Uiso   1.00
C939   C     0.92187   0.48121   0.55808   0.00000  Uiso   1.00
C940   C     0.78957   0.49138   0.91069   0.00000  Uiso   1.00
H941   H     0.80879   0.51802   0.58818   0.00000  Uiso   1.00
H942   H     0.71724   0.51361   0.92279   0.00000  Uiso   1.00
H943   H     0.75016   0.50341   0.56618   0.00000  Uiso   1.00
H944   H     0.69279   0.51651   0.52182   0.00000  Uiso   1.00
H945   H     0.87126   0.44310   0.86884   0.00000  Uiso   1.00
C946   C     0.87323   0.64474   0.72011   0.00000  Uiso   1.00
H947   H     0.90486   0.62801   0.69402   0.00000  Uiso   1.00
C948   C     0.87269   0.35414   0.72094   0.00000  Uiso   1.00
H949   H     0.90360   0.37024   0.69472   0.00000  Uiso   1.00
C950   C     0.83189   0.37574   0.75399   0.00000  Uiso   1.00
C951   C     0.79075   0.35467   0.78725   0.00000  Uiso   1.00
C952   C     0.79141   0.64485   0.78515   0.00000  Uiso   1.00
H953   H     0.76048   0.62750   0.80995   0.00000  Uiso   1.00
C954   C     0.83244   0.62386   0.75168   0.00000  Uiso   1.00
C955   C     0.98460   0.46801   0.72582   0.00000  Uiso   1.00
C956   C     0.69879   0.46820   0.72634   0.00000  Uiso   1.00
H957   H     0.72376   0.44315   0.70683   0.00000  Uiso   1.00
N958   N     0.71426   0.50001   0.75001   0.00000  Uiso   1.00
C959   C     0.68261   0.53159   0.77466   0.00000  Uiso   1.00
H960   H     0.69425   0.55692   0.79442   0.00000  Uiso   1.00
C961   C     0.96806   0.53153   0.77476   0.00000  Uiso   1.00
H962   H     0.94369   0.55680   0.79462   0.00000  Uiso   1.00
N963   N     0.95239   0.49998   0.75000   0.00000  Uiso   1.00
C964   C     0.74685   0.37704   0.82530   0.00000  Uiso   1.00
H965   H     0.75757   0.40026   0.85046   0.00000  Uiso   1.00
H966   H     0.72728   0.39286   0.80165   0.00000  Uiso   1.00
H967   H     0.72156   0.35508   0.85322   0.00000  Uiso   1.00
C968   C     0.97228   0.43292   0.69710   0.00000  Uiso   1.00
O969   O     0.98008   0.39713   0.70805   0.00000  Uiso   1.00
O970   O     0.95633   0.44046   0.65408   0.00000  Uiso   1.00
H971   H     0.95400   0.41411   0.63360   0.00000  Uiso   1.00
C972   C     0.95064   0.44066   0.89137   0.00000  Uiso   1.00
O973   O     0.95402   0.40911   0.86368   0.00000  Uiso   1.00
O974   O     0.99129   0.46458   0.88544   0.00000  Uiso   1.00
H975   H     0.68807   0.45264   0.85720   0.00000  Uiso   1.00
O976   O     0.12846   0.89442   0.75000   0.00000  Uiso   1.00
O977   O     0.20490   0.89441   0.75000   0.00000  Uiso   1.00
C978   C     0.16640   0.91320   0.75036   0.00000  Uiso   1.00
O979   O     0.10947   0.83333   0.82681   0.00000  Uiso   1.00
O980   O     0.18591   0.83332   0.82681   0.00000  Uiso   1.00
C981   C     0.14005   0.83040   0.85194   0.00000  Uiso   1.00
Zn982  Zn    0.11562   0.83334   0.75000   0.00000  Uiso   1.00
Zn983  Zn    0.21771   0.83333   0.75000   0.00000  Uiso   1.00
O984   O     0.12843   0.77226   0.74999   0.00000  Uiso   1.00
O985   O     0.20488   0.77225   0.74999   0.00000  Uiso   1.00
O986   O     0.14742   0.83335   0.67319   0.00000  Uiso   1.00
O987   O     0.22387   0.83334   0.67319   0.00000  Uiso   1.00
C988   C     0.16615   0.75338   0.75172   0.00000  Uiso   1.00
C989   C     0.19339   0.83371   0.64774   0.00000  Uiso   1.00
C990   C     0.26468   0.80178   0.50464   0.00000  Uiso   1.00
H991   H     0.28296   0.81113   0.57557   0.00000  Uiso   1.00
H992   H     0.29985   0.78857   0.98297   0.00000  Uiso   1.00
C993   C     0.20958   0.82977   0.58886   0.00000  Uiso   1.00
C994   C     0.07610   0.83765   0.94179   0.00000  Uiso   1.00
C995   C     0.06243   0.84031   0.99778   0.00000  Uiso   1.00
C996   C     0.09625   0.83338   0.52266   0.00000  Uiso   1.00
C997   C     0.14432   0.82167   0.99160   0.00000  Uiso   1.00
C998   C     0.15517   0.81166   0.93657   0.00000  Uiso   1.00
C999   C     0.18201   0.81995   0.51304   0.00000  Uiso   1.00
C1000  C     0.22831   0.80372   0.98145   0.00000  Uiso   1.00
C1001  C     0.23622   0.78855   0.92857   0.00000  Uiso   1.00
C1002  C     0.19869   0.79045   0.90824   0.00000  Uiso   1.00
C1003  C     0.17506   0.83545   0.56482   0.00000  Uiso   1.00
C1004  C     0.25521   0.81455   0.55808   0.00000  Uiso   1.00
C1005  C     0.12290   0.82472   0.91069   0.00000  Uiso   1.00
H1006  H     0.14213   0.85135   0.58818   0.00000  Uiso   1.00
H1007  H     0.05058   0.84694   0.92279   0.00000  Uiso   1.00
H1008  H     0.08349   0.83674   0.56618   0.00000  Uiso   1.00
H1009  H     0.02612   0.84985   0.52182   0.00000  Uiso   1.00
H1010  H     0.20459   0.77643   0.86884   0.00000  Uiso   1.00
C1011  C     0.20656   0.97808   0.72011   0.00000  Uiso   1.00
H1012  H     0.23820   0.96135   0.69402   0.00000  Uiso   1.00
C1013  C     0.20603   0.68747   0.72094   0.00000  Uiso   1.00
H1014  H     0.23693   0.70357   0.69472   0.00000  Uiso   1.00
C1015  C     0.16523   0.70908   0.75399   0.00000  Uiso   1.00
C1016  C     0.12408   0.68800   0.78725   0.00000  Uiso   1.00
C1017  C     0.12475   0.97818   0.78515   0.00000  Uiso   1.00
H1018  H     0.09381   0.96083   0.80995   0.00000  Uiso   1.00
C1019  C     0.16577   0.95719   0.75168   0.00000  Uiso   1.00
C1020  C     0.31793   0.80134   0.72582   0.00000  Uiso   1.00
C1021  C     0.03212   0.80153   0.72634   0.00000  Uiso   1.00
H1022  H     0.05710   0.77649   0.70683   0.00000  Uiso   1.00
N1023  N     0.04760   0.83334   0.75001   0.00000  Uiso   1.00
C1024  C     0.01595   0.86492   0.77466   0.00000  Uiso   1.00
H1025  H     0.02758   0.89026   0.79442   0.00000  Uiso   1.00
C1026  C     0.30140   0.86487   0.77476   0.00000  Uiso   1.00
H1027  H     0.27702   0.89013   0.79462   0.00000  Uiso   1.00
N1028  N     0.28573   0.83331   0.75000   0.00000  Uiso   1.00
C1029  C     0.08018   0.71037   0.82530   0.00000  Uiso   1.00
H1030  H     0.09091   0.73359   0.85046   0.00000  Uiso   1.00
H1031  H     0.06061   0.72619   0.80165   0.00000  Uiso   1.00
H1032  H     0.05489   0.68841   0.85322   0.00000  Uiso   1.00
C1033  C     0.30561   0.76625   0.69710   0.00000  Uiso   1.00
O1034  O     0.31341   0.73047   0.70805   0.00000  Uiso   1.00
O1035  O     0.28966   0.77380   0.65408   0.00000  Uiso   1.00
H1036  H     0.28733   0.74744   0.63360   0.00000  Uiso   1.00
C1037  C     0.28398   0.77400   0.89137   0.00000  Uiso   1.00
O1038  O     0.28735   0.74244   0.86368   0.00000  Uiso   1.00
O1039  O     0.32462   0.79791   0.88544   0.00000  Uiso   1.00
H1040  H     0.02140   0.78598   0.85720   0.00000  Uiso   1.00
O1041  O     0.46179   0.89442   0.75000   0.00000  Uiso   1.00
O1042  O     0.53823   0.89441   0.75000   0.00000  Uiso   1.00
C1043  C     0.49974   0.91320   0.75036   0.00000  Uiso   1.00
O1044  O     0.44280   0.83333   0.82681   0.00000  Uiso   1.00
O1045  O     0.51924   0.83332   0.82681   0.00000  Uiso   1.00
C1046  C     0.47338   0.83040   0.85194   0.00000  Uiso   1.00
Zn1047 Zn    0.44896   0.83334   0.75000   0.00000  Uiso   1.00
Zn1048 Zn    0.55104   0.83333   0.75000   0.00000  Uiso   1.00
O1049  O     0.46177   0.77226   0.74999   0.00000  Uiso   1.00
O1050  O     0.53821   0.77225   0.74999   0.00000  Uiso   1.00
O1051  O     0.48076   0.83335   0.67319   0.00000  Uiso   1.00
O1052  O     0.55720   0.83334   0.67319   0.00000  Uiso   1.00
C1053  C     0.49949   0.75338   0.75172   0.00000  Uiso   1.00
C1054  C     0.52672   0.83371   0.64774   0.00000  Uiso   1.00
C1055  C     0.59802   0.80178   0.50464   0.00000  Uiso   1.00
H1056  H     0.61630   0.81113   0.57557   0.00000  Uiso   1.00
H1057  H     0.63318   0.78857   0.98297   0.00000  Uiso   1.00
C1058  C     0.54292   0.82977   0.58886   0.00000  Uiso   1.00
C1059  C     0.40944   0.83765   0.94179   0.00000  Uiso   1.00
C1060  C     0.39576   0.84031   0.99778   0.00000  Uiso   1.00
C1061  C     0.42959   0.83338   0.52266   0.00000  Uiso   1.00
C1062  C     0.47766   0.82167   0.99160   0.00000  Uiso   1.00
C1063  C     0.48850   0.81166   0.93657   0.00000  Uiso   1.00
C1064  C     0.51534   0.81995   0.51304   0.00000  Uiso   1.00
C1065  C     0.56165   0.80372   0.98145   0.00000  Uiso   1.00
C1066  C     0.56956   0.78855   0.92857   0.00000  Uiso   1.00
C1067  C     0.53203   0.79045   0.90824   0.00000  Uiso   1.00
C1068  C     0.50840   0.83545   0.56482   0.00000  Uiso   1.00
C1069  C     0.58854   0.81455   0.55808   0.00000  Uiso   1.00
C1070  C     0.45624   0.82472   0.91069   0.00000  Uiso   1.00
H1071  H     0.47546   0.85135   0.58818   0.00000  Uiso   1.00
H1072  H     0.38391   0.84694   0.92279   0.00000  Uiso   1.00
H1073  H     0.41682   0.83674   0.56618   0.00000  Uiso   1.00
H1074  H     0.35945   0.84985   0.52182   0.00000  Uiso   1.00
H1075  H     0.53792   0.77643   0.86884   0.00000  Uiso   1.00
C1076  C     0.53989   0.97808   0.72011   0.00000  Uiso   1.00
H1077  H     0.57153   0.96135   0.69402   0.00000  Uiso   1.00
C1078  C     0.53936   0.68747   0.72094   0.00000  Uiso   1.00
H1079  H     0.57026   0.70357   0.69472   0.00000  Uiso   1.00
C1080  C     0.49856   0.70908   0.75399   0.00000  Uiso   1.00
C1081  C     0.45741   0.68800   0.78725   0.00000  Uiso   1.00
C1082  C     0.45808   0.97818   0.78515   0.00000  Uiso   1.00
H1083  H     0.42715   0.96083   0.80995   0.00000  Uiso   1.00
C1084  C     0.49910   0.95719   0.75168   0.00000  Uiso   1.00
C1085  C     0.65126   0.80134   0.72582   0.00000  Uiso   1.00
C1086  C     0.36546   0.80153   0.72634   0.00000  Uiso   1.00
H1087  H     0.39043   0.77649   0.70683   0.00000  Uiso   1.00
N1088  N     0.38093   0.83334   0.75001   0.00000  Uiso   1.00
C1089  C     0.34928   0.86492   0.77466   0.00000  Uiso   1.00
H1090  H     0.36091   0.89026   0.79442   0.00000  Uiso   1.00
C1091  C     0.63473   0.86487   0.77476   0.00000  Uiso   1.00
H1092  H     0.61035   0.89013   0.79462   0.00000  Uiso   1.00
N1093  N     0.61906   0.83331   0.75000   0.00000  Uiso   1.00
C1094  C     0.41352   0.71037   0.82530   0.00000  Uiso   1.00
H1095  H     0.42424   0.73359   0.85046   0.00000  Uiso   1.00
H1096  H     0.39395   0.72619   0.80165   0.00000  Uiso   1.00
H1097  H     0.38823   0.68841   0.85322   0.00000  Uiso   1.00
C1098  C     0.63895   0.76625   0.69710   0.00000  Uiso   1.00
O1099  O     0.64674   0.73047   0.70805   0.00000  Uiso   1.00
O1100  O     0.62300   0.77380   0.65408   0.00000  Uiso   1.00
H1101  H     0.62066   0.74744   0.63360   0.00000  Uiso   1.00
C1102  C     0.61731   0.77400   0.89137   0.00000  Uiso   1.00
O1103  O     0.62069   0.74244   0.86368   0.00000  Uiso   1.00
O1104  O     0.65795   0.79791   0.88544   0.00000  Uiso   1.00
H1105  H     0.35473   0.78598   0.85720   0.00000  Uiso   1.00
O1106  O     0.79512   0.89442   0.75000   0.00000  Uiso   1.00
O1107  O     0.87157   0.89441   0.75000   0.00000  Uiso   1.00
C1108  C     0.83307   0.91320   0.75036   0.00000  Uiso   1.00
O1109  O     0.77613   0.83333   0.82681   0.00000  Uiso   1.00
O1110  O     0.85258   0.83332   0.82681   0.00000  Uiso   1.00
C1111  C     0.80672   0.83040   0.85194   0.00000  Uiso   1.00
Zn1112 Zn    0.78229   0.83334   0.75000   0.00000  Uiso   1.00
Zn1113 Zn    0.88438   0.83333   0.75000   0.00000  Uiso   1.00
O1114  O     0.79510   0.77226   0.74999   0.00000  Uiso   1.00
O1115  O     0.87154   0.77225   0.74999   0.00000  Uiso   1.00
O1116  O     0.81409   0.83335   0.67319   0.00000  Uiso   1.00
O1117  O     0.89053   0.83334   0.67319   0.00000  Uiso   1.00
C1118  C     0.83282   0.75338   0.75172   0.00000  Uiso   1.00
C1119  C     0.86006   0.83371   0.64774   0.00000  Uiso   1.00
C1120  C     0.93135   0.80178   0.50464   0.00000  Uiso   1.00
H1121  H     0.94963   0.81113   0.57557   0.00000  Uiso   1.00
H1122  H     0.96652   0.78857   0.98297   0.00000  Uiso   1.00
C1123  C     0.87625   0.82977   0.58886   0.00000  Uiso   1.00
C1124  C     0.74277   0.83765   0.94179   0.00000  Uiso   1.00
C1125  C     0.72909   0.84031   0.99778   0.00000  Uiso   1.00
C1126  C     0.76292   0.83338   0.52266   0.00000  Uiso   1.00
C1127  C     0.81099   0.82167   0.99160   0.00000  Uiso   1.00
C1128  C     0.82184   0.81166   0.93657   0.00000  Uiso   1.00
C1129  C     0.84868   0.81995   0.51304   0.00000  Uiso   1.00
C1130  C     0.89498   0.80372   0.98145   0.00000  Uiso   1.00
C1131  C     0.90289   0.78855   0.92857   0.00000  Uiso   1.00
C1132  C     0.86536   0.79045   0.90824   0.00000  Uiso   1.00
C1133  C     0.84173   0.83545   0.56482   0.00000  Uiso   1.00
C1134  C     0.92187   0.81455   0.55808   0.00000  Uiso   1.00
C1135  C     0.78957   0.82472   0.91069   0.00000  Uiso   1.00
H1136  H     0.80879   0.85135   0.58818   0.00000  Uiso   1.00
H1137  H     0.71724   0.84694   0.92279   0.00000  Uiso   1.00
H1138  H     0.75016   0.83674   0.56618   0.00000  Uiso   1.00
H1139  H     0.69279   0.84985   0.52182   0.00000  Uiso   1.00
H1140  H     0.87126   0.77643   0.86884   0.00000  Uiso   1.00
C1141  C     0.87323   0.97808   0.72011   0.00000  Uiso   1.00
H1142  H     0.90486   0.96135   0.69402   0.00000  Uiso   1.00
C1143  C     0.87269   0.68747   0.72094   0.00000  Uiso   1.00
H1144  H     0.90360   0.70357   0.69472   0.00000  Uiso   1.00
C1145  C     0.83189   0.70908   0.75399   0.00000  Uiso   1.00
C1146  C     0.79075   0.68800   0.78725   0.00000  Uiso   1.00
C1147  C     0.79141   0.97818   0.78515   0.00000  Uiso   1.00
H1148  H     0.76048   0.96083   0.80995   0.00000  Uiso   1.00
C1149  C     0.83244   0.95719   0.75168   0.00000  Uiso   1.00
C1150  C     0.98460   0.80134   0.72582   0.00000  Uiso   1.00
C1151  C     0.69879   0.80153   0.72634   0.00000  Uiso   1.00
H1152  H     0.72376   0.77649   0.70683   0.00000  Uiso   1.00
N1153  N     0.71426   0.83334   0.75001   0.00000  Uiso   1.00
C1154  C     0.68261   0.86492   0.77466   0.00000  Uiso   1.00
H1155  H     0.69425   0.89026   0.79442   0.00000  Uiso   1.00
C1156  C     0.96806   0.86487   0.77476   0.00000  Uiso   1.00
H1157  H     0.94369   0.89013   0.79462   0.00000  Uiso   1.00
N1158  N     0.95239   0.83331   0.75000   0.00000  Uiso   1.00
C1159  C     0.74685   0.71037   0.82530   0.00000  Uiso   1.00
H1160  H     0.75757   0.73359   0.85046   0.00000  Uiso   1.00
H1161  H     0.72728   0.72619   0.80165   0.00000  Uiso   1.00
H1162  H     0.72156   0.68841   0.85322   0.00000  Uiso   1.00
C1163  C     0.97228   0.76625   0.69710   0.00000  Uiso   1.00
O1164  O     0.98008   0.73047   0.70805   0.00000  Uiso   1.00
O1165  O     0.95633   0.77380   0.65408   0.00000  Uiso   1.00
H1166  H     0.95400   0.74744   0.63360   0.00000  Uiso   1.00
C1167  C     0.95064   0.77400   0.89137   0.00000  Uiso   1.00
O1168  O     0.95402   0.74244   0.86368   0.00000  Uiso   1.00
O1169  O     0.99129   0.79791   0.88544   0.00000  Uiso   1.00
H1170  H     0.68807   0.78598   0.85720   0.00000  Uiso   1.00
loop_
_geom_bond_atom_site_label_1
_geom_bond_atom_site_label_2
_geom_bond_distance
_geom_bond_site_symmetry_2
_ccdc_geom_bond_type
O1     Zn7     1.996   .     S
O1     C3      1.284   .     A
O2     C3      1.283   .     A
O2     Zn8     1.989   .     S
C3     C44     1.408   .     S
O4     Zn7     1.965   .     S
O4     C6      1.298   .     A
O5     Zn8     1.911   .     S
O5     C6      1.295   .     A
C6     C30     1.464   .     S
Zn7    O11     1.911   .     S
Zn7    N48     2.018   .     S
Zn7    O9      1.989   .     S
Zn8    N53     2.018   .     S
Zn8    O12     1.965   .     S
Zn8    O10     1.996   .     S
O9     C13     1.282   .     A
O10    C13     1.290   .     A
O11    C14     1.294   .     A
O12    C14     1.298   .     A
C13    C40     1.420   .     S
C14    C18     1.458   .     S
C15    C29     1.392   .     A
C15    H602    1.080   1_554 S
C15    C610    1.413   1_554 S
H16    C29     1.079   .     S
H17    C600    1.080   .     S
C18    C29     1.395   .     A
C18    C28     1.389   .     A
C19    C20     1.388   .     A
C19    C30     1.401   .     A
C19    H32     1.083   .     S
C20    C606    1.392   .     S
C20    H619    1.082   .     S
C21    H33     1.078   .     S
C21    C605    1.392   1_554 S
C21    C607    1.421   1_554 S
C22    C23     1.403   .     A
C22    C606    1.421   .     S
C22    C609    1.417   .     S
C23    C27     1.411   .     A
C23    C30     1.415   .     A
C24    C28     1.391   .     A
C24    C607    1.417   1_554 S
C24    C610    1.426   1_554 S
C25    C26     1.410   .     A
C25    C600    1.413   .     S
C25    C609    1.426   .     S
C26    C62     1.483   .     S
C26    C27     1.393   .     A
C27    H35     1.082   .     S
C28    H31     1.077   .     S
H34    C605    1.082   1_554 S
C36    H37     1.085   .     S
C36    C44     1.389   .     A
C36    C233    1.368   .     S
C38    C40     1.394   .     A
C38    H39     1.077   .     S
C38    C426    1.368   1_545 S
C40    C41     1.413   .     A
C41    C54     1.509   .     S
C41    C432    1.382   1_545 S
C42    C44     1.393   .     A
C42    H43     1.085   .     S
C42    C236    1.382   .     S
C45    N53     1.383   .     A
C45    C58     1.467   .     S
C45    C111    1.415   .     S
C46    H47     1.083   .     S
C46    N48     1.354   .     A
C46    C175    1.415   1_455 S
N48    C49     1.368   .     A
C49    H50     1.082   .     S
C49    C181    1.420   1_455 S
C51    N53     1.367   .     A
C51    H52     1.082   .     S
C51    C114    1.420   .     S
C54    H56     1.109   .     S
C54    H55     1.111   .     S
C54    H57     1.111   .     S
C58    O60     1.392   .     S
C58    O59     1.223   .     D
O60    H61     1.013   .     S
C62    O63     1.223   .     D
C62    O64     1.398   .     S
O64    H130    1.012   .     S
H65    O194    1.012   1_455 S
O66    Zn72    1.996   .     S
O66    C68     1.284   .     A
O67    C68     1.283   .     A
O67    Zn73    1.989   .     S
C68    C109    1.408   .     S
O69    Zn72    1.965   .     S
O69    C71     1.298   .     A
O70    Zn73    1.911   .     S
O70    C71     1.295   .     A
C71    C95     1.464   .     S
Zn72   O76     1.911   .     S
Zn72   N113    2.018   .     S
Zn72   O74     1.989   .     S
Zn73   N118    2.018   .     S
Zn73   O77     1.965   .     S
Zn73   O75     1.996   .     S
O74    C78     1.282   .     A
O75    C78     1.290   .     A
O76    C79     1.294   .     A
O77    C79     1.298   .     A
C78    C105    1.420   .     S
C79    C83     1.458   .     S
C80    C94     1.392   .     A
C80    H667    1.080   1_554 S
C80    C675    1.413   1_554 S
H81    C94     1.079   .     S
H82    C665    1.080   .     S
C83    C94     1.395   .     A
C83    C93     1.389   .     A
C84    C85     1.388   .     A
C84    C95     1.401   .     A
C84    H97     1.083   .     S
C85    C671    1.392   .     S
C85    H684    1.082   .     S
C86    H98     1.078   .     S
C86    C670    1.392   1_554 S
C86    C672    1.421   1_554 S
C87    C88     1.403   .     A
C87    C671    1.421   .     S
C87    C674    1.417   .     S
C88    C92     1.411   .     A
C88    C95     1.415   .     A
C89    C93     1.391   .     A
C89    C672    1.417   1_554 S
C89    C675    1.426   1_554 S
C90    C91     1.410   .     A
C90    C665    1.413   .     S
C90    C674    1.426   .     S
C91    C127    1.483   .     S
C91    C92     1.393   .     A
C92    H100    1.082   .     S
C93    H96     1.077   .     S
H99    C670    1.082   1_554 S
C101   H102    1.085   .     S
C101   C109    1.389   .     A
C101   C298    1.368   .     S
C103   C105    1.394   .     A
C103   H104    1.077   .     S
C103   C491    1.368   1_545 S
C105   C106    1.413   .     A
C106   C119    1.509   .     S
C106   C497    1.382   1_545 S
C107   C109    1.393   .     A
C107   H108    1.085   .     S
C107   C301    1.382   .     S
C110   N118    1.383   .     A
C110   C123    1.467   .     S
C110   C176    1.415   .     S
C111   H112    1.083   .     S
C111   N113    1.354   .     A
N113   C114    1.368   .     A
C114   H115    1.082   .     S
C116   N118    1.367   .     A
C116   H117    1.082   .     S
C116   C179    1.420   .     S
C119   H121    1.109   .     S
C119   H120    1.111   .     S
C119   H122    1.111   .     S
C123   O125    1.392   .     S
C123   O124    1.223   .     D
O125   H126    1.013   .     S
C127   O128    1.223   .     D
C127   O129    1.398   .     S
O129   H195    1.012   .     S
O131   Zn137   1.996   .     S
O131   C133    1.284   .     A
O132   C133    1.283   .     A
O132   Zn138   1.989   .     S
C133   C174    1.408   .     S
O134   Zn137   1.965   .     S
O134   C136    1.298   .     A
O135   Zn138   1.911   .     S
O135   C136    1.295   .     A
C136   C160    1.464   .     S
Zn137  O141    1.911   .     S
Zn137  N178    2.018   .     S
Zn137  O139    1.989   .     S
Zn138  N183    2.018   .     S
Zn138  O142    1.965   .     S
Zn138  O140    1.996   .     S
O139   C143    1.282   .     A
O140   C143    1.290   .     A
O141   C144    1.294   .     A
O142   C144    1.298   .     A
C143   C170    1.420   .     S
C144   C148    1.458   .     S
C145   C159    1.392   .     A
C145   H732    1.080   1_554 S
C145   C740    1.413   1_554 S
H146   C159    1.079   .     S
H147   C730    1.080   .     S
C148   C159    1.395   .     A
C148   C158    1.389   .     A
C149   C150    1.388   .     A
C149   C160    1.401   .     A
C149   H162    1.083   .     S
C150   C736    1.392   .     S
C150   H749    1.082   .     S
C151   H163    1.078   .     S
C151   C735    1.392   1_554 S
C151   C737    1.421   1_554 S
C152   C153    1.403   .     A
C152   C736    1.421   .     S
C152   C739    1.417   .     S
C153   C157    1.411   .     A
C153   C160    1.415   .     A
C154   C158    1.391   .     A
C154   C737    1.417   1_554 S
C154   C740    1.426   1_554 S
C155   C156    1.410   .     A
C155   C730    1.413   .     S
C155   C739    1.426   .     S
C156   C192    1.483   .     S
C156   C157    1.393   .     A
C157   H165    1.082   .     S
C158   H161    1.077   .     S
H164   C735    1.082   1_554 S
C166   H167    1.085   .     S
C166   C174    1.389   .     A
C166   C363    1.368   .     S
C168   C170    1.394   .     A
C168   H169    1.077   .     S
C168   C556    1.368   1_545 S
C170   C171    1.413   .     A
C171   C184    1.509   .     S
C171   C562    1.382   1_545 S
C172   C174    1.393   .     A
C172   H173    1.085   .     S
C172   C366    1.382   .     S
C175   N183    1.383   .     A
C175   C188    1.467   .     S
C175   C46     1.415   1_655 S
C176   H177    1.083   .     S
C176   N178    1.354   .     A
N178   C179    1.368   .     A
C179   H180    1.082   .     S
C181   N183    1.367   .     A
C181   H182    1.082   .     S
C181   C49     1.420   1_655 S
C184   H186    1.109   .     S
C184   H185    1.111   .     S
C184   H187    1.111   .     S
C188   O190    1.392   .     S
C188   O189    1.223   .     D
O190   H191    1.013   .     S
C192   O193    1.223   .     D
C192   O194    1.398   .     S
O194   H65     1.012   1_655 S
O196   Zn202   1.996   .     S
O196   C198    1.284   .     A
O197   C198    1.283   .     A
O197   Zn203   1.989   .     S
C198   C239    1.408   .     S
O199   Zn202   1.965   .     S
O199   C201    1.298   .     A
O200   Zn203   1.911   .     S
O200   C201    1.295   .     A
C201   C225    1.464   .     S
Zn202  O206    1.911   .     S
Zn202  N243    2.018   .     S
Zn202  O204    1.989   .     S
Zn203  N248    2.018   .     S
Zn203  O207    1.965   .     S
Zn203  O205    1.996   .     S
O204   C208    1.282   .     A
O205   C208    1.290   .     A
O206   C209    1.294   .     A
O207   C209    1.298   .     A
C208   C235    1.420   .     S
C209   C213    1.458   .     S
C210   C224    1.392   .     A
C210   H797    1.080   1_554 S
C210   C805    1.413   1_554 S
H211   C224    1.079   .     S
H212   C795    1.080   .     S
C213   C224    1.395   .     A
C213   C223    1.389   .     A
C214   C215    1.388   .     A
C214   C225    1.401   .     A
C214   H227    1.083   .     S
C215   C801    1.392   .     S
C215   H814    1.082   .     S
C216   H228    1.078   .     S
C216   C800    1.392   1_554 S
C216   C802    1.421   1_554 S
C217   C218    1.403   .     A
C217   C801    1.421   .     S
C217   C804    1.417   .     S
C218   C222    1.411   .     A
C218   C225    1.415   .     A
C219   C223    1.391   .     A
C219   C802    1.417   1_554 S
C219   C805    1.426   1_554 S
C220   C221    1.410   .     A
C220   C795    1.413   .     S
C220   C804    1.426   .     S
C221   C257    1.483   .     S
C221   C222    1.393   .     A
C222   H230    1.082   .     S
C223   H226    1.077   .     S
H229   C800    1.082   1_554 S
C231   H232    1.085   .     S
C231   C239    1.389   .     A
C231   C428    1.368   .     S
C233   C235    1.394   .     A
C233   H234    1.077   .     S
C235   C236    1.413   .     A
C236   C249    1.509   .     S
C237   C239    1.393   .     A
C237   H238    1.085   .     S
C237   C431    1.382   .     S
C240   N248    1.383   .     A
C240   C253    1.467   .     S
C240   C306    1.415   .     S
C241   H242    1.083   .     S
C241   N243    1.354   .     A
C241   C370    1.415   1_455 S
N243   C244    1.368   .     A
C244   H245    1.082   .     S
C244   C376    1.420   1_455 S
C246   N248    1.367   .     A
C246   H247    1.082   .     S
C246   C309    1.420   .     S
C249   H251    1.109   .     S
C249   H250    1.111   .     S
C249   H252    1.111   .     S
C253   O255    1.392   .     S
C253   O254    1.223   .     D
O255   H256    1.013   .     S
C257   O258    1.223   .     D
C257   O259    1.398   .     S
O259   H325    1.012   .     S
H260   O389    1.012   1_455 S
O261   Zn267   1.996   .     S
O261   C263    1.284   .     A
O262   C263    1.283   .     A
O262   Zn268   1.989   .     S
C263   C304    1.408   .     S
O264   Zn267   1.965   .     S
O264   C266    1.298   .     A
O265   Zn268   1.911   .     S
O265   C266    1.295   .     A
C266   C290    1.464   .     S
Zn267  O271    1.911   .     S
Zn267  N308    2.018   .     S
Zn267  O269    1.989   .     S
Zn268  N313    2.018   .     S
Zn268  O272    1.965   .     S
Zn268  O270    1.996   .     S
O269   C273    1.282   .     A
O270   C273    1.290   .     A
O271   C274    1.294   .     A
O272   C274    1.298   .     A
C273   C300    1.420   .     S
C274   C278    1.458   .     S
C275   C289    1.392   .     A
C275   H862    1.080   1_554 S
C275   C870    1.413   1_554 S
H276   C289    1.079   .     S
H277   C860    1.080   .     S
C278   C289    1.395   .     A
C278   C288    1.389   .     A
C279   C280    1.388   .     A
C279   C290    1.401   .     A
C279   H292    1.083   .     S
C280   C866    1.392   .     S
C280   H879    1.082   .     S
C281   H293    1.078   .     S
C281   C865    1.392   1_554 S
C281   C867    1.421   1_554 S
C282   C283    1.403   .     A
C282   C866    1.421   .     S
C282   C869    1.417   .     S
C283   C287    1.411   .     A
C283   C290    1.415   .     A
C284   C288    1.391   .     A
C284   C867    1.417   1_554 S
C284   C870    1.426   1_554 S
C285   C286    1.410   .     A
C285   C860    1.413   .     S
C285   C869    1.426   .     S
C286   C322    1.483   .     S
C286   C287    1.393   .     A
C287   H295    1.082   .     S
C288   H291    1.077   .     S
H294   C865    1.082   1_554 S
C296   H297    1.085   .     S
C296   C304    1.389   .     A
C296   C493    1.368   .     S
C298   C300    1.394   .     A
C298   H299    1.077   .     S
C300   C301    1.413   .     A
C301   C314    1.509   .     S
C302   C304    1.393   .     A
C302   H303    1.085   .     S
C302   C496    1.382   .     S
C305   N313    1.383   .     A
C305   C318    1.467   .     S
C305   C371    1.415   .     S
C306   H307    1.083   .     S
C306   N308    1.354   .     A
N308   C309    1.368   .     A
C309   H310    1.082   .     S
C311   N313    1.367   .     A
C311   H312    1.082   .     S
C311   C374    1.420   .     S
C314   H316    1.109   .     S
C314   H315    1.111   .     S
C314   H317    1.111   .     S
C318   O320    1.392   .     S
C318   O319    1.223   .     D
O320   H321    1.013   .     S
C322   O323    1.223   .     D
C322   O324    1.398   .     S
O324   H390    1.012   .     S
O326   Zn332   1.996   .     S
O326   C328    1.284   .     A
O327   C328    1.283   .     A
O327   Zn333   1.989   .     S
C328   C369    1.408   .     S
O329   Zn332   1.965   .     S
O329   C331    1.298   .     A
O330   Zn333   1.911   .     S
O330   C331    1.295   .     A
C331   C355    1.464   .     S
Zn332  O336    1.911   .     S
Zn332  N373    2.018   .     S
Zn332  O334    1.989   .     S
Zn333  N378    2.018   .     S
Zn333  O337    1.965   .     S
Zn333  O335    1.996   .     S
O334   C338    1.282   .     A
O335   C338    1.290   .     A
O336   C339    1.294   .     A
O337   C339    1.298   .     A
C338   C365    1.420   .     S
C339   C343    1.458   .     S
C340   C354    1.392   .     A
C340   H927    1.080   1_554 S
C340   C935    1.413   1_554 S
H341   C354    1.079   .     S
H342   C925    1.080   .     S
C343   C354    1.395   .     A
C343   C353    1.389   .     A
C344   C345    1.388   .     A
C344   C355    1.401   .     A
C344   H357    1.083   .     S
C345   C931    1.392   .     S
C345   H944    1.082   .     S
C346   H358    1.078   .     S
C346   C930    1.392   1_554 S
C346   C932    1.421   1_554 S
C347   C348    1.403   .     A
C347   C931    1.421   .     S
C347   C934    1.417   .     S
C348   C352    1.411   .     A
C348   C355    1.415   .     A
C349   C353    1.391   .     A
C349   C932    1.417   1_554 S
C349   C935    1.426   1_554 S
C350   C351    1.410   .     A
C350   C925    1.413   .     S
C350   C934    1.426   .     S
C351   C387    1.483   .     S
C351   C352    1.393   .     A
C352   H360    1.082   .     S
C353   H356    1.077   .     S
H359   C930    1.082   1_554 S
C361   H362    1.085   .     S
C361   C369    1.389   .     A
C361   C558    1.368   .     S
C363   C365    1.394   .     A
C363   H364    1.077   .     S
C365   C366    1.413   .     A
C366   C379    1.509   .     S
C367   C369    1.393   .     A
C367   H368    1.085   .     S
C367   C561    1.382   .     S
C370   N378    1.383   .     A
C370   C383    1.467   .     S
C370   C241    1.415   1_655 S
C371   H372    1.083   .     S
C371   N373    1.354   .     A
N373   C374    1.368   .     A
C374   H375    1.082   .     S
C376   N378    1.367   .     A
C376   H377    1.082   .     S
C376   C244    1.420   1_655 S
C379   H381    1.109   .     S
C379   H380    1.111   .     S
C379   H382    1.111   .     S
C383   O385    1.392   .     S
C383   O384    1.223   .     D
O385   H386    1.013   .     S
C387   O388    1.223   .     D
C387   O389    1.398   .     S
O389   H260    1.012   1_655 S
O391   Zn397   1.996   .     S
O391   C393    1.284   .     A
O392   C393    1.283   .     A
O392   Zn398   1.989   .     S
C393   C434    1.408   .     S
O394   Zn397   1.965   .     S
O394   C396    1.298   .     A
O395   Zn398   1.911   .     S
O395   C396    1.295   .     A
C396   C420    1.464   .     S
Zn397  O401    1.911   .     S
Zn397  N438    2.018   .     S
Zn397  O399    1.989   .     S
Zn398  N443    2.018   .     S
Zn398  O402    1.965   .     S
Zn398  O400    1.996   .     S
O399   C403    1.282   .     A
O400   C403    1.290   .     A
O401   C404    1.294   .     A
O402   C404    1.298   .     A
C403   C430    1.420   .     S
C404   C408    1.458   .     S
C405   C419    1.392   .     A
C405   H992    1.080   1_554 S
C405   C1000   1.413   1_554 S
H406   C419    1.079   .     S
H407   C990    1.080   .     S
C408   C419    1.395   .     A
C408   C418    1.389   .     A
C409   C410    1.388   .     A
C409   C420    1.401   .     A
C409   H422    1.083   .     S
C410   C996    1.392   .     S
C410   H1009   1.082   .     S
C411   H423    1.078   .     S
C411   C995    1.392   1_554 S
C411   C997    1.421   1_554 S
C412   C413    1.403   .     A
C412   C996    1.421   .     S
C412   C999    1.417   .     S
C413   C417    1.411   .     A
C413   C420    1.415   .     A
C414   C418    1.391   .     A
C414   C997    1.417   1_554 S
C414   C1000   1.426   1_554 S
C415   C416    1.410   .     A
C415   C990    1.413   .     S
C415   C999    1.426   .     S
C416   C452    1.483   .     S
C416   C417    1.393   .     A
C417   H425    1.082   .     S
C418   H421    1.077   .     S
H424   C995    1.082   1_554 S
C426   H427    1.085   .     S
C426   C434    1.389   .     A
C426   C38     1.368   1_565 S
C428   C430    1.394   .     A
C428   H429    1.077   .     S
C430   C431    1.413   .     A
C431   C444    1.509   .     S
C432   C434    1.393   .     A
C432   H433    1.085   .     S
C432   C41     1.382   1_565 S
C435   N443    1.383   .     A
C435   C448    1.467   .     S
C435   C501    1.415   .     S
C436   H437    1.083   .     S
C436   N438    1.354   .     A
C436   C565    1.415   1_455 S
N438   C439    1.368   .     A
C439   H440    1.082   .     S
C439   C571    1.420   1_455 S
C441   N443    1.367   .     A
C441   H442    1.082   .     S
C441   C504    1.420   .     S
C444   H446    1.109   .     S
C444   H445    1.111   .     S
C444   H447    1.111   .     S
C448   O450    1.392   .     S
C448   O449    1.223   .     D
O450   H451    1.013   .     S
C452   O453    1.223   .     D
C452   O454    1.398   .     S
O454   H520    1.012   .     S
H455   O584    1.012   1_455 S
O456   Zn462   1.996   .     S
O456   C458    1.284   .     A
O457   C458    1.283   .     A
O457   Zn463   1.989   .     S
C458   C499    1.408   .     S
O459   Zn462   1.965   .     S
O459   C461    1.298   .     A
O460   Zn463   1.911   .     S
O460   C461    1.295   .     A
C461   C485    1.464   .     S
Zn462  O466    1.911   .     S
Zn462  N503    2.018   .     S
Zn462  O464    1.989   .     S
Zn463  N508    2.018   .     S
Zn463  O467    1.965   .     S
Zn463  O465    1.996   .     S
O464   C468    1.282   .     A
O465   C468    1.290   .     A
O466   C469    1.294   .     A
O467   C469    1.298   .     A
C468   C495    1.420   .     S
C469   C473    1.458   .     S
C470   C484    1.392   .     A
C470   H1057   1.080   1_554 S
C470   C1065   1.413   1_554 S
H471   C484    1.079   .     S
H472   C1055   1.080   .     S
C473   C484    1.395   .     A
C473   C483    1.389   .     A
C474   C475    1.388   .     A
C474   C485    1.401   .     A
C474   H487    1.083   .     S
C475   C1061   1.392   .     S
C475   H1074   1.082   .     S
C476   H488    1.078   .     S
C476   C1060   1.392   1_554 S
C476   C1062   1.421   1_554 S
C477   C478    1.403   .     A
C477   C1061   1.421   .     S
C477   C1064   1.417   .     S
C478   C482    1.411   .     A
C478   C485    1.415   .     A
C479   C483    1.391   .     A
C479   C1062   1.417   1_554 S
C479   C1065   1.426   1_554 S
C480   C481    1.410   .     A
C480   C1055   1.413   .     S
C480   C1064   1.426   .     S
C481   C517    1.483   .     S
C481   C482    1.393   .     A
C482   H490    1.082   .     S
C483   H486    1.077   .     S
H489   C1060   1.082   1_554 S
C491   H492    1.085   .     S
C491   C499    1.389   .     A
C491   C103    1.368   1_565 S
C493   C495    1.394   .     A
C493   H494    1.077   .     S
C495   C496    1.413   .     A
C496   C509    1.509   .     S
C497   C499    1.393   .     A
C497   H498    1.085   .     S
C497   C106    1.382   1_565 S
C500   N508    1.383   .     A
C500   C513    1.467   .     S
C500   C566    1.415   .     S
C501   H502    1.083   .     S
C501   N503    1.354   .     A
N503   C504    1.368   .     A
C504   H505    1.082   .     S
C506   N508    1.367   .     A
C506   H507    1.082   .     S
C506   C569    1.420   .     S
C509   H511    1.109   .     S
C509   H510    1.111   .     S
C509   H512    1.111   .     S
C513   O515    1.392   .     S
C513   O514    1.223   .     D
O515   H516    1.013   .     S
C517   O518    1.223   .     D
C517   O519    1.398   .     S
O519   H585    1.012   .     S
O521   Zn527   1.996   .     S
O521   C523    1.284   .     A
O522   C523    1.283   .     A
O522   Zn528   1.989   .     S
C523   C564    1.408   .     S
O524   Zn527   1.965   .     S
O524   C526    1.298   .     A
O525   Zn528   1.911   .     S
O525   C526    1.295   .     A
C526   C550    1.464   .     S
Zn527  O531    1.911   .     S
Zn527  N568    2.018   .     S
Zn527  O529    1.989   .     S
Zn528  N573    2.018   .     S
Zn528  O532    1.965   .     S
Zn528  O530    1.996   .     S
O529   C533    1.282   .     A
O530   C533    1.290   .     A
O531   C534    1.294   .     A
O532   C534    1.298   .     A
C533   C560    1.420   .     S
C534   C538    1.458   .     S
C535   C549    1.392   .     A
C535   H1122   1.080   1_554 S
C535   C1130   1.413   1_554 S
H536   C549    1.079   .     S
H537   C1120   1.080   .     S
C538   C549    1.395   .     A
C538   C548    1.389   .     A
C539   C540    1.388   .     A
C539   C550    1.401   .     A
C539   H552    1.083   .     S
C540   C1126   1.392   .     S
C540   H1139   1.082   .     S
C541   H553    1.078   .     S
C541   C1125   1.392   1_554 S
C541   C1127   1.421   1_554 S
C542   C543    1.403   .     A
C542   C1126   1.421   .     S
C542   C1129   1.417   .     S
C543   C547    1.411   .     A
C543   C550    1.415   .     A
C544   C548    1.391   .     A
C544   C1127   1.417   1_554 S
C544   C1130   1.426   1_554 S
C545   C546    1.410   .     A
C545   C1120   1.413   .     S
C545   C1129   1.426   .     S
C546   C582    1.483   .     S
C546   C547    1.393   .     A
C547   H555    1.082   .     S
C548   H551    1.077   .     S
H554   C1125   1.082   1_554 S
C556   H557    1.085   .     S
C556   C564    1.389   .     A
C556   C168    1.368   1_565 S
C558   C560    1.394   .     A
C558   H559    1.077   .     S
C560   C561    1.413   .     A
C561   C574    1.509   .     S
C562   C564    1.393   .     A
C562   H563    1.085   .     S
C562   C171    1.382   1_565 S
C565   N573    1.383   .     A
C565   C578    1.467   .     S
C565   C436    1.415   1_655 S
C566   H567    1.083   .     S
C566   N568    1.354   .     A
N568   C569    1.368   .     A
C569   H570    1.082   .     S
C571   N573    1.367   .     A
C571   H572    1.082   .     S
C571   C439    1.420   1_655 S
C574   H576    1.109   .     S
C574   H575    1.111   .     S
C574   H577    1.111   .     S
C578   O580    1.392   .     S
C578   O579    1.223   .     D
O580   H581    1.013   .     S
C582   O583    1.223   .     D
C582   O584    1.398   .     S
O584   H455    1.012   1_655 S
O586   Zn592   1.996   .     S
O586   C588    1.284   .     A
O587   C588    1.283   .     A
O587   Zn593   1.989   .     S
C588   C629    1.408   .     S
O589   Zn592   1.965   .     S
O589   C591    1.298   .     A
O590   Zn593   1.911   .     S
O590   C591    1.295   .     A
C591   C615    1.464   .     S
Zn592  O596    1.911   .     S
Zn592  N633    2.018   .     S
Zn592  O594    1.989   .     S
Zn593  N638    2.018   .     S
Zn593  O597    1.965   .     S
Zn593  O595    1.996   .     S
O594   C598    1.282   .     A
O595   C598    1.290   .     A
O596   C599    1.294   .     A
O597   C599    1.298   .     A
C598   C625    1.420   .     S
C599   C603    1.458   .     S
C600   C614    1.392   .     A
H601   C614    1.079   .     S
H602   C15     1.080   1_556 S
C603   C614    1.395   .     A
C603   C613    1.389   .     A
C604   C605    1.388   .     A
C604   C615    1.401   .     A
C604   H617    1.083   .     S
C605   C21     1.392   1_556 S
C605   H34     1.082   1_556 S
C606   H618    1.078   .     S
C607   C608    1.403   .     A
C607   C21     1.421   1_556 S
C607   C24     1.417   1_556 S
C608   C612    1.411   .     A
C608   C615    1.415   .     A
C609   C613    1.391   .     A
C610   C611    1.410   .     A
C610   C15     1.413   1_556 S
C610   C24     1.426   1_556 S
C611   C647    1.483   .     S
C611   C612    1.393   .     A
C612   H620    1.082   .     S
C613   H616    1.077   .     S
C621   H622    1.085   .     S
C621   C629    1.389   .     A
C621   C818    1.368   .     S
C623   C625    1.394   .     A
C623   H624    1.077   .     S
C623   C1011   1.368   1_545 S
C625   C626    1.413   .     A
C626   C639    1.509   .     S
C626   C1017   1.382   1_545 S
C627   C629    1.393   .     A
C627   H628    1.085   .     S
C627   C821    1.382   .     S
C630   N638    1.383   .     A
C630   C643    1.467   .     S
C630   C696    1.415   .     S
C631   H632    1.083   .     S
C631   N633    1.354   .     A
C631   C760    1.415   1_455 S
N633   C634    1.368   .     A
C634   H635    1.082   .     S
C634   C766    1.420   1_455 S
C636   N638    1.367   .     A
C636   H637    1.082   .     S
C636   C699    1.420   .     S
C639   H641    1.109   .     S
C639   H640    1.111   .     S
C639   H642    1.111   .     S
C643   O645    1.392   .     S
C643   O644    1.223   .     D
O645   H646    1.013   .     S
C647   O648    1.223   .     D
C647   O649    1.398   .     S
O649   H715    1.012   .     S
H650   O779    1.012   1_455 S
O651   Zn657   1.996   .     S
O651   C653    1.284   .     A
O652   C653    1.283   .     A
O652   Zn658   1.989   .     S
C653   C694    1.408   .     S
O654   Zn657   1.965   .     S
O654   C656    1.298   .     A
O655   Zn658   1.911   .     S
O655   C656    1.295   .     A
C656   C680    1.464   .     S
Zn657  O661    1.911   .     S
Zn657  N698    2.018   .     S
Zn657  O659    1.989   .     S
Zn658  N703    2.018   .     S
Zn658  O662    1.965   .     S
Zn658  O660    1.996   .     S
O659   C663    1.282   .     A
O660   C663    1.290   .     A
O661   C664    1.294   .     A
O662   C664    1.298   .     A
C663   C690    1.420   .     S
C664   C668    1.458   .     S
C665   C679    1.392   .     A
H666   C679    1.079   .     S
H667   C80     1.080   1_556 S
C668   C679    1.395   .     A
C668   C678    1.389   .     A
C669   C670    1.388   .     A
C669   C680    1.401   .     A
C669   H682    1.083   .     S
C670   C86     1.392   1_556 S
C670   H99     1.082   1_556 S
C671   H683    1.078   .     S
C672   C673    1.403   .     A
C672   C86     1.421   1_556 S
C672   C89     1.417   1_556 S
C673   C677    1.411   .     A
C673   C680    1.415   .     A
C674   C678    1.391   .     A
C675   C676    1.410   .     A
C675   C80     1.413   1_556 S
C675   C89     1.426   1_556 S
C676   C712    1.483   .     S
C676   C677    1.393   .     A
C677   H685    1.082   .     S
C678   H681    1.077   .     S
C686   H687    1.085   .     S
C686   C694    1.389   .     A
C686   C883    1.368   .     S
C688   C690    1.394   .     A
C688   H689    1.077   .     S
C688   C1076   1.368   1_545 S
C690   C691    1.413   .     A
C691   C704    1.509   .     S
C691   C1082   1.382   1_545 S
C692   C694    1.393   .     A
C692   H693    1.085   .     S
C692   C886    1.382   .     S
C695   N703    1.383   .     A
C695   C708    1.467   .     S
C695   C761    1.415   .     S
C696   H697    1.083   .     S
C696   N698    1.354   .     A
N698   C699    1.368   .     A
C699   H700    1.082   .     S
C701   N703    1.367   .     A
C701   H702    1.082   .     S
C701   C764    1.420   .     S
C704   H706    1.109   .     S
C704   H705    1.111   .     S
C704   H707    1.111   .     S
C708   O710    1.392   .     S
C708   O709    1.223   .     D
O710   H711    1.013   .     S
C712   O713    1.223   .     D
C712   O714    1.398   .     S
O714   H780    1.012   .     S
O716   Zn722   1.996   .     S
O716   C718    1.284   .     A
O717   C718    1.283   .     A
O717   Zn723   1.989   .     S
C718   C759    1.408   .     S
O719   Zn722   1.965   .     S
O719   C721    1.298   .     A
O720   Zn723   1.911   .     S
O720   C721    1.295   .     A
C721   C745    1.464   .     S
Zn722  O726    1.911   .     S
Zn722  N763    2.018   .     S
Zn722  O724    1.989   .     S
Zn723  N768    2.018   .     S
Zn723  O727    1.965   .     S
Zn723  O725    1.996   .     S
O724   C728    1.282   .     A
O725   C728    1.290   .     A
O726   C729    1.294   .     A
O727   C729    1.298   .     A
C728   C755    1.420   .     S
C729   C733    1.458   .     S
C730   C744    1.392   .     A
H731   C744    1.079   .     S
H732   C145    1.080   1_556 S
C733   C744    1.395   .     A
C733   C743    1.389   .     A
C734   C735    1.388   .     A
C734   C745    1.401   .     A
C734   H747    1.083   .     S
C735   C151    1.392   1_556 S
C735   H164    1.082   1_556 S
C736   H748    1.078   .     S
C737   C738    1.403   .     A
C737   C151    1.421   1_556 S
C737   C154    1.417   1_556 S
C738   C742    1.411   .     A
C738   C745    1.415   .     A
C739   C743    1.391   .     A
C740   C741    1.410   .     A
C740   C145    1.413   1_556 S
C740   C154    1.426   1_556 S
C741   C777    1.483   .     S
C741   C742    1.393   .     A
C742   H750    1.082   .     S
C743   H746    1.077   .     S
C751   H752    1.085   .     S
C751   C759    1.389   .     A
C751   C948    1.368   .     S
C753   C755    1.394   .     A
C753   H754    1.077   .     S
C753   C1141   1.368   1_545 S
C755   C756    1.413   .     A
C756   C769    1.509   .     S
C756   C1147   1.382   1_545 S
C757   C759    1.393   .     A
C757   H758    1.085   .     S
C757   C951    1.382   .     S
C760   N768    1.383   .     A
C760   C773    1.467   .     S
C760   C631    1.415   1_655 S
C761   H762    1.083   .     S
C761   N763    1.354   .     A
N763   C764    1.368   .     A
C764   H765    1.082   .     S
C766   N768    1.367   .     A
C766   H767    1.082   .     S
C766   C634    1.420   1_655 S
C769   H771    1.109   .     S
C769   H770    1.111   .     S
C769   H772    1.111   .     S
C773   O775    1.392   .     S
C773   O774    1.223   .     D
O775   H776    1.013   .     S
C777   O778    1.223   .     D
C777   O779    1.398   .     S
O779   H650    1.012   1_655 S
O781   Zn787   1.996   .     S
O781   C783    1.284   .     A
O782   C783    1.283   .     A
O782   Zn788   1.989   .     S
C783   C824    1.408   .     S
O784   Zn787   1.965   .     S
O784   C786    1.298   .     A
O785   Zn788   1.911   .     S
O785   C786    1.295   .     A
C786   C810    1.464   .     S
Zn787  O791    1.911   .     S
Zn787  N828    2.018   .     S
Zn787  O789    1.989   .     S
Zn788  N833    2.018   .     S
Zn788  O792    1.965   .     S
Zn788  O790    1.996   .     S
O789   C793    1.282   .     A
O790   C793    1.290   .     A
O791   C794    1.294   .     A
O792   C794    1.298   .     A
C793   C820    1.420   .     S
C794   C798    1.458   .     S
C795   C809    1.392   .     A
H796   C809    1.079   .     S
H797   C210    1.080   1_556 S
C798   C809    1.395   .     A
C798   C808    1.389   .     A
C799   C800    1.388   .     A
C799   C810    1.401   .     A
C799   H812    1.083   .     S
C800   C216    1.392   1_556 S
C800   H229    1.082   1_556 S
C801   H813    1.078   .     S
C802   C803    1.403   .     A
C802   C216    1.421   1_556 S
C802   C219    1.417   1_556 S
C803   C807    1.411   .     A
C803   C810    1.415   .     A
C804   C808    1.391   .     A
C805   C806    1.410   .     A
C805   C210    1.413   1_556 S
C805   C219    1.426   1_556 S
C806   C842    1.483   .     S
C806   C807    1.393   .     A
C807   H815    1.082   .     S
C808   H811    1.077   .     S
C816   H817    1.085   .     S
C816   C824    1.389   .     A
C816   C1013   1.368   .     S
C818   C820    1.394   .     A
C818   H819    1.077   .     S
C820   C821    1.413   .     A
C821   C834    1.509   .     S
C822   C824    1.393   .     A
C822   H823    1.085   .     S
C822   C1016   1.382   .     S
C825   N833    1.383   .     A
C825   C838    1.467   .     S
C825   C891    1.415   .     S
C826   H827    1.083   .     S
C826   N828    1.354   .     A
C826   C955    1.415   1_455 S
N828   C829    1.368   .     A
C829   H830    1.082   .     S
C829   C961    1.420   1_455 S
C831   N833    1.367   .     A
C831   H832    1.082   .     S
C831   C894    1.420   .     S
C834   H836    1.109   .     S
C834   H835    1.111   .     S
C834   H837    1.111   .     S
C838   O840    1.392   .     S
C838   O839    1.223   .     D
O840   H841    1.013   .     S
C842   O843    1.223   .     D
C842   O844    1.398   .     S
O844   H910    1.012   .     S
H845   O974    1.012   1_455 S
O846   Zn852   1.996   .     S
O846   C848    1.284   .     A
O847   C848    1.283   .     A
O847   Zn853   1.989   .     S
C848   C889    1.408   .     S
O849   Zn852   1.965   .     S
O849   C851    1.298   .     A
O850   Zn853   1.911   .     S
O850   C851    1.295   .     A
C851   C875    1.464   .     S
Zn852  O856    1.911   .     S
Zn852  N893    2.018   .     S
Zn852  O854    1.989   .     S
Zn853  N898    2.018   .     S
Zn853  O857    1.965   .     S
Zn853  O855    1.996   .     S
O854   C858    1.282   .     A
O855   C858    1.290   .     A
O856   C859    1.294   .     A
O857   C859    1.298   .     A
C858   C885    1.420   .     S
C859   C863    1.458   .     S
C860   C874    1.392   .     A
H861   C874    1.079   .     S
H862   C275    1.080   1_556 S
C863   C874    1.395   .     A
C863   C873    1.389   .     A
C864   C865    1.388   .     A
C864   C875    1.401   .     A
C864   H877    1.083   .     S
C865   C281    1.392   1_556 S
C865   H294    1.082   1_556 S
C866   H878    1.078   .     S
C867   C868    1.403   .     A
C867   C281    1.421   1_556 S
C867   C284    1.417   1_556 S
C868   C872    1.411   .     A
C868   C875    1.415   .     A
C869   C873    1.391   .     A
C870   C871    1.410   .     A
C870   C275    1.413   1_556 S
C870   C284    1.426   1_556 S
C871   C907    1.483   .     S
C871   C872    1.393   .     A
C872   H880    1.082   .     S
C873   H876    1.077   .     S
C881   H882    1.085   .     S
C881   C889    1.389   .     A
C881   C1078   1.368   .     S
C883   C885    1.394   .     A
C883   H884    1.077   .     S
C885   C886    1.413   .     A
C886   C899    1.509   .     S
C887   C889    1.393   .     A
C887   H888    1.085   .     S
C887   C1081   1.382   .     S
C890   N898    1.383   .     A
C890   C903    1.467   .     S
C890   C956    1.415   .     S
C891   H892    1.083   .     S
C891   N893    1.354   .     A
N893   C894    1.368   .     A
C894   H895    1.082   .     S
C896   N898    1.367   .     A
C896   H897    1.082   .     S
C896   C959    1.420   .     S
C899   H901    1.109   .     S
C899   H900    1.111   .     S
C899   H902    1.111   .     S
C903   O905    1.392   .     S
C903   O904    1.223   .     D
O905   H906    1.013   .     S
C907   O908    1.223   .     D
C907   O909    1.398   .     S
O909   H975    1.012   .     S
O911   Zn917   1.996   .     S
O911   C913    1.284   .     A
O912   C913    1.283   .     A
O912   Zn918   1.989   .     S
C913   C954    1.408   .     S
O914   Zn917   1.965   .     S
O914   C916    1.298   .     A
O915   Zn918   1.911   .     S
O915   C916    1.295   .     A
C916   C940    1.464   .     S
Zn917  O921    1.911   .     S
Zn917  N958    2.018   .     S
Zn917  O919    1.989   .     S
Zn918  N963    2.018   .     S
Zn918  O922    1.965   .     S
Zn918  O920    1.996   .     S
O919   C923    1.282   .     A
O920   C923    1.290   .     A
O921   C924    1.294   .     A
O922   C924    1.298   .     A
C923   C950    1.420   .     S
C924   C928    1.458   .     S
C925   C939    1.392   .     A
H926   C939    1.079   .     S
H927   C340    1.080   1_556 S
C928   C939    1.395   .     A
C928   C938    1.389   .     A
C929   C930    1.388   .     A
C929   C940    1.401   .     A
C929   H942    1.083   .     S
C930   C346    1.392   1_556 S
C930   H359    1.082   1_556 S
C931   H943    1.078   .     S
C932   C933    1.403   .     A
C932   C346    1.421   1_556 S
C932   C349    1.417   1_556 S
C933   C937    1.411   .     A
C933   C940    1.415   .     A
C934   C938    1.391   .     A
C935   C936    1.410   .     A
C935   C340    1.413   1_556 S
C935   C349    1.426   1_556 S
C936   C972    1.483   .     S
C936   C937    1.393   .     A
C937   H945    1.082   .     S
C938   H941    1.077   .     S
C946   H947    1.085   .     S
C946   C954    1.389   .     A
C946   C1143   1.368   .     S
C948   C950    1.394   .     A
C948   H949    1.077   .     S
C950   C951    1.413   .     A
C951   C964    1.509   .     S
C952   C954    1.393   .     A
C952   H953    1.085   .     S
C952   C1146   1.382   .     S
C955   N963    1.383   .     A
C955   C968    1.467   .     S
C955   C826    1.415   1_655 S
C956   H957    1.083   .     S
C956   N958    1.354   .     A
N958   C959    1.368   .     A
C959   H960    1.082   .     S
C961   N963    1.367   .     A
C961   H962    1.082   .     S
C961   C829    1.420   1_655 S
C964   H966    1.109   .     S
C964   H965    1.111   .     S
C964   H967    1.111   .     S
C968   O970    1.392   .     S
C968   O969    1.223   .     D
O970   H971    1.013   .     S
C972   O973    1.223   .     D
C972   O974    1.398   .     S
O974   H845    1.012   1_655 S
O976   Zn982   1.996   .     S
O976   C978    1.284   .     A
O977   C978    1.283   .     A
O977   Zn983   1.989   .     S
C978   C1019   1.408   .     S
O979   Zn982   1.965   .     S
O979   C981    1.298   .     A
O980   Zn983   1.911   .     S
O980   C981    1.295   .     A
C981   C1005   1.464   .     S
Zn982  O986    1.911   .     S
Zn982  N1023   2.018   .     S
Zn982  O984    1.989   .     S
Zn983  N1028   2.018   .     S
Zn983  O987    1.965   .     S
Zn983  O985    1.996   .     S
O984   C988    1.282   .     A
O985   C988    1.290   .     A
O986   C989    1.294   .     A
O987   C989    1.298   .     A
C988   C1015   1.420   .     S
C989   C993    1.458   .     S
C990   C1004   1.392   .     A
H991   C1004   1.079   .     S
H992   C405    1.080   1_556 S
C993   C1004   1.395   .     A
C993   C1003   1.389   .     A
C994   C995    1.388   .     A
C994   C1005   1.401   .     A
C994   H1007   1.083   .     S
C995   C411    1.392   1_556 S
C995   H424    1.082   1_556 S
C996   H1008   1.078   .     S
C997   C998    1.403   .     A
C997   C411    1.421   1_556 S
C997   C414    1.417   1_556 S
C998   C1002   1.411   .     A
C998   C1005   1.415   .     A
C999   C1003   1.391   .     A
C1000  C1001   1.410   .     A
C1000  C405    1.413   1_556 S
C1000  C414    1.426   1_556 S
C1001  C1037   1.483   .     S
C1001  C1002   1.393   .     A
C1002  H1010   1.082   .     S
C1003  H1006   1.077   .     S
C1011  H1012   1.085   .     S
C1011  C1019   1.389   .     A
C1011  C623    1.368   1_565 S
C1013  C1015   1.394   .     A
C1013  H1014   1.077   .     S
C1015  C1016   1.413   .     A
C1016  C1029   1.509   .     S
C1017  C1019   1.393   .     A
C1017  H1018   1.085   .     S
C1017  C626    1.382   1_565 S
C1020  N1028   1.383   .     A
C1020  C1033   1.467   .     S
C1020  C1086   1.415   .     S
C1021  H1022   1.083   .     S
C1021  N1023   1.354   .     A
C1021  C1150   1.415   1_455 S
N1023  C1024   1.368   .     A
C1024  H1025   1.082   .     S
C1024  C1156   1.420   1_455 S
C1026  N1028   1.367   .     A
C1026  H1027   1.082   .     S
C1026  C1089   1.420   .     S
C1029  H1031   1.109   .     S
C1029  H1030   1.111   .     S
C1029  H1032   1.111   .     S
C1033  O1035   1.392   .     S
C1033  O1034   1.223   .     D
O1035  H1036   1.013   .     S
C1037  O1038   1.223   .     D
C1037  O1039   1.398   .     S
O1039  H1105   1.012   .     S
H1040  O1169   1.012   1_455 S
O1041  Zn1047  1.996   .     S
O1041  C1043   1.284   .     A
O1042  C1043   1.283   .     A
O1042  Zn1048  1.989   .     S
C1043  C1084   1.408   .     S
O1044  Zn1047  1.965   .     S
O1044  C1046   1.298   .     A
O1045  Zn1048  1.911   .     S
O1045  C1046   1.295   .     A
C1046  C1070   1.464   .     S
Zn1047 O1051   1.911   .     S
Zn1047 N1088   2.018   .     S
Zn1047 O1049   1.989   .     S
Zn1048 N1093   2.018   .     S
Zn1048 O1052   1.965   .     S
Zn1048 O1050   1.996   .     S
O1049  C1053   1.282   .     A
O1050  C1053   1.290   .     A
O1051  C1054   1.294   .     A
O1052  C1054   1.298   .     A
C1053  C1080   1.420   .     S
C1054  C1058   1.458   .     S
C1055  C1069   1.392   .     A
H1056  C1069   1.079   .     S
H1057  C470    1.080   1_556 S
C1058  C1069   1.395   .     A
C1058  C1068   1.389   .     A
C1059  C1060   1.388   .     A
C1059  C1070   1.401   .     A
C1059  H1072   1.083   .     S
C1060  C476    1.392   1_556 S
C1060  H489    1.082   1_556 S
C1061  H1073   1.078   .     S
C1062  C1063   1.403   .     A
C1062  C476    1.421   1_556 S
C1062  C479    1.417   1_556 S
C1063  C1067   1.411   .     A
C1063  C1070   1.415   .     A
C1064  C1068   1.391   .     A
C1065  C1066   1.410   .     A
C1065  C470    1.413   1_556 S
C1065  C479    1.426   1_556 S
C1066  C1102   1.483   .     S
C1066  C1067   1.393   .     A
C1067  H1075   1.082   .     S
C1068  H1071   1.077   .     S
C1076  H1077   1.085   .     S
C1076  C1084   1.389   .     A
C1076  C688    1.368   1_565 S
C1078  C1080   1.394   .     A
C1078  H1079   1.077   .     S
C1080  C1081   1.413   .     A
C1081  C1094   1.509   .     S
C1082  C1084   1.393   .     A
C1082  H1083   1.085   .     S
C1082  C691    1.382   1_565 S
C1085  N1093   1.383   .     A
C1085  C1098   1.467   .     S
C1085  C1151   1.415   .     S
C1086  H1087   1.083   .     S
C1086  N1088   1.354   .     A
N1088  C1089   1.368   .     A
C1089  H1090   1.082   .     S
C1091  N1093   1.367   .     A
C1091  H1092   1.082   .     S
C1091  C1154   1.420   .     S
C1094  H1096   1.109   .     S
C1094  H1095   1.111   .     S
C1094  H1097   1.111   .     S
C1098  O1100   1.392   .     S
C1098  O1099   1.223   .     D
O1100  H1101   1.013   .     S
C1102  O1103   1.223   .     D
C1102  O1104   1.398   .     S
O1104  H1170   1.012   .     S
O1106  Zn1112  1.996   .     S
O1106  C1108   1.284   .     A
O1107  C1108   1.283   .     A
O1107  Zn1113  1.989   .     S
C1108  C1149   1.408   .     S
O1109  Zn1112  1.965   .     S
O1109  C1111   1.298   .     A
O1110  Zn1113  1.911   .     S
O1110  C1111   1.295   .     A
C1111  C1135   1.464   .     S
Zn1112 O1116   1.911   .     S
Zn1112 N1153   2.018   .     S
Zn1112 O1114   1.989   .     S
Zn1113 N1158   2.018   .     S
Zn1113 O1117   1.965   .     S
Zn1113 O1115   1.996   .     S
O1114  C1118   1.282   .     A
O1115  C1118   1.290   .     A
O1116  C1119   1.294   .     A
O1117  C1119   1.298   .     A
C1118  C1145   1.420   .     S
C1119  C1123   1.458   .     S
C1120  C1134   1.392   .     A
H1121  C1134   1.079   .     S
H1122  C535    1.080   1_556 S
C1123  C1134   1.395   .     A
C1123  C1133   1.389   .     A
C1124  C1125   1.388   .     A
C1124  C1135   1.401   .     A
C1124  H1137   1.083   .     S
C1125  C541    1.392   1_556 S
C1125  H554    1.082   1_556 S
C1126  H1138   1.078   .     S
C1127  C1128   1.403   .     A
C1127  C541    1.421   1_556 S
C1127  C544    1.417   1_556 S
C1128  C1132   1.411   .     A
C1128  C1135   1.415   .     A
C1129  C1133   1.391   .     A
C1130  C1131   1.410   .     A
C1130  C535    1.413   1_556 S
C1130  C544    1.426   1_556 S
C1131  C1167   1.483   .     S
C1131  C1132   1.393   .     A
C1132  H1140   1.082   .     S
C1133  H1136   1.077   .     S
C1141  H1142   1.085   .     S
C1141  C1149   1.389   .     A
C1141  C753    1.368   1_565 S
C1143  C1145   1.394   .     A
C1143  H1144   1.077   .     S
C1145  C1146   1.413   .     A
C1146  C1159   1.509   .     S
C1147  C1149   1.393   .     A
C1147  H1148   1.085   .     S
C1147  C756    1.382   1_565 S
C1150  N1158   1.383   .     A
C1150  C1163   1.467   .     S
C1150  C1021   1.415   1_655 S
C1151  H1152   1.083   .     S
C1151  N1153   1.354   .     A
N1153  C1154   1.368   .     A
C1154  H1155   1.082   .     S
C1156  N1158   1.367   .     A
C1156  H1157   1.082   .     S
C1156  C1024   1.420   1_655 S
C1159  H1161   1.109   .     S
C1159  H1160   1.111   .     S
C1159  H1162   1.111   .     S
C1163  O1165   1.392   .     S
C1163  O1164   1.223   .     D
O1165  H1166   1.013   .     S
C1167  O1168   1.223   .     D
C1167  O1169   1.398   .     S
O1169  H1040   1.012   1_655 S
