data_str_m3_o1_o18_pcu_sym.75
_audit_creation_date              2020-01-03
_audit_creation_method            'Materials Studio'
_symmetry_space_group_name_H-M    'P1'
_symmetry_Int_Tables_number       1
_symmetry_cell_setting            triclinic
loop_
_symmetry_equiv_pos_as_xyz
  x,y,z
_cell_length_a                    30.2574
_cell_length_b                    31.8851
_cell_length_c                    30.6211
_cell_angle_alpha                 90.3525
_cell_angle_beta                  71.2766
_cell_angle_gamma                 88.9458
loop_
_atom_site_label
_atom_site_type_symbol
_atom_site_fract_x
_atom_site_fract_y
_atom_site_fract_z
_atom_site_U_iso_or_equiv
_atom_site_adp_type
_atom_site_occupancy
C1     C     0.16619   0.24624   0.25028   0.00000  Uiso   1.00
C2     C     0.16074   0.31167   0.21220   0.00000  Uiso   1.00
C3     C     0.16765   0.04276   0.25029   0.00000  Uiso   1.00
C4     C     0.16495   0.29063   0.25102   0.00000  Uiso   1.00
C5     C     0.31746   0.13450   0.22975   0.00000  Uiso   1.00
C6     C     0.01589   0.19879   0.27030   0.00000  Uiso   1.00
C7     C     0.03122   0.13462   0.23037   0.00000  Uiso   1.00
C8     C     0.30214   0.19871   0.26965   0.00000  Uiso   1.00
C9     C     0.13792   0.16257   0.33701   0.00000  Uiso   1.00
C10    C     0.19523   0.16588   0.16276   0.00000  Uiso   1.00
C11    C     0.12134   0.14855   0.38507   0.00000  Uiso   1.00
C12    C     0.16686   0.08712   0.25050   0.00000  Uiso   1.00
C13    C     0.20951   0.16074   0.11310   0.00000  Uiso   1.00
C14    C     0.05923   0.14369   0.45636   0.00000  Uiso   1.00
C15    C     0.25589   0.17811   0.03566   0.00000  Uiso   1.00
C16    C     0.07352   0.14341   0.40840   0.00000  Uiso   1.00
C17    C     0.24650   0.18308   0.08345   0.00000  Uiso   1.00
C18    C     0.15308   0.13940   0.40834   0.00000  Uiso   1.00
C19    C     0.18027   0.13751   0.09524   0.00000  Uiso   1.00
C20    C     0.13746   0.12581   0.45455   0.00000  Uiso   1.00
C21    C     0.18750   0.13649   0.04815   0.00000  Uiso   1.00
C22    C     0.08937   0.12784   0.47889   0.00000  Uiso   1.00
C23    C     0.10410   0.12891   0.05165   0.00000  Uiso   1.00
C24    C     0.23128   0.14824   0.01934   0.00000  Uiso   1.00
C25    C     0.16889   0.11916   0.47919   0.00000  Uiso   1.00
C26    C     0.15312   0.12648   0.02776   0.00000  Uiso   1.00
C27    C     0.01690   0.07842   0.06704   0.00000  Uiso   1.00
C28    C     0.30316   0.08022   0.47744   0.00000  Uiso   1.00
C29    C     0.31031   0.20064   0.10287   0.00000  Uiso   1.00
C30    C     0.03957   0.10919   0.36279   0.00000  Uiso   1.00
C31    C     0.04692   0.21288   0.47409   0.00000  Uiso   1.00
C32    C     0.24859   0.23837   0.49903   0.00000  Uiso   1.00
C33    C     0.08292   0.14733   0.09855   0.00000  Uiso   1.00
C34    C     0.21694   0.11195   0.45615   0.00000  Uiso   1.00
C35    C     0.23226   0.08484   0.41407   0.00000  Uiso   1.00
C36    C     0.17400   0.28721   0.32988   0.00000  Uiso   1.00
C37    C     0.16639   0.04600   0.16874   0.00000  Uiso   1.00
C38    C     0.16533   0.04642   0.33307   0.00000  Uiso   1.00
C39    C     0.15591   0.28809   0.17199   0.00000  Uiso   1.00
C40    C     0.30495   0.09845   0.20615   0.00000  Uiso   1.00
C41    C     0.02850   0.23468   0.29403   0.00000  Uiso   1.00
C42    C     0.07314   0.12232   0.02681   0.00000  Uiso   1.00
C43    C     0.24875   0.12900   0.47581   0.00000  Uiso   1.00
C44    C     0.16894   0.31157   0.29016   0.00000  Uiso   1.00
C45    C     0.16372   0.02184   0.21116   0.00000  Uiso   1.00
C46    C     0.16830   0.02198   0.29050   0.00000  Uiso   1.00
H47    H     0.15139   0.12099   0.11838   0.00000  Uiso   1.00
H48    H     0.28728   0.05397   0.46410   0.00000  Uiso   1.00
H49    H     0.30796   0.17017   0.12089   0.00000  Uiso   1.00
H50    H     0.32326   0.22395   0.12264   0.00000  Uiso   1.00
H51    H     0.00285   0.19810   0.06793   0.00000  Uiso   1.00
H52    H     0.02349   0.08400   0.38707   0.00000  Uiso   1.00
H53    H     0.07478   0.09762   0.34129   0.00000  Uiso   1.00
H54    H     0.01886   0.11428   0.33920   0.00000  Uiso   1.00
H55    H     0.05348   0.22447   0.43843   0.00000  Uiso   1.00
H56    H     0.07993   0.21261   0.48289   0.00000  Uiso   1.00
H57    H     0.02336   0.23610   0.49783   0.00000  Uiso   1.00
H58    H     0.18961   0.14492   0.39087   0.00000  Uiso   1.00
H59    H     0.22662   0.22441   0.47995   0.00000  Uiso   1.00
H60    H     0.26876   0.26382   0.47758   0.00000  Uiso   1.00
H61    H     0.22619   0.25282   0.03213   0.00000  Uiso   1.00
H62    H     0.05494   0.13160   0.12405   0.00000  Uiso   1.00
H63    H     0.20777   0.06354   0.40705   0.00000  Uiso   1.00
H64    H     0.15672   0.25748   0.33893   0.00000  Uiso   1.00
H65    H     0.18800   0.07344   0.16047   0.00000  Uiso   1.00
H66    H     0.18460   0.07506   0.33090   0.00000  Uiso   1.00
H67    H     0.12731   0.29535   0.15900   0.00000  Uiso   1.00
H68    H     0.31801   0.06731   0.21033   0.00000  Uiso   1.00
H69    H     0.05502   0.10906   0.21417   0.00000  Uiso   1.00
H70    H     0.01643   0.26601   0.28912   0.00000  Uiso   1.00
H71    H     0.27837   0.22430   0.28584   0.00000  Uiso   1.00
H72    H     0.02705   0.05450   0.03876   0.00000  Uiso   1.00
H73    H     0.31224   0.07586   0.08516   0.00000  Uiso   1.00
H74    H     0.03508   0.07126   0.09250   0.00000  Uiso   1.00
H75    H     0.28934   0.08095   0.01575   0.00000  Uiso   1.00
H76    H     0.00779   0.07324   0.46734   0.00000  Uiso   1.00
N77    N     0.04759   0.16668   0.25001   0.00000  Uiso   1.00
N78    N     0.28574   0.16666   0.24999   0.00000  Uiso   1.00
O79    O     0.12846   0.22775   0.25001   0.00000  Uiso   1.00
O80    O     0.29565   0.11899   0.45829   0.00000  Uiso   1.00
O81    O     0.26674   0.21493   0.10078   0.00000  Uiso   1.00
O82    O     0.04022   0.14736   0.38654   0.00000  Uiso   1.00
O83    O     0.02577   0.17290   0.47949   0.00000  Uiso   1.00
O84    O     0.28033   0.20837   0.00627   0.00000  Uiso   1.00
O85    O     0.09451   0.18181   0.10802   0.00000  Uiso   1.00
O86    O     0.27144   0.08662   0.38647   0.00000  Uiso   1.00
O87    O     0.19897   0.29927   0.35160   0.00000  Uiso   1.00
O88    O     0.14394   0.03648   0.14356   0.00000  Uiso   1.00
O89    O     0.13971   0.03562   0.37075   0.00000  Uiso   1.00
O90    O     0.20488   0.10558   0.25000   0.00000  Uiso   1.00
O91    O     0.18425   0.26070   0.15282   0.00000  Uiso   1.00
O92    O     0.28339   0.10318   0.17906   0.00000  Uiso   1.00
O93    O     0.04902   0.22962   0.32197   0.00000  Uiso   1.00
O94    O     0.20490   0.22774   0.25000   0.00000  Uiso   1.00
O95    O     0.12843   0.10559   0.25000   0.00000  Uiso   1.00
O96    O     0.10661   0.16667   0.31613   0.00000  Uiso   1.00
O97    O     0.22672   0.16666   0.18388   0.00000  Uiso   1.00
O98    O     0.18305   0.16666   0.31612   0.00000  Uiso   1.00
O99    O     0.15028   0.16667   0.18388   0.00000  Uiso   1.00
O100   O     0.02572   0.11935   0.04948   0.00000  Uiso   1.00
Zn101  Zn    0.11562   0.16667   0.25000   0.00000  Uiso   1.00
Zn102  Zn    0.21771   0.16666   0.25000   0.00000  Uiso   1.00
C103   C     0.49952   0.24624   0.25028   0.00000  Uiso   1.00
C104   C     0.49407   0.31167   0.21220   0.00000  Uiso   1.00
C105   C     0.50099   0.04276   0.25029   0.00000  Uiso   1.00
C106   C     0.49828   0.29063   0.25102   0.00000  Uiso   1.00
C107   C     0.65080   0.13450   0.22975   0.00000  Uiso   1.00
C108   C     0.34922   0.19879   0.27030   0.00000  Uiso   1.00
C109   C     0.36455   0.13462   0.23037   0.00000  Uiso   1.00
C110   C     0.63547   0.19871   0.26965   0.00000  Uiso   1.00
C111   C     0.47126   0.16257   0.33701   0.00000  Uiso   1.00
C112   C     0.52857   0.16588   0.16276   0.00000  Uiso   1.00
C113   C     0.45468   0.14855   0.38507   0.00000  Uiso   1.00
C114   C     0.50019   0.08712   0.25050   0.00000  Uiso   1.00
C115   C     0.54284   0.16074   0.11310   0.00000  Uiso   1.00
C116   C     0.39256   0.14369   0.45636   0.00000  Uiso   1.00
C117   C     0.58923   0.17811   0.03566   0.00000  Uiso   1.00
C118   C     0.40686   0.14341   0.40840   0.00000  Uiso   1.00
C119   C     0.57983   0.18308   0.08345   0.00000  Uiso   1.00
C120   C     0.48642   0.13940   0.40834   0.00000  Uiso   1.00
C121   C     0.51361   0.13751   0.09524   0.00000  Uiso   1.00
C122   C     0.47079   0.12581   0.45455   0.00000  Uiso   1.00
C123   C     0.52084   0.13649   0.04815   0.00000  Uiso   1.00
C124   C     0.42271   0.12784   0.47889   0.00000  Uiso   1.00
C125   C     0.43743   0.12891   0.05165   0.00000  Uiso   1.00
C126   C     0.56462   0.14824   0.01934   0.00000  Uiso   1.00
C127   C     0.50222   0.11916   0.47919   0.00000  Uiso   1.00
C128   C     0.48646   0.12648   0.02776   0.00000  Uiso   1.00
C129   C     0.35023   0.07842   0.06704   0.00000  Uiso   1.00
C130   C     0.63650   0.08022   0.47744   0.00000  Uiso   1.00
C131   C     0.64364   0.20064   0.10287   0.00000  Uiso   1.00
C132   C     0.37290   0.10919   0.36279   0.00000  Uiso   1.00
C133   C     0.38026   0.21288   0.47409   0.00000  Uiso   1.00
C134   C     0.58192   0.23837   0.49903   0.00000  Uiso   1.00
C135   C     0.41625   0.14733   0.09855   0.00000  Uiso   1.00
C136   C     0.55027   0.11195   0.45615   0.00000  Uiso   1.00
C137   C     0.56560   0.08484   0.41407   0.00000  Uiso   1.00
C138   C     0.50733   0.28721   0.32988   0.00000  Uiso   1.00
C139   C     0.49973   0.04600   0.16874   0.00000  Uiso   1.00
C140   C     0.49866   0.04642   0.33307   0.00000  Uiso   1.00
C141   C     0.48924   0.28809   0.17199   0.00000  Uiso   1.00
C142   C     0.63828   0.09845   0.20615   0.00000  Uiso   1.00
C143   C     0.36183   0.23468   0.29403   0.00000  Uiso   1.00
C144   C     0.40647   0.12232   0.02681   0.00000  Uiso   1.00
C145   C     0.58208   0.12900   0.47581   0.00000  Uiso   1.00
C146   C     0.50227   0.31157   0.29016   0.00000  Uiso   1.00
C147   C     0.49706   0.02184   0.21116   0.00000  Uiso   1.00
C148   C     0.50164   0.02198   0.29050   0.00000  Uiso   1.00
H149   H     0.48473   0.12099   0.11838   0.00000  Uiso   1.00
H150   H     0.62061   0.05397   0.46410   0.00000  Uiso   1.00
H151   H     0.64129   0.17017   0.12089   0.00000  Uiso   1.00
H152   H     0.65659   0.22395   0.12264   0.00000  Uiso   1.00
H153   H     0.33618   0.19810   0.06793   0.00000  Uiso   1.00
H154   H     0.35683   0.08400   0.38707   0.00000  Uiso   1.00
H155   H     0.40811   0.09762   0.34129   0.00000  Uiso   1.00
H156   H     0.35219   0.11428   0.33920   0.00000  Uiso   1.00
H157   H     0.38682   0.22447   0.43843   0.00000  Uiso   1.00
H158   H     0.41326   0.21261   0.48289   0.00000  Uiso   1.00
H159   H     0.35669   0.23610   0.49783   0.00000  Uiso   1.00
H160   H     0.52294   0.14492   0.39087   0.00000  Uiso   1.00
H161   H     0.55995   0.22441   0.47995   0.00000  Uiso   1.00
H162   H     0.60210   0.26382   0.47758   0.00000  Uiso   1.00
H163   H     0.55953   0.25282   0.03213   0.00000  Uiso   1.00
H164   H     0.38827   0.13160   0.12405   0.00000  Uiso   1.00
H165   H     0.54110   0.06354   0.40705   0.00000  Uiso   1.00
H166   H     0.49005   0.25748   0.33893   0.00000  Uiso   1.00
H167   H     0.52133   0.07344   0.16047   0.00000  Uiso   1.00
H168   H     0.51793   0.07506   0.33090   0.00000  Uiso   1.00
H169   H     0.46064   0.29535   0.15900   0.00000  Uiso   1.00
H170   H     0.65134   0.06731   0.21033   0.00000  Uiso   1.00
H171   H     0.38836   0.10906   0.21417   0.00000  Uiso   1.00
H172   H     0.34976   0.26601   0.28912   0.00000  Uiso   1.00
H173   H     0.61170   0.22430   0.28584   0.00000  Uiso   1.00
H174   H     0.36038   0.05450   0.03876   0.00000  Uiso   1.00
H175   H     0.64557   0.07586   0.08516   0.00000  Uiso   1.00
H176   H     0.36841   0.07126   0.09250   0.00000  Uiso   1.00
H177   H     0.62267   0.08095   0.01575   0.00000  Uiso   1.00
H178   H     0.34112   0.07324   0.46734   0.00000  Uiso   1.00
N179   N     0.38093   0.16668   0.25001   0.00000  Uiso   1.00
N180   N     0.61907   0.16666   0.24999   0.00000  Uiso   1.00
O181   O     0.46179   0.22775   0.25001   0.00000  Uiso   1.00
O182   O     0.62898   0.11899   0.45829   0.00000  Uiso   1.00
O183   O     0.60007   0.21493   0.10078   0.00000  Uiso   1.00
O184   O     0.37356   0.14736   0.38654   0.00000  Uiso   1.00
O185   O     0.35911   0.17290   0.47949   0.00000  Uiso   1.00
O186   O     0.61366   0.20837   0.00627   0.00000  Uiso   1.00
O187   O     0.42784   0.18181   0.10802   0.00000  Uiso   1.00
O188   O     0.60478   0.08662   0.38647   0.00000  Uiso   1.00
O189   O     0.53231   0.29927   0.35160   0.00000  Uiso   1.00
O190   O     0.47728   0.03648   0.14356   0.00000  Uiso   1.00
O191   O     0.47305   0.03562   0.37075   0.00000  Uiso   1.00
O192   O     0.53821   0.10558   0.25000   0.00000  Uiso   1.00
O193   O     0.51758   0.26070   0.15282   0.00000  Uiso   1.00
O194   O     0.61673   0.10318   0.17906   0.00000  Uiso   1.00
O195   O     0.38236   0.22962   0.32197   0.00000  Uiso   1.00
O196   O     0.53823   0.22774   0.25000   0.00000  Uiso   1.00
O197   O     0.46177   0.10559   0.25000   0.00000  Uiso   1.00
O198   O     0.43994   0.16667   0.31613   0.00000  Uiso   1.00
O199   O     0.56006   0.16666   0.18388   0.00000  Uiso   1.00
O200   O     0.51639   0.16666   0.31612   0.00000  Uiso   1.00
O201   O     0.48361   0.16667   0.18388   0.00000  Uiso   1.00
O202   O     0.35906   0.11935   0.04948   0.00000  Uiso   1.00
Zn203  Zn    0.44896   0.16667   0.25000   0.00000  Uiso   1.00
Zn204  Zn    0.55104   0.16666   0.25000   0.00000  Uiso   1.00
C205   C     0.83285   0.24624   0.25028   0.00000  Uiso   1.00
C206   C     0.82741   0.31167   0.21220   0.00000  Uiso   1.00
C207   C     0.83432   0.04276   0.25029   0.00000  Uiso   1.00
C208   C     0.83162   0.29063   0.25102   0.00000  Uiso   1.00
C209   C     0.98413   0.13450   0.22975   0.00000  Uiso   1.00
C210   C     0.68255   0.19879   0.27030   0.00000  Uiso   1.00
C211   C     0.69788   0.13462   0.23037   0.00000  Uiso   1.00
C212   C     0.96881   0.19871   0.26965   0.00000  Uiso   1.00
C213   C     0.80459   0.16257   0.33701   0.00000  Uiso   1.00
C214   C     0.86190   0.16588   0.16276   0.00000  Uiso   1.00
C215   C     0.78801   0.14855   0.38507   0.00000  Uiso   1.00
C216   C     0.83352   0.08712   0.25050   0.00000  Uiso   1.00
C217   C     0.87618   0.16074   0.11310   0.00000  Uiso   1.00
C218   C     0.72589   0.14369   0.45636   0.00000  Uiso   1.00
C219   C     0.92256   0.17811   0.03566   0.00000  Uiso   1.00
C220   C     0.74019   0.14341   0.40840   0.00000  Uiso   1.00
C221   C     0.91316   0.18308   0.08345   0.00000  Uiso   1.00
C222   C     0.81975   0.13940   0.40834   0.00000  Uiso   1.00
C223   C     0.84694   0.13751   0.09524   0.00000  Uiso   1.00
C224   C     0.80413   0.12581   0.45455   0.00000  Uiso   1.00
C225   C     0.85417   0.13649   0.04815   0.00000  Uiso   1.00
C226   C     0.75604   0.12784   0.47889   0.00000  Uiso   1.00
C227   C     0.77076   0.12891   0.05165   0.00000  Uiso   1.00
C228   C     0.89795   0.14824   0.01934   0.00000  Uiso   1.00
C229   C     0.83555   0.11916   0.47919   0.00000  Uiso   1.00
C230   C     0.81979   0.12648   0.02776   0.00000  Uiso   1.00
C231   C     0.68356   0.07842   0.06704   0.00000  Uiso   1.00
C232   C     0.96983   0.08022   0.47744   0.00000  Uiso   1.00
C233   C     0.97697   0.20064   0.10287   0.00000  Uiso   1.00
C234   C     0.70624   0.10919   0.36279   0.00000  Uiso   1.00
C235   C     0.71359   0.21288   0.47409   0.00000  Uiso   1.00
C236   C     0.91526   0.23837   0.49903   0.00000  Uiso   1.00
C237   C     0.74959   0.14733   0.09855   0.00000  Uiso   1.00
C238   C     0.88361   0.11195   0.45615   0.00000  Uiso   1.00
C239   C     0.89893   0.08484   0.41407   0.00000  Uiso   1.00
C240   C     0.84067   0.28721   0.32988   0.00000  Uiso   1.00
C241   C     0.83306   0.04600   0.16874   0.00000  Uiso   1.00
C242   C     0.83199   0.04642   0.33307   0.00000  Uiso   1.00
C243   C     0.82258   0.28809   0.17199   0.00000  Uiso   1.00
C244   C     0.97161   0.09845   0.20615   0.00000  Uiso   1.00
C245   C     0.69517   0.23468   0.29403   0.00000  Uiso   1.00
C246   C     0.73981   0.12232   0.02681   0.00000  Uiso   1.00
C247   C     0.91541   0.12900   0.47581   0.00000  Uiso   1.00
C248   C     0.83560   0.31157   0.29016   0.00000  Uiso   1.00
C249   C     0.83039   0.02184   0.21116   0.00000  Uiso   1.00
C250   C     0.83497   0.02198   0.29050   0.00000  Uiso   1.00
H251   H     0.81806   0.12099   0.11838   0.00000  Uiso   1.00
H252   H     0.95395   0.05397   0.46410   0.00000  Uiso   1.00
H253   H     0.97462   0.17017   0.12089   0.00000  Uiso   1.00
H254   H     0.98992   0.22395   0.12264   0.00000  Uiso   1.00
H255   H     0.66951   0.19810   0.06793   0.00000  Uiso   1.00
H256   H     0.69016   0.08400   0.38707   0.00000  Uiso   1.00
H257   H     0.74145   0.09762   0.34129   0.00000  Uiso   1.00
H258   H     0.68552   0.11428   0.33920   0.00000  Uiso   1.00
H259   H     0.72015   0.22447   0.43843   0.00000  Uiso   1.00
H260   H     0.74660   0.21261   0.48289   0.00000  Uiso   1.00
H261   H     0.69002   0.23610   0.49783   0.00000  Uiso   1.00
H262   H     0.85628   0.14492   0.39087   0.00000  Uiso   1.00
H263   H     0.89329   0.22441   0.47995   0.00000  Uiso   1.00
H264   H     0.93543   0.26382   0.47758   0.00000  Uiso   1.00
H265   H     0.89286   0.25282   0.03213   0.00000  Uiso   1.00
H266   H     0.72161   0.13160   0.12405   0.00000  Uiso   1.00
H267   H     0.87443   0.06354   0.40705   0.00000  Uiso   1.00
H268   H     0.82339   0.25748   0.33893   0.00000  Uiso   1.00
H269   H     0.85467   0.07344   0.16047   0.00000  Uiso   1.00
H270   H     0.85126   0.07506   0.33090   0.00000  Uiso   1.00
H271   H     0.79398   0.29535   0.15900   0.00000  Uiso   1.00
H272   H     0.98467   0.06731   0.21033   0.00000  Uiso   1.00
H273   H     0.72169   0.10906   0.21417   0.00000  Uiso   1.00
H274   H     0.68309   0.26601   0.28912   0.00000  Uiso   1.00
H275   H     0.94503   0.22430   0.28584   0.00000  Uiso   1.00
H276   H     0.69372   0.05450   0.03876   0.00000  Uiso   1.00
H277   H     0.97891   0.07586   0.08516   0.00000  Uiso   1.00
H278   H     0.70174   0.07126   0.09250   0.00000  Uiso   1.00
H279   H     0.95601   0.08095   0.01575   0.00000  Uiso   1.00
H280   H     0.67445   0.07324   0.46734   0.00000  Uiso   1.00
N281   N     0.71426   0.16668   0.25001   0.00000  Uiso   1.00
N282   N     0.95241   0.16666   0.24999   0.00000  Uiso   1.00
O283   O     0.79512   0.22775   0.25001   0.00000  Uiso   1.00
O284   O     0.96231   0.11899   0.45829   0.00000  Uiso   1.00
O285   O     0.93340   0.21493   0.10078   0.00000  Uiso   1.00
O286   O     0.70689   0.14736   0.38654   0.00000  Uiso   1.00
O287   O     0.69244   0.17290   0.47949   0.00000  Uiso   1.00
O288   O     0.94700   0.20837   0.00627   0.00000  Uiso   1.00
O289   O     0.76117   0.18181   0.10802   0.00000  Uiso   1.00
O290   O     0.93811   0.08662   0.38647   0.00000  Uiso   1.00
O291   O     0.86564   0.29927   0.35160   0.00000  Uiso   1.00
O292   O     0.81061   0.03648   0.14356   0.00000  Uiso   1.00
O293   O     0.80638   0.03562   0.37075   0.00000  Uiso   1.00
O294   O     0.87154   0.10558   0.25000   0.00000  Uiso   1.00
O295   O     0.85091   0.26070   0.15282   0.00000  Uiso   1.00
O296   O     0.95006   0.10318   0.17906   0.00000  Uiso   1.00
O297   O     0.71569   0.22962   0.32197   0.00000  Uiso   1.00
O298   O     0.87157   0.22774   0.25000   0.00000  Uiso   1.00
O299   O     0.79510   0.10559   0.25000   0.00000  Uiso   1.00
O300   O     0.77328   0.16667   0.31613   0.00000  Uiso   1.00
O301   O     0.89339   0.16666   0.18388   0.00000  Uiso   1.00
O302   O     0.84972   0.16666   0.31612   0.00000  Uiso   1.00
O303   O     0.81695   0.16667   0.18388   0.00000  Uiso   1.00
O304   O     0.69239   0.11935   0.04948   0.00000  Uiso   1.00
Zn305  Zn    0.78229   0.16667   0.25000   0.00000  Uiso   1.00
Zn306  Zn    0.88438   0.16666   0.25000   0.00000  Uiso   1.00
C307   C     0.16619   0.57958   0.25028   0.00000  Uiso   1.00
C308   C     0.16074   0.64501   0.21220   0.00000  Uiso   1.00
C309   C     0.16765   0.37609   0.25029   0.00000  Uiso   1.00
C310   C     0.16495   0.62397   0.25102   0.00000  Uiso   1.00
C311   C     0.31746   0.46783   0.22975   0.00000  Uiso   1.00
C312   C     0.01589   0.53213   0.27030   0.00000  Uiso   1.00
C313   C     0.03122   0.46795   0.23037   0.00000  Uiso   1.00
C314   C     0.30214   0.53204   0.26965   0.00000  Uiso   1.00
C315   C     0.13792   0.49591   0.33701   0.00000  Uiso   1.00
C316   C     0.19523   0.49921   0.16276   0.00000  Uiso   1.00
C317   C     0.12134   0.48188   0.38507   0.00000  Uiso   1.00
C318   C     0.16686   0.42045   0.25050   0.00000  Uiso   1.00
C319   C     0.20951   0.49408   0.11310   0.00000  Uiso   1.00
C320   C     0.05923   0.47702   0.45636   0.00000  Uiso   1.00
C321   C     0.25589   0.51144   0.03566   0.00000  Uiso   1.00
C322   C     0.07352   0.47674   0.40840   0.00000  Uiso   1.00
C323   C     0.24650   0.51642   0.08345   0.00000  Uiso   1.00
C324   C     0.15308   0.47274   0.40834   0.00000  Uiso   1.00
C325   C     0.18027   0.47084   0.09524   0.00000  Uiso   1.00
C326   C     0.13746   0.45914   0.45455   0.00000  Uiso   1.00
C327   C     0.18750   0.46982   0.04815   0.00000  Uiso   1.00
C328   C     0.08937   0.46118   0.47889   0.00000  Uiso   1.00
C329   C     0.10410   0.46224   0.05165   0.00000  Uiso   1.00
C330   C     0.23128   0.48158   0.01934   0.00000  Uiso   1.00
C331   C     0.16889   0.45249   0.47919   0.00000  Uiso   1.00
C332   C     0.15312   0.45982   0.02776   0.00000  Uiso   1.00
C333   C     0.01690   0.41175   0.06704   0.00000  Uiso   1.00
C334   C     0.30316   0.41356   0.47744   0.00000  Uiso   1.00
C335   C     0.31031   0.53397   0.10287   0.00000  Uiso   1.00
C336   C     0.03957   0.44253   0.36279   0.00000  Uiso   1.00
C337   C     0.04692   0.54622   0.47409   0.00000  Uiso   1.00
C338   C     0.24859   0.57170   0.49903   0.00000  Uiso   1.00
C339   C     0.08292   0.48066   0.09855   0.00000  Uiso   1.00
C340   C     0.21694   0.44528   0.45615   0.00000  Uiso   1.00
C341   C     0.23226   0.41818   0.41407   0.00000  Uiso   1.00
C342   C     0.17400   0.62055   0.32988   0.00000  Uiso   1.00
C343   C     0.16639   0.37933   0.16874   0.00000  Uiso   1.00
C344   C     0.16533   0.37975   0.33307   0.00000  Uiso   1.00
C345   C     0.15591   0.62143   0.17199   0.00000  Uiso   1.00
C346   C     0.30495   0.43178   0.20615   0.00000  Uiso   1.00
C347   C     0.02850   0.56801   0.29403   0.00000  Uiso   1.00
C348   C     0.07314   0.45565   0.02681   0.00000  Uiso   1.00
C349   C     0.24875   0.46233   0.47581   0.00000  Uiso   1.00
C350   C     0.16894   0.64490   0.29016   0.00000  Uiso   1.00
C351   C     0.16372   0.35518   0.21116   0.00000  Uiso   1.00
C352   C     0.16830   0.35531   0.29050   0.00000  Uiso   1.00
H353   H     0.15139   0.45432   0.11838   0.00000  Uiso   1.00
H354   H     0.28728   0.38730   0.46410   0.00000  Uiso   1.00
H355   H     0.30796   0.50350   0.12089   0.00000  Uiso   1.00
H356   H     0.32326   0.55728   0.12264   0.00000  Uiso   1.00
H357   H     0.00285   0.53143   0.06793   0.00000  Uiso   1.00
H358   H     0.02349   0.41734   0.38707   0.00000  Uiso   1.00
H359   H     0.07478   0.43095   0.34129   0.00000  Uiso   1.00
H360   H     0.01886   0.44761   0.33920   0.00000  Uiso   1.00
H361   H     0.05348   0.55780   0.43843   0.00000  Uiso   1.00
H362   H     0.07993   0.54595   0.48289   0.00000  Uiso   1.00
H363   H     0.02336   0.56943   0.49783   0.00000  Uiso   1.00
H364   H     0.18961   0.47825   0.39087   0.00000  Uiso   1.00
H365   H     0.22662   0.55775   0.47995   0.00000  Uiso   1.00
H366   H     0.26876   0.59716   0.47758   0.00000  Uiso   1.00
H367   H     0.22619   0.58615   0.03213   0.00000  Uiso   1.00
H368   H     0.05494   0.46494   0.12405   0.00000  Uiso   1.00
H369   H     0.20777   0.39688   0.40705   0.00000  Uiso   1.00
H370   H     0.15672   0.59081   0.33893   0.00000  Uiso   1.00
H371   H     0.18800   0.40677   0.16047   0.00000  Uiso   1.00
H372   H     0.18460   0.40840   0.33090   0.00000  Uiso   1.00
H373   H     0.12731   0.62869   0.15900   0.00000  Uiso   1.00
H374   H     0.31801   0.40064   0.21033   0.00000  Uiso   1.00
H375   H     0.05502   0.44239   0.21417   0.00000  Uiso   1.00
H376   H     0.01643   0.59935   0.28912   0.00000  Uiso   1.00
H377   H     0.27837   0.55763   0.28584   0.00000  Uiso   1.00
H378   H     0.02705   0.38783   0.03876   0.00000  Uiso   1.00
H379   H     0.31224   0.40919   0.08516   0.00000  Uiso   1.00
H380   H     0.03508   0.40459   0.09250   0.00000  Uiso   1.00
H381   H     0.28934   0.41429   0.01575   0.00000  Uiso   1.00
H382   H     0.00779   0.40657   0.46734   0.00000  Uiso   1.00
N383   N     0.04759   0.50001   0.25001   0.00000  Uiso   1.00
N384   N     0.28574   0.49999   0.24999   0.00000  Uiso   1.00
O385   O     0.12846   0.56108   0.25001   0.00000  Uiso   1.00
O386   O     0.29565   0.45233   0.45829   0.00000  Uiso   1.00
O387   O     0.26674   0.54827   0.10078   0.00000  Uiso   1.00
O388   O     0.04022   0.48069   0.38654   0.00000  Uiso   1.00
O389   O     0.02577   0.50623   0.47949   0.00000  Uiso   1.00
O390   O     0.28033   0.54170   0.00627   0.00000  Uiso   1.00
O391   O     0.09451   0.51515   0.10802   0.00000  Uiso   1.00
O392   O     0.27144   0.41995   0.38647   0.00000  Uiso   1.00
O393   O     0.19897   0.63260   0.35160   0.00000  Uiso   1.00
O394   O     0.14394   0.36981   0.14356   0.00000  Uiso   1.00
O395   O     0.13971   0.36895   0.37075   0.00000  Uiso   1.00
O396   O     0.20488   0.43892   0.25000   0.00000  Uiso   1.00
O397   O     0.18425   0.59403   0.15282   0.00000  Uiso   1.00
O398   O     0.28339   0.43651   0.17906   0.00000  Uiso   1.00
O399   O     0.04902   0.56295   0.32197   0.00000  Uiso   1.00
O400   O     0.20490   0.56107   0.25000   0.00000  Uiso   1.00
O401   O     0.12843   0.43893   0.25000   0.00000  Uiso   1.00
O402   O     0.10661   0.50001   0.31613   0.00000  Uiso   1.00
O403   O     0.22672   0.49999   0.18388   0.00000  Uiso   1.00
O404   O     0.18305   0.50000   0.31612   0.00000  Uiso   1.00
O405   O     0.15028   0.50000   0.18388   0.00000  Uiso   1.00
O406   O     0.02572   0.45268   0.04948   0.00000  Uiso   1.00
Zn407  Zn    0.11562   0.50001   0.25000   0.00000  Uiso   1.00
Zn408  Zn    0.21771   0.49999   0.25000   0.00000  Uiso   1.00
C409   C     0.49952   0.57958   0.25028   0.00000  Uiso   1.00
C410   C     0.49407   0.64501   0.21220   0.00000  Uiso   1.00
C411   C     0.50099   0.37609   0.25029   0.00000  Uiso   1.00
C412   C     0.49828   0.62397   0.25102   0.00000  Uiso   1.00
C413   C     0.65080   0.46783   0.22975   0.00000  Uiso   1.00
C414   C     0.34922   0.53213   0.27030   0.00000  Uiso   1.00
C415   C     0.36455   0.46795   0.23037   0.00000  Uiso   1.00
C416   C     0.63547   0.53204   0.26965   0.00000  Uiso   1.00
C417   C     0.47126   0.49591   0.33701   0.00000  Uiso   1.00
C418   C     0.52857   0.49921   0.16276   0.00000  Uiso   1.00
C419   C     0.45468   0.48188   0.38507   0.00000  Uiso   1.00
C420   C     0.50019   0.42045   0.25050   0.00000  Uiso   1.00
C421   C     0.54284   0.49408   0.11310   0.00000  Uiso   1.00
C422   C     0.39256   0.47702   0.45636   0.00000  Uiso   1.00
C423   C     0.58923   0.51144   0.03566   0.00000  Uiso   1.00
C424   C     0.40686   0.47674   0.40840   0.00000  Uiso   1.00
C425   C     0.57983   0.51642   0.08345   0.00000  Uiso   1.00
C426   C     0.48642   0.47274   0.40834   0.00000  Uiso   1.00
C427   C     0.51361   0.47084   0.09524   0.00000  Uiso   1.00
C428   C     0.47079   0.45914   0.45455   0.00000  Uiso   1.00
C429   C     0.52084   0.46982   0.04815   0.00000  Uiso   1.00
C430   C     0.42271   0.46118   0.47889   0.00000  Uiso   1.00
C431   C     0.43743   0.46224   0.05165   0.00000  Uiso   1.00
C432   C     0.56462   0.48158   0.01934   0.00000  Uiso   1.00
C433   C     0.50222   0.45249   0.47919   0.00000  Uiso   1.00
C434   C     0.48646   0.45982   0.02776   0.00000  Uiso   1.00
C435   C     0.35023   0.41175   0.06704   0.00000  Uiso   1.00
C436   C     0.63650   0.41356   0.47744   0.00000  Uiso   1.00
C437   C     0.64364   0.53397   0.10287   0.00000  Uiso   1.00
C438   C     0.37290   0.44253   0.36279   0.00000  Uiso   1.00
C439   C     0.38026   0.54622   0.47409   0.00000  Uiso   1.00
C440   C     0.58192   0.57170   0.49903   0.00000  Uiso   1.00
C441   C     0.41625   0.48066   0.09855   0.00000  Uiso   1.00
C442   C     0.55027   0.44528   0.45615   0.00000  Uiso   1.00
C443   C     0.56560   0.41818   0.41407   0.00000  Uiso   1.00
C444   C     0.50733   0.62055   0.32988   0.00000  Uiso   1.00
C445   C     0.49973   0.37933   0.16874   0.00000  Uiso   1.00
C446   C     0.49866   0.37975   0.33307   0.00000  Uiso   1.00
C447   C     0.48924   0.62143   0.17199   0.00000  Uiso   1.00
C448   C     0.63828   0.43178   0.20615   0.00000  Uiso   1.00
C449   C     0.36183   0.56801   0.29403   0.00000  Uiso   1.00
C450   C     0.40647   0.45565   0.02681   0.00000  Uiso   1.00
C451   C     0.58208   0.46233   0.47581   0.00000  Uiso   1.00
C452   C     0.50227   0.64490   0.29016   0.00000  Uiso   1.00
C453   C     0.49706   0.35518   0.21116   0.00000  Uiso   1.00
C454   C     0.50164   0.35531   0.29050   0.00000  Uiso   1.00
H455   H     0.48473   0.45432   0.11838   0.00000  Uiso   1.00
H456   H     0.62061   0.38730   0.46410   0.00000  Uiso   1.00
H457   H     0.64129   0.50350   0.12089   0.00000  Uiso   1.00
H458   H     0.65659   0.55728   0.12264   0.00000  Uiso   1.00
H459   H     0.33618   0.53143   0.06793   0.00000  Uiso   1.00
H460   H     0.35683   0.41734   0.38707   0.00000  Uiso   1.00
H461   H     0.40811   0.43095   0.34129   0.00000  Uiso   1.00
H462   H     0.35219   0.44761   0.33920   0.00000  Uiso   1.00
H463   H     0.38682   0.55780   0.43843   0.00000  Uiso   1.00
H464   H     0.41326   0.54595   0.48289   0.00000  Uiso   1.00
H465   H     0.35669   0.56943   0.49783   0.00000  Uiso   1.00
H466   H     0.52294   0.47825   0.39087   0.00000  Uiso   1.00
H467   H     0.55995   0.55775   0.47995   0.00000  Uiso   1.00
H468   H     0.60210   0.59716   0.47758   0.00000  Uiso   1.00
H469   H     0.55953   0.58615   0.03213   0.00000  Uiso   1.00
H470   H     0.38827   0.46494   0.12405   0.00000  Uiso   1.00
H471   H     0.54110   0.39688   0.40705   0.00000  Uiso   1.00
H472   H     0.49005   0.59081   0.33893   0.00000  Uiso   1.00
H473   H     0.52133   0.40677   0.16047   0.00000  Uiso   1.00
H474   H     0.51793   0.40840   0.33090   0.00000  Uiso   1.00
H475   H     0.46064   0.62869   0.15900   0.00000  Uiso   1.00
H476   H     0.65134   0.40064   0.21033   0.00000  Uiso   1.00
H477   H     0.38836   0.44239   0.21417   0.00000  Uiso   1.00
H478   H     0.34976   0.59935   0.28912   0.00000  Uiso   1.00
H479   H     0.61170   0.55763   0.28584   0.00000  Uiso   1.00
H480   H     0.36038   0.38783   0.03876   0.00000  Uiso   1.00
H481   H     0.64557   0.40919   0.08516   0.00000  Uiso   1.00
H482   H     0.36841   0.40459   0.09250   0.00000  Uiso   1.00
H483   H     0.62267   0.41429   0.01575   0.00000  Uiso   1.00
H484   H     0.34112   0.40657   0.46734   0.00000  Uiso   1.00
N485   N     0.38093   0.50001   0.25001   0.00000  Uiso   1.00
N486   N     0.61907   0.49999   0.24999   0.00000  Uiso   1.00
O487   O     0.46179   0.56108   0.25001   0.00000  Uiso   1.00
O488   O     0.62898   0.45233   0.45829   0.00000  Uiso   1.00
O489   O     0.60007   0.54827   0.10078   0.00000  Uiso   1.00
O490   O     0.37356   0.48069   0.38654   0.00000  Uiso   1.00
O491   O     0.35911   0.50623   0.47949   0.00000  Uiso   1.00
O492   O     0.61366   0.54170   0.00627   0.00000  Uiso   1.00
O493   O     0.42784   0.51515   0.10802   0.00000  Uiso   1.00
O494   O     0.60478   0.41995   0.38647   0.00000  Uiso   1.00
O495   O     0.53231   0.63260   0.35160   0.00000  Uiso   1.00
O496   O     0.47728   0.36981   0.14356   0.00000  Uiso   1.00
O497   O     0.47305   0.36895   0.37075   0.00000  Uiso   1.00
O498   O     0.53821   0.43892   0.25000   0.00000  Uiso   1.00
O499   O     0.51758   0.59403   0.15282   0.00000  Uiso   1.00
O500   O     0.61673   0.43651   0.17906   0.00000  Uiso   1.00
O501   O     0.38236   0.56295   0.32197   0.00000  Uiso   1.00
O502   O     0.53823   0.56107   0.25000   0.00000  Uiso   1.00
O503   O     0.46177   0.43893   0.25000   0.00000  Uiso   1.00
O504   O     0.43994   0.50001   0.31613   0.00000  Uiso   1.00
O505   O     0.56006   0.49999   0.18388   0.00000  Uiso   1.00
O506   O     0.51639   0.50000   0.31612   0.00000  Uiso   1.00
O507   O     0.48361   0.50000   0.18388   0.00000  Uiso   1.00
O508   O     0.35906   0.45268   0.04948   0.00000  Uiso   1.00
Zn509  Zn    0.44896   0.50001   0.25000   0.00000  Uiso   1.00
Zn510  Zn    0.55104   0.49999   0.25000   0.00000  Uiso   1.00
C511   C     0.83285   0.57958   0.25028   0.00000  Uiso   1.00
C512   C     0.82741   0.64501   0.21220   0.00000  Uiso   1.00
C513   C     0.83432   0.37609   0.25029   0.00000  Uiso   1.00
C514   C     0.83162   0.62397   0.25102   0.00000  Uiso   1.00
C515   C     0.98413   0.46783   0.22975   0.00000  Uiso   1.00
C516   C     0.68255   0.53213   0.27030   0.00000  Uiso   1.00
C517   C     0.69788   0.46795   0.23037   0.00000  Uiso   1.00
C518   C     0.96881   0.53204   0.26965   0.00000  Uiso   1.00
C519   C     0.80459   0.49591   0.33701   0.00000  Uiso   1.00
C520   C     0.86190   0.49921   0.16276   0.00000  Uiso   1.00
C521   C     0.78801   0.48188   0.38507   0.00000  Uiso   1.00
C522   C     0.83352   0.42045   0.25050   0.00000  Uiso   1.00
C523   C     0.87618   0.49408   0.11310   0.00000  Uiso   1.00
C524   C     0.72589   0.47702   0.45636   0.00000  Uiso   1.00
C525   C     0.92256   0.51144   0.03566   0.00000  Uiso   1.00
C526   C     0.74019   0.47674   0.40840   0.00000  Uiso   1.00
C527   C     0.91316   0.51642   0.08345   0.00000  Uiso   1.00
C528   C     0.81975   0.47274   0.40834   0.00000  Uiso   1.00
C529   C     0.84694   0.47084   0.09524   0.00000  Uiso   1.00
C530   C     0.80413   0.45914   0.45455   0.00000  Uiso   1.00
C531   C     0.85417   0.46982   0.04815   0.00000  Uiso   1.00
C532   C     0.75604   0.46118   0.47889   0.00000  Uiso   1.00
C533   C     0.77076   0.46224   0.05165   0.00000  Uiso   1.00
C534   C     0.89795   0.48158   0.01934   0.00000  Uiso   1.00
C535   C     0.83555   0.45249   0.47919   0.00000  Uiso   1.00
C536   C     0.81979   0.45982   0.02776   0.00000  Uiso   1.00
C537   C     0.68356   0.41175   0.06704   0.00000  Uiso   1.00
C538   C     0.96983   0.41356   0.47744   0.00000  Uiso   1.00
C539   C     0.97697   0.53397   0.10287   0.00000  Uiso   1.00
C540   C     0.70624   0.44253   0.36279   0.00000  Uiso   1.00
C541   C     0.71359   0.54622   0.47409   0.00000  Uiso   1.00
C542   C     0.91526   0.57170   0.49903   0.00000  Uiso   1.00
C543   C     0.74959   0.48066   0.09855   0.00000  Uiso   1.00
C544   C     0.88361   0.44528   0.45615   0.00000  Uiso   1.00
C545   C     0.89893   0.41818   0.41407   0.00000  Uiso   1.00
C546   C     0.84067   0.62055   0.32988   0.00000  Uiso   1.00
C547   C     0.83306   0.37933   0.16874   0.00000  Uiso   1.00
C548   C     0.83199   0.37975   0.33307   0.00000  Uiso   1.00
C549   C     0.82258   0.62143   0.17199   0.00000  Uiso   1.00
C550   C     0.97161   0.43178   0.20615   0.00000  Uiso   1.00
C551   C     0.69517   0.56801   0.29403   0.00000  Uiso   1.00
C552   C     0.73981   0.45565   0.02681   0.00000  Uiso   1.00
C553   C     0.91541   0.46233   0.47581   0.00000  Uiso   1.00
C554   C     0.83560   0.64490   0.29016   0.00000  Uiso   1.00
C555   C     0.83039   0.35518   0.21116   0.00000  Uiso   1.00
C556   C     0.83497   0.35531   0.29050   0.00000  Uiso   1.00
H557   H     0.81806   0.45432   0.11838   0.00000  Uiso   1.00
H558   H     0.95395   0.38730   0.46410   0.00000  Uiso   1.00
H559   H     0.97462   0.50350   0.12089   0.00000  Uiso   1.00
H560   H     0.98992   0.55728   0.12264   0.00000  Uiso   1.00
H561   H     0.66951   0.53143   0.06793   0.00000  Uiso   1.00
H562   H     0.69016   0.41734   0.38707   0.00000  Uiso   1.00
H563   H     0.74145   0.43095   0.34129   0.00000  Uiso   1.00
H564   H     0.68552   0.44761   0.33920   0.00000  Uiso   1.00
H565   H     0.72015   0.55780   0.43843   0.00000  Uiso   1.00
H566   H     0.74660   0.54595   0.48289   0.00000  Uiso   1.00
H567   H     0.69002   0.56943   0.49783   0.00000  Uiso   1.00
H568   H     0.85628   0.47825   0.39087   0.00000  Uiso   1.00
H569   H     0.89329   0.55775   0.47995   0.00000  Uiso   1.00
H570   H     0.93543   0.59716   0.47758   0.00000  Uiso   1.00
H571   H     0.89286   0.58615   0.03213   0.00000  Uiso   1.00
H572   H     0.72161   0.46494   0.12405   0.00000  Uiso   1.00
H573   H     0.87443   0.39688   0.40705   0.00000  Uiso   1.00
H574   H     0.82339   0.59081   0.33893   0.00000  Uiso   1.00
H575   H     0.85467   0.40677   0.16047   0.00000  Uiso   1.00
H576   H     0.85126   0.40840   0.33090   0.00000  Uiso   1.00
H577   H     0.79398   0.62869   0.15900   0.00000  Uiso   1.00
H578   H     0.98467   0.40064   0.21033   0.00000  Uiso   1.00
H579   H     0.72169   0.44239   0.21417   0.00000  Uiso   1.00
H580   H     0.68309   0.59935   0.28912   0.00000  Uiso   1.00
H581   H     0.94503   0.55763   0.28584   0.00000  Uiso   1.00
H582   H     0.69372   0.38783   0.03876   0.00000  Uiso   1.00
H583   H     0.97891   0.40919   0.08516   0.00000  Uiso   1.00
H584   H     0.70174   0.40459   0.09250   0.00000  Uiso   1.00
H585   H     0.95601   0.41429   0.01575   0.00000  Uiso   1.00
H586   H     0.67445   0.40657   0.46734   0.00000  Uiso   1.00
N587   N     0.71426   0.50001   0.25001   0.00000  Uiso   1.00
N588   N     0.95241   0.49999   0.24999   0.00000  Uiso   1.00
O589   O     0.79512   0.56108   0.25001   0.00000  Uiso   1.00
O590   O     0.96231   0.45233   0.45829   0.00000  Uiso   1.00
O591   O     0.93340   0.54827   0.10078   0.00000  Uiso   1.00
O592   O     0.70689   0.48069   0.38654   0.00000  Uiso   1.00
O593   O     0.69244   0.50623   0.47949   0.00000  Uiso   1.00
O594   O     0.94700   0.54170   0.00627   0.00000  Uiso   1.00
O595   O     0.76117   0.51515   0.10802   0.00000  Uiso   1.00
O596   O     0.93811   0.41995   0.38647   0.00000  Uiso   1.00
O597   O     0.86564   0.63260   0.35160   0.00000  Uiso   1.00
O598   O     0.81061   0.36981   0.14356   0.00000  Uiso   1.00
O599   O     0.80638   0.36895   0.37075   0.00000  Uiso   1.00
O600   O     0.87154   0.43892   0.25000   0.00000  Uiso   1.00
O601   O     0.85091   0.59403   0.15282   0.00000  Uiso   1.00
O602   O     0.95006   0.43651   0.17906   0.00000  Uiso   1.00
O603   O     0.71569   0.56295   0.32197   0.00000  Uiso   1.00
O604   O     0.87157   0.56107   0.25000   0.00000  Uiso   1.00
O605   O     0.79510   0.43893   0.25000   0.00000  Uiso   1.00
O606   O     0.77328   0.50001   0.31613   0.00000  Uiso   1.00
O607   O     0.89339   0.49999   0.18388   0.00000  Uiso   1.00
O608   O     0.84972   0.50000   0.31612   0.00000  Uiso   1.00
O609   O     0.81695   0.50000   0.18388   0.00000  Uiso   1.00
O610   O     0.69239   0.45268   0.04948   0.00000  Uiso   1.00
Zn611  Zn    0.78229   0.50001   0.25000   0.00000  Uiso   1.00
Zn612  Zn    0.88438   0.49999   0.25000   0.00000  Uiso   1.00
C613   C     0.16619   0.91291   0.25028   0.00000  Uiso   1.00
C614   C     0.16074   0.97834   0.21220   0.00000  Uiso   1.00
C615   C     0.16765   0.70942   0.25029   0.00000  Uiso   1.00
C616   C     0.16495   0.95730   0.25102   0.00000  Uiso   1.00
C617   C     0.31746   0.80116   0.22975   0.00000  Uiso   1.00
C618   C     0.01589   0.86546   0.27030   0.00000  Uiso   1.00
C619   C     0.03122   0.80129   0.23037   0.00000  Uiso   1.00
C620   C     0.30214   0.86538   0.26965   0.00000  Uiso   1.00
C621   C     0.13792   0.82924   0.33701   0.00000  Uiso   1.00
C622   C     0.19523   0.83255   0.16276   0.00000  Uiso   1.00
C623   C     0.12134   0.81522   0.38507   0.00000  Uiso   1.00
C624   C     0.16686   0.75379   0.25050   0.00000  Uiso   1.00
C625   C     0.20951   0.82741   0.11310   0.00000  Uiso   1.00
C626   C     0.05923   0.81036   0.45636   0.00000  Uiso   1.00
C627   C     0.25589   0.84478   0.03566   0.00000  Uiso   1.00
C628   C     0.07352   0.81007   0.40840   0.00000  Uiso   1.00
C629   C     0.24650   0.84975   0.08345   0.00000  Uiso   1.00
C630   C     0.15308   0.80607   0.40834   0.00000  Uiso   1.00
C631   C     0.18027   0.80417   0.09524   0.00000  Uiso   1.00
C632   C     0.13746   0.79247   0.45455   0.00000  Uiso   1.00
C633   C     0.18750   0.80315   0.04815   0.00000  Uiso   1.00
C634   C     0.08937   0.79451   0.47889   0.00000  Uiso   1.00
C635   C     0.10410   0.79558   0.05165   0.00000  Uiso   1.00
C636   C     0.23128   0.81491   0.01934   0.00000  Uiso   1.00
C637   C     0.16889   0.78582   0.47919   0.00000  Uiso   1.00
C638   C     0.15312   0.79315   0.02776   0.00000  Uiso   1.00
C639   C     0.01690   0.74509   0.06704   0.00000  Uiso   1.00
C640   C     0.30316   0.74689   0.47744   0.00000  Uiso   1.00
C641   C     0.31031   0.86731   0.10287   0.00000  Uiso   1.00
C642   C     0.03957   0.77586   0.36279   0.00000  Uiso   1.00
C643   C     0.04692   0.87955   0.47409   0.00000  Uiso   1.00
C644   C     0.24859   0.90503   0.49903   0.00000  Uiso   1.00
C645   C     0.08292   0.81400   0.09855   0.00000  Uiso   1.00
C646   C     0.21694   0.77862   0.45615   0.00000  Uiso   1.00
C647   C     0.23226   0.75151   0.41407   0.00000  Uiso   1.00
C648   C     0.17400   0.95388   0.32988   0.00000  Uiso   1.00
C649   C     0.16639   0.71266   0.16874   0.00000  Uiso   1.00
C650   C     0.16533   0.71309   0.33307   0.00000  Uiso   1.00
C651   C     0.15591   0.95476   0.17199   0.00000  Uiso   1.00
C652   C     0.30495   0.76511   0.20615   0.00000  Uiso   1.00
C653   C     0.02850   0.90134   0.29403   0.00000  Uiso   1.00
C654   C     0.07314   0.78898   0.02681   0.00000  Uiso   1.00
C655   C     0.24875   0.79567   0.47581   0.00000  Uiso   1.00
C656   C     0.16894   0.97824   0.29016   0.00000  Uiso   1.00
C657   C     0.16372   0.68851   0.21116   0.00000  Uiso   1.00
C658   C     0.16830   0.68864   0.29050   0.00000  Uiso   1.00
H659   H     0.15139   0.78766   0.11838   0.00000  Uiso   1.00
H660   H     0.28728   0.72064   0.46410   0.00000  Uiso   1.00
H661   H     0.30796   0.83683   0.12089   0.00000  Uiso   1.00
H662   H     0.32326   0.89062   0.12264   0.00000  Uiso   1.00
H663   H     0.00285   0.86477   0.06793   0.00000  Uiso   1.00
H664   H     0.02349   0.75067   0.38707   0.00000  Uiso   1.00
H665   H     0.07478   0.76429   0.34129   0.00000  Uiso   1.00
H666   H     0.01886   0.78095   0.33920   0.00000  Uiso   1.00
H667   H     0.05348   0.89114   0.43843   0.00000  Uiso   1.00
H668   H     0.07993   0.87928   0.48289   0.00000  Uiso   1.00
H669   H     0.02336   0.90276   0.49783   0.00000  Uiso   1.00
H670   H     0.18961   0.81159   0.39087   0.00000  Uiso   1.00
H671   H     0.22662   0.89108   0.47995   0.00000  Uiso   1.00
H672   H     0.26876   0.93049   0.47758   0.00000  Uiso   1.00
H673   H     0.22619   0.91948   0.03213   0.00000  Uiso   1.00
H674   H     0.05494   0.79827   0.12405   0.00000  Uiso   1.00
H675   H     0.20777   0.73021   0.40705   0.00000  Uiso   1.00
H676   H     0.15672   0.92415   0.33893   0.00000  Uiso   1.00
H677   H     0.18800   0.74011   0.16047   0.00000  Uiso   1.00
H678   H     0.18460   0.74173   0.33090   0.00000  Uiso   1.00
H679   H     0.12731   0.96202   0.15900   0.00000  Uiso   1.00
H680   H     0.31801   0.73397   0.21033   0.00000  Uiso   1.00
H681   H     0.05502   0.77572   0.21417   0.00000  Uiso   1.00
H682   H     0.01643   0.93268   0.28912   0.00000  Uiso   1.00
H683   H     0.27837   0.89096   0.28584   0.00000  Uiso   1.00
H684   H     0.02705   0.72116   0.03876   0.00000  Uiso   1.00
H685   H     0.31224   0.74253   0.08516   0.00000  Uiso   1.00
H686   H     0.03508   0.73793   0.09250   0.00000  Uiso   1.00
H687   H     0.28934   0.74762   0.01575   0.00000  Uiso   1.00
H688   H     0.00779   0.73991   0.46734   0.00000  Uiso   1.00
N689   N     0.04759   0.83334   0.25001   0.00000  Uiso   1.00
N690   N     0.28574   0.83332   0.24999   0.00000  Uiso   1.00
O691   O     0.12846   0.89442   0.25001   0.00000  Uiso   1.00
O692   O     0.29565   0.78566   0.45829   0.00000  Uiso   1.00
O693   O     0.26674   0.88160   0.10078   0.00000  Uiso   1.00
O694   O     0.04022   0.81402   0.38654   0.00000  Uiso   1.00
O695   O     0.02577   0.83957   0.47949   0.00000  Uiso   1.00
O696   O     0.28033   0.87504   0.00627   0.00000  Uiso   1.00
O697   O     0.09451   0.84848   0.10802   0.00000  Uiso   1.00
O698   O     0.27144   0.75329   0.38647   0.00000  Uiso   1.00
O699   O     0.19897   0.96593   0.35160   0.00000  Uiso   1.00
O700   O     0.14394   0.70315   0.14356   0.00000  Uiso   1.00
O701   O     0.13971   0.70229   0.37075   0.00000  Uiso   1.00
O702   O     0.20488   0.77225   0.25000   0.00000  Uiso   1.00
O703   O     0.18425   0.92737   0.15282   0.00000  Uiso   1.00
O704   O     0.28339   0.76984   0.17906   0.00000  Uiso   1.00
O705   O     0.04902   0.89628   0.32197   0.00000  Uiso   1.00
O706   O     0.20490   0.89441   0.25000   0.00000  Uiso   1.00
O707   O     0.12843   0.77226   0.25000   0.00000  Uiso   1.00
O708   O     0.10661   0.83334   0.31613   0.00000  Uiso   1.00
O709   O     0.22672   0.83333   0.18388   0.00000  Uiso   1.00
O710   O     0.18305   0.83333   0.31612   0.00000  Uiso   1.00
O711   O     0.15028   0.83334   0.18388   0.00000  Uiso   1.00
O712   O     0.02572   0.78601   0.04948   0.00000  Uiso   1.00
Zn713  Zn    0.11562   0.83334   0.25000   0.00000  Uiso   1.00
Zn714  Zn    0.21771   0.83333   0.25000   0.00000  Uiso   1.00
C715   C     0.49952   0.91291   0.25028   0.00000  Uiso   1.00
C716   C     0.49407   0.97834   0.21220   0.00000  Uiso   1.00
C717   C     0.50099   0.70942   0.25029   0.00000  Uiso   1.00
C718   C     0.49828   0.95730   0.25102   0.00000  Uiso   1.00
C719   C     0.65080   0.80116   0.22975   0.00000  Uiso   1.00
C720   C     0.34922   0.86546   0.27030   0.00000  Uiso   1.00
C721   C     0.36455   0.80129   0.23037   0.00000  Uiso   1.00
C722   C     0.63547   0.86538   0.26965   0.00000  Uiso   1.00
C723   C     0.47126   0.82924   0.33701   0.00000  Uiso   1.00
C724   C     0.52857   0.83255   0.16276   0.00000  Uiso   1.00
C725   C     0.45468   0.81522   0.38507   0.00000  Uiso   1.00
C726   C     0.50019   0.75379   0.25050   0.00000  Uiso   1.00
C727   C     0.54284   0.82741   0.11310   0.00000  Uiso   1.00
C728   C     0.39256   0.81036   0.45636   0.00000  Uiso   1.00
C729   C     0.58923   0.84478   0.03566   0.00000  Uiso   1.00
C730   C     0.40686   0.81007   0.40840   0.00000  Uiso   1.00
C731   C     0.57983   0.84975   0.08345   0.00000  Uiso   1.00
C732   C     0.48642   0.80607   0.40834   0.00000  Uiso   1.00
C733   C     0.51361   0.80417   0.09524   0.00000  Uiso   1.00
C734   C     0.47079   0.79247   0.45455   0.00000  Uiso   1.00
C735   C     0.52084   0.80315   0.04815   0.00000  Uiso   1.00
C736   C     0.42271   0.79451   0.47889   0.00000  Uiso   1.00
C737   C     0.43743   0.79558   0.05165   0.00000  Uiso   1.00
C738   C     0.56462   0.81491   0.01934   0.00000  Uiso   1.00
C739   C     0.50222   0.78582   0.47919   0.00000  Uiso   1.00
C740   C     0.48646   0.79315   0.02776   0.00000  Uiso   1.00
C741   C     0.35023   0.74509   0.06704   0.00000  Uiso   1.00
C742   C     0.63650   0.74689   0.47744   0.00000  Uiso   1.00
C743   C     0.64364   0.86731   0.10287   0.00000  Uiso   1.00
C744   C     0.37290   0.77586   0.36279   0.00000  Uiso   1.00
C745   C     0.38026   0.87955   0.47409   0.00000  Uiso   1.00
C746   C     0.58192   0.90503   0.49903   0.00000  Uiso   1.00
C747   C     0.41625   0.81400   0.09855   0.00000  Uiso   1.00
C748   C     0.55027   0.77862   0.45615   0.00000  Uiso   1.00
C749   C     0.56560   0.75151   0.41407   0.00000  Uiso   1.00
C750   C     0.50733   0.95388   0.32988   0.00000  Uiso   1.00
C751   C     0.49973   0.71266   0.16874   0.00000  Uiso   1.00
C752   C     0.49866   0.71309   0.33307   0.00000  Uiso   1.00
C753   C     0.48924   0.95476   0.17199   0.00000  Uiso   1.00
C754   C     0.63828   0.76511   0.20615   0.00000  Uiso   1.00
C755   C     0.36183   0.90134   0.29403   0.00000  Uiso   1.00
C756   C     0.40647   0.78898   0.02681   0.00000  Uiso   1.00
C757   C     0.58208   0.79567   0.47581   0.00000  Uiso   1.00
C758   C     0.50227   0.97824   0.29016   0.00000  Uiso   1.00
C759   C     0.49706   0.68851   0.21116   0.00000  Uiso   1.00
C760   C     0.50164   0.68864   0.29050   0.00000  Uiso   1.00
H761   H     0.48473   0.78766   0.11838   0.00000  Uiso   1.00
H762   H     0.62061   0.72064   0.46410   0.00000  Uiso   1.00
H763   H     0.64129   0.83683   0.12089   0.00000  Uiso   1.00
H764   H     0.65659   0.89062   0.12264   0.00000  Uiso   1.00
H765   H     0.33618   0.86477   0.06793   0.00000  Uiso   1.00
H766   H     0.35683   0.75067   0.38707   0.00000  Uiso   1.00
H767   H     0.40811   0.76429   0.34129   0.00000  Uiso   1.00
H768   H     0.35219   0.78095   0.33920   0.00000  Uiso   1.00
H769   H     0.38682   0.89114   0.43843   0.00000  Uiso   1.00
H770   H     0.41326   0.87928   0.48289   0.00000  Uiso   1.00
H771   H     0.35669   0.90276   0.49783   0.00000  Uiso   1.00
H772   H     0.52294   0.81159   0.39087   0.00000  Uiso   1.00
H773   H     0.55995   0.89108   0.47995   0.00000  Uiso   1.00
H774   H     0.60210   0.93049   0.47758   0.00000  Uiso   1.00
H775   H     0.55953   0.91948   0.03213   0.00000  Uiso   1.00
H776   H     0.38827   0.79827   0.12405   0.00000  Uiso   1.00
H777   H     0.54110   0.73021   0.40705   0.00000  Uiso   1.00
H778   H     0.49005   0.92415   0.33893   0.00000  Uiso   1.00
H779   H     0.52133   0.74011   0.16047   0.00000  Uiso   1.00
H780   H     0.51793   0.74173   0.33090   0.00000  Uiso   1.00
H781   H     0.46064   0.96202   0.15900   0.00000  Uiso   1.00
H782   H     0.65134   0.73397   0.21033   0.00000  Uiso   1.00
H783   H     0.38836   0.77572   0.21417   0.00000  Uiso   1.00
H784   H     0.34976   0.93268   0.28912   0.00000  Uiso   1.00
H785   H     0.61170   0.89096   0.28584   0.00000  Uiso   1.00
H786   H     0.36038   0.72116   0.03876   0.00000  Uiso   1.00
H787   H     0.64557   0.74253   0.08516   0.00000  Uiso   1.00
H788   H     0.36841   0.73793   0.09250   0.00000  Uiso   1.00
H789   H     0.62267   0.74762   0.01575   0.00000  Uiso   1.00
H790   H     0.34112   0.73991   0.46734   0.00000  Uiso   1.00
N791   N     0.38093   0.83334   0.25001   0.00000  Uiso   1.00
N792   N     0.61907   0.83332   0.24999   0.00000  Uiso   1.00
O793   O     0.46179   0.89442   0.25001   0.00000  Uiso   1.00
O794   O     0.62898   0.78566   0.45829   0.00000  Uiso   1.00
O795   O     0.60007   0.88160   0.10078   0.00000  Uiso   1.00
O796   O     0.37356   0.81402   0.38654   0.00000  Uiso   1.00
O797   O     0.35911   0.83957   0.47949   0.00000  Uiso   1.00
O798   O     0.61366   0.87504   0.00627   0.00000  Uiso   1.00
O799   O     0.42784   0.84848   0.10802   0.00000  Uiso   1.00
O800   O     0.60478   0.75329   0.38647   0.00000  Uiso   1.00
O801   O     0.53231   0.96593   0.35160   0.00000  Uiso   1.00
O802   O     0.47728   0.70315   0.14356   0.00000  Uiso   1.00
O803   O     0.47305   0.70229   0.37075   0.00000  Uiso   1.00
O804   O     0.53821   0.77225   0.25000   0.00000  Uiso   1.00
O805   O     0.51758   0.92737   0.15282   0.00000  Uiso   1.00
O806   O     0.61673   0.76984   0.17906   0.00000  Uiso   1.00
O807   O     0.38236   0.89628   0.32197   0.00000  Uiso   1.00
O808   O     0.53823   0.89441   0.25000   0.00000  Uiso   1.00
O809   O     0.46177   0.77226   0.25000   0.00000  Uiso   1.00
O810   O     0.43994   0.83334   0.31613   0.00000  Uiso   1.00
O811   O     0.56006   0.83333   0.18388   0.00000  Uiso   1.00
O812   O     0.51639   0.83333   0.31612   0.00000  Uiso   1.00
O813   O     0.48361   0.83334   0.18388   0.00000  Uiso   1.00
O814   O     0.35906   0.78601   0.04948   0.00000  Uiso   1.00
Zn815  Zn    0.44896   0.83334   0.25000   0.00000  Uiso   1.00
Zn816  Zn    0.55104   0.83333   0.25000   0.00000  Uiso   1.00
C817   C     0.83285   0.91291   0.25028   0.00000  Uiso   1.00
C818   C     0.82741   0.97834   0.21220   0.00000  Uiso   1.00
C819   C     0.83432   0.70942   0.25029   0.00000  Uiso   1.00
C820   C     0.83162   0.95730   0.25102   0.00000  Uiso   1.00
C821   C     0.98413   0.80116   0.22975   0.00000  Uiso   1.00
C822   C     0.68255   0.86546   0.27030   0.00000  Uiso   1.00
C823   C     0.69788   0.80129   0.23037   0.00000  Uiso   1.00
C824   C     0.96881   0.86538   0.26965   0.00000  Uiso   1.00
C825   C     0.80459   0.82924   0.33701   0.00000  Uiso   1.00
C826   C     0.86190   0.83255   0.16276   0.00000  Uiso   1.00
C827   C     0.78801   0.81522   0.38507   0.00000  Uiso   1.00
C828   C     0.83352   0.75379   0.25050   0.00000  Uiso   1.00
C829   C     0.87618   0.82741   0.11310   0.00000  Uiso   1.00
C830   C     0.72589   0.81036   0.45636   0.00000  Uiso   1.00
C831   C     0.92256   0.84478   0.03566   0.00000  Uiso   1.00
C832   C     0.74019   0.81007   0.40840   0.00000  Uiso   1.00
C833   C     0.91316   0.84975   0.08345   0.00000  Uiso   1.00
C834   C     0.81975   0.80607   0.40834   0.00000  Uiso   1.00
C835   C     0.84694   0.80417   0.09524   0.00000  Uiso   1.00
C836   C     0.80413   0.79247   0.45455   0.00000  Uiso   1.00
C837   C     0.85417   0.80315   0.04815   0.00000  Uiso   1.00
C838   C     0.75604   0.79451   0.47889   0.00000  Uiso   1.00
C839   C     0.77076   0.79558   0.05165   0.00000  Uiso   1.00
C840   C     0.89795   0.81491   0.01934   0.00000  Uiso   1.00
C841   C     0.83555   0.78582   0.47919   0.00000  Uiso   1.00
C842   C     0.81979   0.79315   0.02776   0.00000  Uiso   1.00
C843   C     0.68356   0.74509   0.06704   0.00000  Uiso   1.00
C844   C     0.96983   0.74689   0.47744   0.00000  Uiso   1.00
C845   C     0.97697   0.86731   0.10287   0.00000  Uiso   1.00
C846   C     0.70624   0.77586   0.36279   0.00000  Uiso   1.00
C847   C     0.71359   0.87955   0.47409   0.00000  Uiso   1.00
C848   C     0.91526   0.90503   0.49903   0.00000  Uiso   1.00
C849   C     0.74959   0.81400   0.09855   0.00000  Uiso   1.00
C850   C     0.88361   0.77862   0.45615   0.00000  Uiso   1.00
C851   C     0.89893   0.75151   0.41407   0.00000  Uiso   1.00
C852   C     0.84067   0.95388   0.32988   0.00000  Uiso   1.00
C853   C     0.83306   0.71266   0.16874   0.00000  Uiso   1.00
C854   C     0.83199   0.71309   0.33307   0.00000  Uiso   1.00
C855   C     0.82258   0.95476   0.17199   0.00000  Uiso   1.00
C856   C     0.97161   0.76511   0.20615   0.00000  Uiso   1.00
C857   C     0.69517   0.90134   0.29403   0.00000  Uiso   1.00
C858   C     0.73981   0.78898   0.02681   0.00000  Uiso   1.00
C859   C     0.91541   0.79567   0.47581   0.00000  Uiso   1.00
C860   C     0.83560   0.97824   0.29016   0.00000  Uiso   1.00
C861   C     0.83039   0.68851   0.21116   0.00000  Uiso   1.00
C862   C     0.83497   0.68864   0.29050   0.00000  Uiso   1.00
H863   H     0.81806   0.78766   0.11838   0.00000  Uiso   1.00
H864   H     0.95395   0.72064   0.46410   0.00000  Uiso   1.00
H865   H     0.97462   0.83683   0.12089   0.00000  Uiso   1.00
H866   H     0.98992   0.89062   0.12264   0.00000  Uiso   1.00
H867   H     0.66951   0.86477   0.06793   0.00000  Uiso   1.00
H868   H     0.69016   0.75067   0.38707   0.00000  Uiso   1.00
H869   H     0.74145   0.76429   0.34129   0.00000  Uiso   1.00
H870   H     0.68552   0.78095   0.33920   0.00000  Uiso   1.00
H871   H     0.72015   0.89114   0.43843   0.00000  Uiso   1.00
H872   H     0.74660   0.87928   0.48289   0.00000  Uiso   1.00
H873   H     0.69002   0.90276   0.49783   0.00000  Uiso   1.00
H874   H     0.85628   0.81159   0.39087   0.00000  Uiso   1.00
H875   H     0.89329   0.89108   0.47995   0.00000  Uiso   1.00
H876   H     0.93543   0.93049   0.47758   0.00000  Uiso   1.00
H877   H     0.89286   0.91948   0.03213   0.00000  Uiso   1.00
H878   H     0.72161   0.79827   0.12405   0.00000  Uiso   1.00
H879   H     0.87443   0.73021   0.40705   0.00000  Uiso   1.00
H880   H     0.82339   0.92415   0.33893   0.00000  Uiso   1.00
H881   H     0.85467   0.74011   0.16047   0.00000  Uiso   1.00
H882   H     0.85126   0.74173   0.33090   0.00000  Uiso   1.00
H883   H     0.79398   0.96202   0.15900   0.00000  Uiso   1.00
H884   H     0.98467   0.73397   0.21033   0.00000  Uiso   1.00
H885   H     0.72169   0.77572   0.21417   0.00000  Uiso   1.00
H886   H     0.68309   0.93268   0.28912   0.00000  Uiso   1.00
H887   H     0.94503   0.89096   0.28584   0.00000  Uiso   1.00
H888   H     0.69372   0.72116   0.03876   0.00000  Uiso   1.00
H889   H     0.97891   0.74253   0.08516   0.00000  Uiso   1.00
H890   H     0.70174   0.73793   0.09250   0.00000  Uiso   1.00
H891   H     0.95601   0.74762   0.01575   0.00000  Uiso   1.00
H892   H     0.67445   0.73991   0.46734   0.00000  Uiso   1.00
N893   N     0.71426   0.83334   0.25001   0.00000  Uiso   1.00
N894   N     0.95241   0.83332   0.24999   0.00000  Uiso   1.00
O895   O     0.79512   0.89442   0.25001   0.00000  Uiso   1.00
O896   O     0.96231   0.78566   0.45829   0.00000  Uiso   1.00
O897   O     0.93340   0.88160   0.10078   0.00000  Uiso   1.00
O898   O     0.70689   0.81402   0.38654   0.00000  Uiso   1.00
O899   O     0.69244   0.83957   0.47949   0.00000  Uiso   1.00
O900   O     0.94700   0.87504   0.00627   0.00000  Uiso   1.00
O901   O     0.76117   0.84848   0.10802   0.00000  Uiso   1.00
O902   O     0.93811   0.75329   0.38647   0.00000  Uiso   1.00
O903   O     0.86564   0.96593   0.35160   0.00000  Uiso   1.00
O904   O     0.81061   0.70315   0.14356   0.00000  Uiso   1.00
O905   O     0.80638   0.70229   0.37075   0.00000  Uiso   1.00
O906   O     0.87154   0.77225   0.25000   0.00000  Uiso   1.00
O907   O     0.85091   0.92737   0.15282   0.00000  Uiso   1.00
O908   O     0.95006   0.76984   0.17906   0.00000  Uiso   1.00
O909   O     0.71569   0.89628   0.32197   0.00000  Uiso   1.00
O910   O     0.87157   0.89441   0.25000   0.00000  Uiso   1.00
O911   O     0.79510   0.77226   0.25000   0.00000  Uiso   1.00
O912   O     0.77328   0.83334   0.31613   0.00000  Uiso   1.00
O913   O     0.89339   0.83333   0.18388   0.00000  Uiso   1.00
O914   O     0.84972   0.83333   0.31612   0.00000  Uiso   1.00
O915   O     0.81695   0.83334   0.18388   0.00000  Uiso   1.00
O916   O     0.69239   0.78601   0.04948   0.00000  Uiso   1.00
Zn917  Zn    0.78229   0.83334   0.25000   0.00000  Uiso   1.00
Zn918  Zn    0.88438   0.83333   0.25000   0.00000  Uiso   1.00
C919   C     0.16619   0.24624   0.75028   0.00000  Uiso   1.00
C920   C     0.16074   0.31167   0.71220   0.00000  Uiso   1.00
C921   C     0.16765   0.04276   0.75029   0.00000  Uiso   1.00
C922   C     0.16495   0.29063   0.75102   0.00000  Uiso   1.00
C923   C     0.31746   0.13450   0.72975   0.00000  Uiso   1.00
C924   C     0.01589   0.19879   0.77030   0.00000  Uiso   1.00
C925   C     0.03122   0.13462   0.73037   0.00000  Uiso   1.00
C926   C     0.30214   0.19871   0.76965   0.00000  Uiso   1.00
C927   C     0.13792   0.16257   0.83701   0.00000  Uiso   1.00
C928   C     0.19523   0.16588   0.66276   0.00000  Uiso   1.00
C929   C     0.12134   0.14855   0.88507   0.00000  Uiso   1.00
C930   C     0.16686   0.08712   0.75050   0.00000  Uiso   1.00
C931   C     0.20951   0.16074   0.61310   0.00000  Uiso   1.00
C932   C     0.05923   0.14369   0.95636   0.00000  Uiso   1.00
C933   C     0.25589   0.17811   0.53566   0.00000  Uiso   1.00
C934   C     0.07352   0.14341   0.90840   0.00000  Uiso   1.00
C935   C     0.24650   0.18308   0.58345   0.00000  Uiso   1.00
C936   C     0.15308   0.13940   0.90834   0.00000  Uiso   1.00
C937   C     0.18027   0.13751   0.59524   0.00000  Uiso   1.00
C938   C     0.13746   0.12581   0.95455   0.00000  Uiso   1.00
C939   C     0.18750   0.13649   0.54815   0.00000  Uiso   1.00
C940   C     0.08937   0.12784   0.97889   0.00000  Uiso   1.00
C941   C     0.10410   0.12891   0.55165   0.00000  Uiso   1.00
C942   C     0.23128   0.14824   0.51934   0.00000  Uiso   1.00
C943   C     0.16889   0.11916   0.97919   0.00000  Uiso   1.00
C944   C     0.15312   0.12648   0.52776   0.00000  Uiso   1.00
C945   C     0.01690   0.07842   0.56704   0.00000  Uiso   1.00
C946   C     0.30316   0.08022   0.97744   0.00000  Uiso   1.00
C947   C     0.31031   0.20064   0.60287   0.00000  Uiso   1.00
C948   C     0.03957   0.10919   0.86279   0.00000  Uiso   1.00
C949   C     0.04692   0.21288   0.97409   0.00000  Uiso   1.00
C950   C     0.24859   0.23837   0.99903   0.00000  Uiso   1.00
C951   C     0.08292   0.14733   0.59855   0.00000  Uiso   1.00
C952   C     0.21694   0.11195   0.95615   0.00000  Uiso   1.00
C953   C     0.23226   0.08484   0.91407   0.00000  Uiso   1.00
C954   C     0.17400   0.28721   0.82988   0.00000  Uiso   1.00
C955   C     0.16639   0.04600   0.66874   0.00000  Uiso   1.00
C956   C     0.16533   0.04642   0.83307   0.00000  Uiso   1.00
C957   C     0.15591   0.28809   0.67199   0.00000  Uiso   1.00
C958   C     0.30495   0.09845   0.70615   0.00000  Uiso   1.00
C959   C     0.02850   0.23468   0.79403   0.00000  Uiso   1.00
C960   C     0.07314   0.12232   0.52681   0.00000  Uiso   1.00
C961   C     0.24875   0.12900   0.97581   0.00000  Uiso   1.00
C962   C     0.16894   0.31157   0.79016   0.00000  Uiso   1.00
C963   C     0.16372   0.02184   0.71116   0.00000  Uiso   1.00
C964   C     0.16830   0.02198   0.79050   0.00000  Uiso   1.00
H965   H     0.15139   0.12099   0.61838   0.00000  Uiso   1.00
H966   H     0.28728   0.05397   0.96410   0.00000  Uiso   1.00
H967   H     0.30796   0.17017   0.62089   0.00000  Uiso   1.00
H968   H     0.32326   0.22395   0.62264   0.00000  Uiso   1.00
H969   H     0.00285   0.19810   0.56793   0.00000  Uiso   1.00
H970   H     0.02349   0.08400   0.88707   0.00000  Uiso   1.00
H971   H     0.07478   0.09762   0.84129   0.00000  Uiso   1.00
H972   H     0.01886   0.11428   0.83920   0.00000  Uiso   1.00
H973   H     0.05348   0.22447   0.93843   0.00000  Uiso   1.00
H974   H     0.07993   0.21261   0.98289   0.00000  Uiso   1.00
H975   H     0.02336   0.23610   0.99783   0.00000  Uiso   1.00
H976   H     0.18961   0.14492   0.89087   0.00000  Uiso   1.00
H977   H     0.22662   0.22441   0.97995   0.00000  Uiso   1.00
H978   H     0.26876   0.26382   0.97758   0.00000  Uiso   1.00
H979   H     0.22619   0.25282   0.53213   0.00000  Uiso   1.00
H980   H     0.05494   0.13160   0.62405   0.00000  Uiso   1.00
H981   H     0.20777   0.06354   0.90705   0.00000  Uiso   1.00
H982   H     0.15672   0.25748   0.83893   0.00000  Uiso   1.00
H983   H     0.18800   0.07344   0.66047   0.00000  Uiso   1.00
H984   H     0.18460   0.07506   0.83090   0.00000  Uiso   1.00
H985   H     0.12731   0.29535   0.65900   0.00000  Uiso   1.00
H986   H     0.31801   0.06731   0.71033   0.00000  Uiso   1.00
H987   H     0.05502   0.10906   0.71417   0.00000  Uiso   1.00
H988   H     0.01643   0.26601   0.78912   0.00000  Uiso   1.00
H989   H     0.27837   0.22430   0.78584   0.00000  Uiso   1.00
H990   H     0.02705   0.05450   0.53876   0.00000  Uiso   1.00
H991   H     0.31224   0.07586   0.58516   0.00000  Uiso   1.00
H992   H     0.03508   0.07126   0.59250   0.00000  Uiso   1.00
H993   H     0.28934   0.08095   0.51575   0.00000  Uiso   1.00
H994   H     0.00779   0.07324   0.96734   0.00000  Uiso   1.00
N995   N     0.04759   0.16668   0.75001   0.00000  Uiso   1.00
N996   N     0.28574   0.16666   0.74999   0.00000  Uiso   1.00
O997   O     0.12846   0.22775   0.75001   0.00000  Uiso   1.00
O998   O     0.29565   0.11899   0.95829   0.00000  Uiso   1.00
O999   O     0.26674   0.21493   0.60078   0.00000  Uiso   1.00
O1000  O     0.04022   0.14736   0.88654   0.00000  Uiso   1.00
O1001  O     0.02577   0.17290   0.97949   0.00000  Uiso   1.00
O1002  O     0.28033   0.20837   0.50627   0.00000  Uiso   1.00
O1003  O     0.09451   0.18181   0.60802   0.00000  Uiso   1.00
O1004  O     0.27144   0.08662   0.88647   0.00000  Uiso   1.00
O1005  O     0.19897   0.29927   0.85160   0.00000  Uiso   1.00
O1006  O     0.14394   0.03648   0.64356   0.00000  Uiso   1.00
O1007  O     0.13971   0.03562   0.87075   0.00000  Uiso   1.00
O1008  O     0.20488   0.10558   0.75000   0.00000  Uiso   1.00
O1009  O     0.18425   0.26070   0.65282   0.00000  Uiso   1.00
O1010  O     0.28339   0.10318   0.67906   0.00000  Uiso   1.00
O1011  O     0.04902   0.22962   0.82197   0.00000  Uiso   1.00
O1012  O     0.20490   0.22774   0.75000   0.00000  Uiso   1.00
O1013  O     0.12843   0.10559   0.75000   0.00000  Uiso   1.00
O1014  O     0.10661   0.16667   0.81613   0.00000  Uiso   1.00
O1015  O     0.22672   0.16666   0.68388   0.00000  Uiso   1.00
O1016  O     0.18305   0.16666   0.81612   0.00000  Uiso   1.00
O1017  O     0.15028   0.16667   0.68388   0.00000  Uiso   1.00
O1018  O     0.02572   0.11935   0.54948   0.00000  Uiso   1.00
Zn1019 Zn    0.11562   0.16667   0.75000   0.00000  Uiso   1.00
Zn1020 Zn    0.21771   0.16666   0.75000   0.00000  Uiso   1.00
C1021  C     0.49952   0.24624   0.75028   0.00000  Uiso   1.00
C1022  C     0.49407   0.31167   0.71220   0.00000  Uiso   1.00
C1023  C     0.50099   0.04276   0.75029   0.00000  Uiso   1.00
C1024  C     0.49828   0.29063   0.75102   0.00000  Uiso   1.00
C1025  C     0.65080   0.13450   0.72975   0.00000  Uiso   1.00
C1026  C     0.34922   0.19879   0.77030   0.00000  Uiso   1.00
C1027  C     0.36455   0.13462   0.73037   0.00000  Uiso   1.00
C1028  C     0.63547   0.19871   0.76965   0.00000  Uiso   1.00
C1029  C     0.47126   0.16257   0.83701   0.00000  Uiso   1.00
C1030  C     0.52857   0.16588   0.66276   0.00000  Uiso   1.00
C1031  C     0.45468   0.14855   0.88507   0.00000  Uiso   1.00
C1032  C     0.50019   0.08712   0.75050   0.00000  Uiso   1.00
C1033  C     0.54284   0.16074   0.61310   0.00000  Uiso   1.00
C1034  C     0.39256   0.14369   0.95636   0.00000  Uiso   1.00
C1035  C     0.58923   0.17811   0.53566   0.00000  Uiso   1.00
C1036  C     0.40686   0.14341   0.90840   0.00000  Uiso   1.00
C1037  C     0.57983   0.18308   0.58345   0.00000  Uiso   1.00
C1038  C     0.48642   0.13940   0.90834   0.00000  Uiso   1.00
C1039  C     0.51361   0.13751   0.59524   0.00000  Uiso   1.00
C1040  C     0.47079   0.12581   0.95455   0.00000  Uiso   1.00
C1041  C     0.52084   0.13649   0.54815   0.00000  Uiso   1.00
C1042  C     0.42271   0.12784   0.97889   0.00000  Uiso   1.00
C1043  C     0.43743   0.12891   0.55165   0.00000  Uiso   1.00
C1044  C     0.56462   0.14824   0.51934   0.00000  Uiso   1.00
C1045  C     0.50222   0.11916   0.97919   0.00000  Uiso   1.00
C1046  C     0.48646   0.12648   0.52776   0.00000  Uiso   1.00
C1047  C     0.35023   0.07842   0.56704   0.00000  Uiso   1.00
C1048  C     0.63650   0.08022   0.97744   0.00000  Uiso   1.00
C1049  C     0.64364   0.20064   0.60287   0.00000  Uiso   1.00
C1050  C     0.37290   0.10919   0.86279   0.00000  Uiso   1.00
C1051  C     0.38026   0.21288   0.97409   0.00000  Uiso   1.00
C1052  C     0.58192   0.23837   0.99903   0.00000  Uiso   1.00
C1053  C     0.41625   0.14733   0.59855   0.00000  Uiso   1.00
C1054  C     0.55027   0.11195   0.95615   0.00000  Uiso   1.00
C1055  C     0.56560   0.08484   0.91407   0.00000  Uiso   1.00
C1056  C     0.50733   0.28721   0.82988   0.00000  Uiso   1.00
C1057  C     0.49973   0.04600   0.66874   0.00000  Uiso   1.00
C1058  C     0.49866   0.04642   0.83307   0.00000  Uiso   1.00
C1059  C     0.48924   0.28809   0.67199   0.00000  Uiso   1.00
C1060  C     0.63828   0.09845   0.70615   0.00000  Uiso   1.00
C1061  C     0.36183   0.23468   0.79403   0.00000  Uiso   1.00
C1062  C     0.40647   0.12232   0.52681   0.00000  Uiso   1.00
C1063  C     0.58208   0.12900   0.97581   0.00000  Uiso   1.00
C1064  C     0.50227   0.31157   0.79016   0.00000  Uiso   1.00
C1065  C     0.49706   0.02184   0.71116   0.00000  Uiso   1.00
C1066  C     0.50164   0.02198   0.79050   0.00000  Uiso   1.00
H1067  H     0.48473   0.12099   0.61838   0.00000  Uiso   1.00
H1068  H     0.62061   0.05397   0.96410   0.00000  Uiso   1.00
H1069  H     0.64129   0.17017   0.62089   0.00000  Uiso   1.00
H1070  H     0.65659   0.22395   0.62264   0.00000  Uiso   1.00
H1071  H     0.33618   0.19810   0.56793   0.00000  Uiso   1.00
H1072  H     0.35683   0.08400   0.88707   0.00000  Uiso   1.00
H1073  H     0.40811   0.09762   0.84129   0.00000  Uiso   1.00
H1074  H     0.35219   0.11428   0.83920   0.00000  Uiso   1.00
H1075  H     0.38682   0.22447   0.93843   0.00000  Uiso   1.00
H1076  H     0.41326   0.21261   0.98289   0.00000  Uiso   1.00
H1077  H     0.35669   0.23610   0.99783   0.00000  Uiso   1.00
H1078  H     0.52294   0.14492   0.89087   0.00000  Uiso   1.00
H1079  H     0.55995   0.22441   0.97995   0.00000  Uiso   1.00
H1080  H     0.60210   0.26382   0.97758   0.00000  Uiso   1.00
H1081  H     0.55953   0.25282   0.53213   0.00000  Uiso   1.00
H1082  H     0.38827   0.13160   0.62405   0.00000  Uiso   1.00
H1083  H     0.54110   0.06354   0.90705   0.00000  Uiso   1.00
H1084  H     0.49005   0.25748   0.83893   0.00000  Uiso   1.00
H1085  H     0.52133   0.07344   0.66047   0.00000  Uiso   1.00
H1086  H     0.51793   0.07506   0.83090   0.00000  Uiso   1.00
H1087  H     0.46064   0.29535   0.65900   0.00000  Uiso   1.00
H1088  H     0.65134   0.06731   0.71033   0.00000  Uiso   1.00
H1089  H     0.38836   0.10906   0.71417   0.00000  Uiso   1.00
H1090  H     0.34976   0.26601   0.78912   0.00000  Uiso   1.00
H1091  H     0.61170   0.22430   0.78584   0.00000  Uiso   1.00
H1092  H     0.36038   0.05450   0.53876   0.00000  Uiso   1.00
H1093  H     0.64557   0.07586   0.58516   0.00000  Uiso   1.00
H1094  H     0.36841   0.07126   0.59250   0.00000  Uiso   1.00
H1095  H     0.62267   0.08095   0.51575   0.00000  Uiso   1.00
H1096  H     0.34112   0.07324   0.96734   0.00000  Uiso   1.00
N1097  N     0.38093   0.16668   0.75001   0.00000  Uiso   1.00
N1098  N     0.61907   0.16666   0.74999   0.00000  Uiso   1.00
O1099  O     0.46179   0.22775   0.75001   0.00000  Uiso   1.00
O1100  O     0.62898   0.11899   0.95829   0.00000  Uiso   1.00
O1101  O     0.60007   0.21493   0.60078   0.00000  Uiso   1.00
O1102  O     0.37356   0.14736   0.88654   0.00000  Uiso   1.00
O1103  O     0.35911   0.17290   0.97949   0.00000  Uiso   1.00
O1104  O     0.61366   0.20837   0.50627   0.00000  Uiso   1.00
O1105  O     0.42784   0.18181   0.60802   0.00000  Uiso   1.00
O1106  O     0.60478   0.08662   0.88647   0.00000  Uiso   1.00
O1107  O     0.53231   0.29927   0.85160   0.00000  Uiso   1.00
O1108  O     0.47728   0.03648   0.64356   0.00000  Uiso   1.00
O1109  O     0.47305   0.03562   0.87075   0.00000  Uiso   1.00
O1110  O     0.53821   0.10558   0.75000   0.00000  Uiso   1.00
O1111  O     0.51758   0.26070   0.65282   0.00000  Uiso   1.00
O1112  O     0.61673   0.10318   0.67906   0.00000  Uiso   1.00
O1113  O     0.38236   0.22962   0.82197   0.00000  Uiso   1.00
O1114  O     0.53823   0.22774   0.75000   0.00000  Uiso   1.00
O1115  O     0.46177   0.10559   0.75000   0.00000  Uiso   1.00
O1116  O     0.43994   0.16667   0.81613   0.00000  Uiso   1.00
O1117  O     0.56006   0.16666   0.68388   0.00000  Uiso   1.00
O1118  O     0.51639   0.16666   0.81612   0.00000  Uiso   1.00
O1119  O     0.48361   0.16667   0.68388   0.00000  Uiso   1.00
O1120  O     0.35906   0.11935   0.54948   0.00000  Uiso   1.00
Zn1121 Zn    0.44896   0.16667   0.75000   0.00000  Uiso   1.00
Zn1122 Zn    0.55104   0.16666   0.75000   0.00000  Uiso   1.00
C1123  C     0.83285   0.24624   0.75028   0.00000  Uiso   1.00
C1124  C     0.82741   0.31167   0.71220   0.00000  Uiso   1.00
C1125  C     0.83432   0.04276   0.75029   0.00000  Uiso   1.00
C1126  C     0.83162   0.29063   0.75102   0.00000  Uiso   1.00
C1127  C     0.98413   0.13450   0.72975   0.00000  Uiso   1.00
C1128  C     0.68255   0.19879   0.77030   0.00000  Uiso   1.00
C1129  C     0.69788   0.13462   0.73037   0.00000  Uiso   1.00
C1130  C     0.96881   0.19871   0.76965   0.00000  Uiso   1.00
C1131  C     0.80459   0.16257   0.83701   0.00000  Uiso   1.00
C1132  C     0.86190   0.16588   0.66276   0.00000  Uiso   1.00
C1133  C     0.78801   0.14855   0.88507   0.00000  Uiso   1.00
C1134  C     0.83352   0.08712   0.75050   0.00000  Uiso   1.00
C1135  C     0.87618   0.16074   0.61310   0.00000  Uiso   1.00
C1136  C     0.72589   0.14369   0.95636   0.00000  Uiso   1.00
C1137  C     0.92256   0.17811   0.53566   0.00000  Uiso   1.00
C1138  C     0.74019   0.14341   0.90840   0.00000  Uiso   1.00
C1139  C     0.91316   0.18308   0.58345   0.00000  Uiso   1.00
C1140  C     0.81975   0.13940   0.90834   0.00000  Uiso   1.00
C1141  C     0.84694   0.13751   0.59524   0.00000  Uiso   1.00
C1142  C     0.80413   0.12581   0.95455   0.00000  Uiso   1.00
C1143  C     0.85417   0.13649   0.54815   0.00000  Uiso   1.00
C1144  C     0.75604   0.12784   0.97889   0.00000  Uiso   1.00
C1145  C     0.77076   0.12891   0.55165   0.00000  Uiso   1.00
C1146  C     0.89795   0.14824   0.51934   0.00000  Uiso   1.00
C1147  C     0.83555   0.11916   0.97919   0.00000  Uiso   1.00
C1148  C     0.81979   0.12648   0.52776   0.00000  Uiso   1.00
C1149  C     0.68356   0.07842   0.56704   0.00000  Uiso   1.00
C1150  C     0.96983   0.08022   0.97744   0.00000  Uiso   1.00
C1151  C     0.97697   0.20064   0.60287   0.00000  Uiso   1.00
C1152  C     0.70624   0.10919   0.86279   0.00000  Uiso   1.00
C1153  C     0.71359   0.21288   0.97409   0.00000  Uiso   1.00
C1154  C     0.91526   0.23837   0.99903   0.00000  Uiso   1.00
C1155  C     0.74959   0.14733   0.59855   0.00000  Uiso   1.00
C1156  C     0.88361   0.11195   0.95615   0.00000  Uiso   1.00
C1157  C     0.89893   0.08484   0.91407   0.00000  Uiso   1.00
C1158  C     0.84067   0.28721   0.82988   0.00000  Uiso   1.00
C1159  C     0.83306   0.04600   0.66874   0.00000  Uiso   1.00
C1160  C     0.83199   0.04642   0.83307   0.00000  Uiso   1.00
C1161  C     0.82258   0.28809   0.67199   0.00000  Uiso   1.00
C1162  C     0.97161   0.09845   0.70615   0.00000  Uiso   1.00
C1163  C     0.69517   0.23468   0.79403   0.00000  Uiso   1.00
C1164  C     0.73981   0.12232   0.52681   0.00000  Uiso   1.00
C1165  C     0.91541   0.12900   0.97581   0.00000  Uiso   1.00
C1166  C     0.83560   0.31157   0.79016   0.00000  Uiso   1.00
C1167  C     0.83039   0.02184   0.71116   0.00000  Uiso   1.00
C1168  C     0.83497   0.02198   0.79050   0.00000  Uiso   1.00
H1169  H     0.81806   0.12099   0.61838   0.00000  Uiso   1.00
H1170  H     0.95395   0.05397   0.96410   0.00000  Uiso   1.00
H1171  H     0.97462   0.17017   0.62089   0.00000  Uiso   1.00
H1172  H     0.98992   0.22395   0.62264   0.00000  Uiso   1.00
H1173  H     0.66951   0.19810   0.56793   0.00000  Uiso   1.00
H1174  H     0.69016   0.08400   0.88707   0.00000  Uiso   1.00
H1175  H     0.74145   0.09762   0.84129   0.00000  Uiso   1.00
H1176  H     0.68552   0.11428   0.83920   0.00000  Uiso   1.00
H1177  H     0.72015   0.22447   0.93843   0.00000  Uiso   1.00
H1178  H     0.74660   0.21261   0.98289   0.00000  Uiso   1.00
H1179  H     0.69002   0.23610   0.99783   0.00000  Uiso   1.00
H1180  H     0.85628   0.14492   0.89087   0.00000  Uiso   1.00
H1181  H     0.89329   0.22441   0.97995   0.00000  Uiso   1.00
H1182  H     0.93543   0.26382   0.97758   0.00000  Uiso   1.00
H1183  H     0.89286   0.25282   0.53213   0.00000  Uiso   1.00
H1184  H     0.72161   0.13160   0.62405   0.00000  Uiso   1.00
H1185  H     0.87443   0.06354   0.90705   0.00000  Uiso   1.00
H1186  H     0.82339   0.25748   0.83893   0.00000  Uiso   1.00
H1187  H     0.85467   0.07344   0.66047   0.00000  Uiso   1.00
H1188  H     0.85126   0.07506   0.83090   0.00000  Uiso   1.00
H1189  H     0.79398   0.29535   0.65900   0.00000  Uiso   1.00
H1190  H     0.98467   0.06731   0.71033   0.00000  Uiso   1.00
H1191  H     0.72169   0.10906   0.71417   0.00000  Uiso   1.00
H1192  H     0.68309   0.26601   0.78912   0.00000  Uiso   1.00
H1193  H     0.94503   0.22430   0.78584   0.00000  Uiso   1.00
H1194  H     0.69372   0.05450   0.53876   0.00000  Uiso   1.00
H1195  H     0.97891   0.07586   0.58516   0.00000  Uiso   1.00
H1196  H     0.70174   0.07126   0.59250   0.00000  Uiso   1.00
H1197  H     0.95601   0.08095   0.51575   0.00000  Uiso   1.00
H1198  H     0.67445   0.07324   0.96734   0.00000  Uiso   1.00
N1199  N     0.71426   0.16668   0.75001   0.00000  Uiso   1.00
N1200  N     0.95241   0.16666   0.74999   0.00000  Uiso   1.00
O1201  O     0.79512   0.22775   0.75001   0.00000  Uiso   1.00
O1202  O     0.96231   0.11899   0.95829   0.00000  Uiso   1.00
O1203  O     0.93340   0.21493   0.60078   0.00000  Uiso   1.00
O1204  O     0.70689   0.14736   0.88654   0.00000  Uiso   1.00
O1205  O     0.69244   0.17290   0.97949   0.00000  Uiso   1.00
O1206  O     0.94700   0.20837   0.50627   0.00000  Uiso   1.00
O1207  O     0.76117   0.18181   0.60802   0.00000  Uiso   1.00
O1208  O     0.93811   0.08662   0.88647   0.00000  Uiso   1.00
O1209  O     0.86564   0.29927   0.85160   0.00000  Uiso   1.00
O1210  O     0.81061   0.03648   0.64356   0.00000  Uiso   1.00
O1211  O     0.80638   0.03562   0.87075   0.00000  Uiso   1.00
O1212  O     0.87154   0.10558   0.75000   0.00000  Uiso   1.00
O1213  O     0.85091   0.26070   0.65282   0.00000  Uiso   1.00
O1214  O     0.95006   0.10318   0.67906   0.00000  Uiso   1.00
O1215  O     0.71569   0.22962   0.82197   0.00000  Uiso   1.00
O1216  O     0.87157   0.22774   0.75000   0.00000  Uiso   1.00
O1217  O     0.79510   0.10559   0.75000   0.00000  Uiso   1.00
O1218  O     0.77328   0.16667   0.81613   0.00000  Uiso   1.00
O1219  O     0.89339   0.16666   0.68388   0.00000  Uiso   1.00
O1220  O     0.84972   0.16666   0.81612   0.00000  Uiso   1.00
O1221  O     0.81695   0.16667   0.68388   0.00000  Uiso   1.00
O1222  O     0.69239   0.11935   0.54948   0.00000  Uiso   1.00
Zn1223 Zn    0.78229   0.16667   0.75000   0.00000  Uiso   1.00
Zn1224 Zn    0.88438   0.16666   0.75000   0.00000  Uiso   1.00
C1225  C     0.16619   0.57958   0.75028   0.00000  Uiso   1.00
C1226  C     0.16074   0.64501   0.71220   0.00000  Uiso   1.00
C1227  C     0.16765   0.37609   0.75029   0.00000  Uiso   1.00
C1228  C     0.16495   0.62397   0.75102   0.00000  Uiso   1.00
C1229  C     0.31746   0.46783   0.72975   0.00000  Uiso   1.00
C1230  C     0.01589   0.53213   0.77030   0.00000  Uiso   1.00
C1231  C     0.03122   0.46795   0.73037   0.00000  Uiso   1.00
C1232  C     0.30214   0.53204   0.76965   0.00000  Uiso   1.00
C1233  C     0.13792   0.49591   0.83701   0.00000  Uiso   1.00
C1234  C     0.19523   0.49921   0.66276   0.00000  Uiso   1.00
C1235  C     0.12134   0.48188   0.88507   0.00000  Uiso   1.00
C1236  C     0.16686   0.42045   0.75050   0.00000  Uiso   1.00
C1237  C     0.20951   0.49408   0.61310   0.00000  Uiso   1.00
C1238  C     0.05923   0.47702   0.95636   0.00000  Uiso   1.00
C1239  C     0.25589   0.51144   0.53566   0.00000  Uiso   1.00
C1240  C     0.07352   0.47674   0.90840   0.00000  Uiso   1.00
C1241  C     0.24650   0.51642   0.58345   0.00000  Uiso   1.00
C1242  C     0.15308   0.47274   0.90834   0.00000  Uiso   1.00
C1243  C     0.18027   0.47084   0.59524   0.00000  Uiso   1.00
C1244  C     0.13746   0.45914   0.95455   0.00000  Uiso   1.00
C1245  C     0.18750   0.46982   0.54815   0.00000  Uiso   1.00
C1246  C     0.08937   0.46118   0.97889   0.00000  Uiso   1.00
C1247  C     0.10410   0.46224   0.55165   0.00000  Uiso   1.00
C1248  C     0.23128   0.48158   0.51934   0.00000  Uiso   1.00
C1249  C     0.16889   0.45249   0.97919   0.00000  Uiso   1.00
C1250  C     0.15312   0.45982   0.52776   0.00000  Uiso   1.00
C1251  C     0.01690   0.41175   0.56704   0.00000  Uiso   1.00
C1252  C     0.30316   0.41356   0.97744   0.00000  Uiso   1.00
C1253  C     0.31031   0.53397   0.60287   0.00000  Uiso   1.00
C1254  C     0.03957   0.44253   0.86279   0.00000  Uiso   1.00
C1255  C     0.04692   0.54622   0.97409   0.00000  Uiso   1.00
C1256  C     0.24859   0.57170   0.99903   0.00000  Uiso   1.00
C1257  C     0.08292   0.48066   0.59855   0.00000  Uiso   1.00
C1258  C     0.21694   0.44528   0.95615   0.00000  Uiso   1.00
C1259  C     0.23226   0.41818   0.91407   0.00000  Uiso   1.00
C1260  C     0.17400   0.62055   0.82988   0.00000  Uiso   1.00
C1261  C     0.16639   0.37933   0.66874   0.00000  Uiso   1.00
C1262  C     0.16533   0.37975   0.83307   0.00000  Uiso   1.00
C1263  C     0.15591   0.62143   0.67199   0.00000  Uiso   1.00
C1264  C     0.30495   0.43178   0.70615   0.00000  Uiso   1.00
C1265  C     0.02850   0.56801   0.79403   0.00000  Uiso   1.00
C1266  C     0.07314   0.45565   0.52681   0.00000  Uiso   1.00
C1267  C     0.24875   0.46233   0.97581   0.00000  Uiso   1.00
C1268  C     0.16894   0.64490   0.79016   0.00000  Uiso   1.00
C1269  C     0.16372   0.35518   0.71116   0.00000  Uiso   1.00
C1270  C     0.16830   0.35531   0.79050   0.00000  Uiso   1.00
H1271  H     0.15139   0.45432   0.61838   0.00000  Uiso   1.00
H1272  H     0.28728   0.38730   0.96410   0.00000  Uiso   1.00
H1273  H     0.30796   0.50350   0.62089   0.00000  Uiso   1.00
H1274  H     0.32326   0.55728   0.62264   0.00000  Uiso   1.00
H1275  H     0.00285   0.53143   0.56793   0.00000  Uiso   1.00
H1276  H     0.02349   0.41734   0.88707   0.00000  Uiso   1.00
H1277  H     0.07478   0.43095   0.84129   0.00000  Uiso   1.00
H1278  H     0.01886   0.44761   0.83920   0.00000  Uiso   1.00
H1279  H     0.05348   0.55780   0.93843   0.00000  Uiso   1.00
H1280  H     0.07993   0.54595   0.98289   0.00000  Uiso   1.00
H1281  H     0.02336   0.56943   0.99783   0.00000  Uiso   1.00
H1282  H     0.18961   0.47825   0.89087   0.00000  Uiso   1.00
H1283  H     0.22662   0.55775   0.97995   0.00000  Uiso   1.00
H1284  H     0.26876   0.59716   0.97758   0.00000  Uiso   1.00
H1285  H     0.22619   0.58615   0.53213   0.00000  Uiso   1.00
H1286  H     0.05494   0.46494   0.62405   0.00000  Uiso   1.00
H1287  H     0.20777   0.39688   0.90705   0.00000  Uiso   1.00
H1288  H     0.15672   0.59081   0.83893   0.00000  Uiso   1.00
H1289  H     0.18800   0.40677   0.66047   0.00000  Uiso   1.00
H1290  H     0.18460   0.40840   0.83090   0.00000  Uiso   1.00
H1291  H     0.12731   0.62869   0.65900   0.00000  Uiso   1.00
H1292  H     0.31801   0.40064   0.71033   0.00000  Uiso   1.00
H1293  H     0.05502   0.44239   0.71417   0.00000  Uiso   1.00
H1294  H     0.01643   0.59935   0.78912   0.00000  Uiso   1.00
H1295  H     0.27837   0.55763   0.78584   0.00000  Uiso   1.00
H1296  H     0.02705   0.38783   0.53876   0.00000  Uiso   1.00
H1297  H     0.31224   0.40919   0.58516   0.00000  Uiso   1.00
H1298  H     0.03508   0.40459   0.59250   0.00000  Uiso   1.00
H1299  H     0.28934   0.41429   0.51575   0.00000  Uiso   1.00
H1300  H     0.00779   0.40657   0.96734   0.00000  Uiso   1.00
N1301  N     0.04759   0.50001   0.75001   0.00000  Uiso   1.00
N1302  N     0.28574   0.49999   0.74999   0.00000  Uiso   1.00
O1303  O     0.12846   0.56108   0.75001   0.00000  Uiso   1.00
O1304  O     0.29565   0.45233   0.95829   0.00000  Uiso   1.00
O1305  O     0.26674   0.54827   0.60078   0.00000  Uiso   1.00
O1306  O     0.04022   0.48069   0.88654   0.00000  Uiso   1.00
O1307  O     0.02577   0.50623   0.97949   0.00000  Uiso   1.00
O1308  O     0.28033   0.54170   0.50627   0.00000  Uiso   1.00
O1309  O     0.09451   0.51515   0.60802   0.00000  Uiso   1.00
O1310  O     0.27144   0.41995   0.88647   0.00000  Uiso   1.00
O1311  O     0.19897   0.63260   0.85160   0.00000  Uiso   1.00
O1312  O     0.14394   0.36981   0.64356   0.00000  Uiso   1.00
O1313  O     0.13971   0.36895   0.87075   0.00000  Uiso   1.00
O1314  O     0.20488   0.43892   0.75000   0.00000  Uiso   1.00
O1315  O     0.18425   0.59403   0.65282   0.00000  Uiso   1.00
O1316  O     0.28339   0.43651   0.67906   0.00000  Uiso   1.00
O1317  O     0.04902   0.56295   0.82197   0.00000  Uiso   1.00
O1318  O     0.20490   0.56107   0.75000   0.00000  Uiso   1.00
O1319  O     0.12843   0.43893   0.75000   0.00000  Uiso   1.00
O1320  O     0.10661   0.50001   0.81613   0.00000  Uiso   1.00
O1321  O     0.22672   0.49999   0.68388   0.00000  Uiso   1.00
O1322  O     0.18305   0.50000   0.81612   0.00000  Uiso   1.00
O1323  O     0.15028   0.50000   0.68388   0.00000  Uiso   1.00
O1324  O     0.02572   0.45268   0.54948   0.00000  Uiso   1.00
Zn1325 Zn    0.11562   0.50001   0.75000   0.00000  Uiso   1.00
Zn1326 Zn    0.21771   0.49999   0.75000   0.00000  Uiso   1.00
C1327  C     0.49952   0.57958   0.75028   0.00000  Uiso   1.00
C1328  C     0.49407   0.64501   0.71220   0.00000  Uiso   1.00
C1329  C     0.50099   0.37609   0.75029   0.00000  Uiso   1.00
C1330  C     0.49828   0.62397   0.75102   0.00000  Uiso   1.00
C1331  C     0.65080   0.46783   0.72975   0.00000  Uiso   1.00
C1332  C     0.34922   0.53213   0.77030   0.00000  Uiso   1.00
C1333  C     0.36455   0.46795   0.73037   0.00000  Uiso   1.00
C1334  C     0.63547   0.53204   0.76965   0.00000  Uiso   1.00
C1335  C     0.47126   0.49591   0.83701   0.00000  Uiso   1.00
C1336  C     0.52857   0.49921   0.66276   0.00000  Uiso   1.00
C1337  C     0.45468   0.48188   0.88507   0.00000  Uiso   1.00
C1338  C     0.50019   0.42045   0.75050   0.00000  Uiso   1.00
C1339  C     0.54284   0.49408   0.61310   0.00000  Uiso   1.00
C1340  C     0.39256   0.47702   0.95636   0.00000  Uiso   1.00
C1341  C     0.58923   0.51144   0.53566   0.00000  Uiso   1.00
C1342  C     0.40686   0.47674   0.90840   0.00000  Uiso   1.00
C1343  C     0.57983   0.51642   0.58345   0.00000  Uiso   1.00
C1344  C     0.48642   0.47274   0.90834   0.00000  Uiso   1.00
C1345  C     0.51361   0.47084   0.59524   0.00000  Uiso   1.00
C1346  C     0.47079   0.45914   0.95455   0.00000  Uiso   1.00
C1347  C     0.52084   0.46982   0.54815   0.00000  Uiso   1.00
C1348  C     0.42271   0.46118   0.97889   0.00000  Uiso   1.00
C1349  C     0.43743   0.46224   0.55165   0.00000  Uiso   1.00
C1350  C     0.56462   0.48158   0.51934   0.00000  Uiso   1.00
C1351  C     0.50222   0.45249   0.97919   0.00000  Uiso   1.00
C1352  C     0.48646   0.45982   0.52776   0.00000  Uiso   1.00
C1353  C     0.35023   0.41175   0.56704   0.00000  Uiso   1.00
C1354  C     0.63650   0.41356   0.97744   0.00000  Uiso   1.00
C1355  C     0.64364   0.53397   0.60287   0.00000  Uiso   1.00
C1356  C     0.37290   0.44253   0.86279   0.00000  Uiso   1.00
C1357  C     0.38026   0.54622   0.97409   0.00000  Uiso   1.00
C1358  C     0.58192   0.57170   0.99903   0.00000  Uiso   1.00
C1359  C     0.41625   0.48066   0.59855   0.00000  Uiso   1.00
C1360  C     0.55027   0.44528   0.95615   0.00000  Uiso   1.00
C1361  C     0.56560   0.41818   0.91407   0.00000  Uiso   1.00
C1362  C     0.50733   0.62055   0.82988   0.00000  Uiso   1.00
C1363  C     0.49973   0.37933   0.66874   0.00000  Uiso   1.00
C1364  C     0.49866   0.37975   0.83307   0.00000  Uiso   1.00
C1365  C     0.48924   0.62143   0.67199   0.00000  Uiso   1.00
C1366  C     0.63828   0.43178   0.70615   0.00000  Uiso   1.00
C1367  C     0.36183   0.56801   0.79403   0.00000  Uiso   1.00
C1368  C     0.40647   0.45565   0.52681   0.00000  Uiso   1.00
C1369  C     0.58208   0.46233   0.97581   0.00000  Uiso   1.00
C1370  C     0.50227   0.64490   0.79016   0.00000  Uiso   1.00
C1371  C     0.49706   0.35518   0.71116   0.00000  Uiso   1.00
C1372  C     0.50164   0.35531   0.79050   0.00000  Uiso   1.00
H1373  H     0.48473   0.45432   0.61838   0.00000  Uiso   1.00
H1374  H     0.62061   0.38730   0.96410   0.00000  Uiso   1.00
H1375  H     0.64129   0.50350   0.62089   0.00000  Uiso   1.00
H1376  H     0.65659   0.55728   0.62264   0.00000  Uiso   1.00
H1377  H     0.33618   0.53143   0.56793   0.00000  Uiso   1.00
H1378  H     0.35683   0.41734   0.88707   0.00000  Uiso   1.00
H1379  H     0.40811   0.43095   0.84129   0.00000  Uiso   1.00
H1380  H     0.35219   0.44761   0.83920   0.00000  Uiso   1.00
H1381  H     0.38682   0.55780   0.93843   0.00000  Uiso   1.00
H1382  H     0.41326   0.54595   0.98289   0.00000  Uiso   1.00
H1383  H     0.35669   0.56943   0.99783   0.00000  Uiso   1.00
H1384  H     0.52294   0.47825   0.89087   0.00000  Uiso   1.00
H1385  H     0.55995   0.55775   0.97995   0.00000  Uiso   1.00
H1386  H     0.60210   0.59716   0.97758   0.00000  Uiso   1.00
H1387  H     0.55953   0.58615   0.53213   0.00000  Uiso   1.00
H1388  H     0.38827   0.46494   0.62405   0.00000  Uiso   1.00
H1389  H     0.54110   0.39688   0.90705   0.00000  Uiso   1.00
H1390  H     0.49005   0.59081   0.83893   0.00000  Uiso   1.00
H1391  H     0.52133   0.40677   0.66047   0.00000  Uiso   1.00
H1392  H     0.51793   0.40840   0.83090   0.00000  Uiso   1.00
H1393  H     0.46064   0.62869   0.65900   0.00000  Uiso   1.00
H1394  H     0.65134   0.40064   0.71033   0.00000  Uiso   1.00
H1395  H     0.38836   0.44239   0.71417   0.00000  Uiso   1.00
H1396  H     0.34976   0.59935   0.78912   0.00000  Uiso   1.00
H1397  H     0.61170   0.55763   0.78584   0.00000  Uiso   1.00
H1398  H     0.36038   0.38783   0.53876   0.00000  Uiso   1.00
H1399  H     0.64557   0.40919   0.58516   0.00000  Uiso   1.00
H1400  H     0.36841   0.40459   0.59250   0.00000  Uiso   1.00
H1401  H     0.62267   0.41429   0.51575   0.00000  Uiso   1.00
H1402  H     0.34112   0.40657   0.96734   0.00000  Uiso   1.00
N1403  N     0.38093   0.50001   0.75001   0.00000  Uiso   1.00
N1404  N     0.61907   0.49999   0.74999   0.00000  Uiso   1.00
O1405  O     0.46179   0.56108   0.75001   0.00000  Uiso   1.00
O1406  O     0.62898   0.45233   0.95829   0.00000  Uiso   1.00
O1407  O     0.60007   0.54827   0.60078   0.00000  Uiso   1.00
O1408  O     0.37356   0.48069   0.88654   0.00000  Uiso   1.00
O1409  O     0.35911   0.50623   0.97949   0.00000  Uiso   1.00
O1410  O     0.61366   0.54170   0.50627   0.00000  Uiso   1.00
O1411  O     0.42784   0.51515   0.60802   0.00000  Uiso   1.00
O1412  O     0.60478   0.41995   0.88647   0.00000  Uiso   1.00
O1413  O     0.53231   0.63260   0.85160   0.00000  Uiso   1.00
O1414  O     0.47728   0.36981   0.64356   0.00000  Uiso   1.00
O1415  O     0.47305   0.36895   0.87075   0.00000  Uiso   1.00
O1416  O     0.53821   0.43892   0.75000   0.00000  Uiso   1.00
O1417  O     0.51758   0.59403   0.65282   0.00000  Uiso   1.00
O1418  O     0.61673   0.43651   0.67906   0.00000  Uiso   1.00
O1419  O     0.38236   0.56295   0.82197   0.00000  Uiso   1.00
O1420  O     0.53823   0.56107   0.75000   0.00000  Uiso   1.00
O1421  O     0.46177   0.43893   0.75000   0.00000  Uiso   1.00
O1422  O     0.43994   0.50001   0.81613   0.00000  Uiso   1.00
O1423  O     0.56006   0.49999   0.68388   0.00000  Uiso   1.00
O1424  O     0.51639   0.50000   0.81612   0.00000  Uiso   1.00
O1425  O     0.48361   0.50000   0.68388   0.00000  Uiso   1.00
O1426  O     0.35906   0.45268   0.54948   0.00000  Uiso   1.00
Zn1427 Zn    0.44896   0.50001   0.75000   0.00000  Uiso   1.00
Zn1428 Zn    0.55104   0.49999   0.75000   0.00000  Uiso   1.00
C1429  C     0.83285   0.57958   0.75028   0.00000  Uiso   1.00
C1430  C     0.82741   0.64501   0.71220   0.00000  Uiso   1.00
C1431  C     0.83432   0.37609   0.75029   0.00000  Uiso   1.00
C1432  C     0.83162   0.62397   0.75102   0.00000  Uiso   1.00
C1433  C     0.98413   0.46783   0.72975   0.00000  Uiso   1.00
C1434  C     0.68255   0.53213   0.77030   0.00000  Uiso   1.00
C1435  C     0.69788   0.46795   0.73037   0.00000  Uiso   1.00
C1436  C     0.96881   0.53204   0.76965   0.00000  Uiso   1.00
C1437  C     0.80459   0.49591   0.83701   0.00000  Uiso   1.00
C1438  C     0.86190   0.49921   0.66276   0.00000  Uiso   1.00
C1439  C     0.78801   0.48188   0.88507   0.00000  Uiso   1.00
C1440  C     0.83352   0.42045   0.75050   0.00000  Uiso   1.00
C1441  C     0.87618   0.49408   0.61310   0.00000  Uiso   1.00
C1442  C     0.72589   0.47702   0.95636   0.00000  Uiso   1.00
C1443  C     0.92256   0.51144   0.53566   0.00000  Uiso   1.00
C1444  C     0.74019   0.47674   0.90840   0.00000  Uiso   1.00
C1445  C     0.91316   0.51642   0.58345   0.00000  Uiso   1.00
C1446  C     0.81975   0.47274   0.90834   0.00000  Uiso   1.00
C1447  C     0.84694   0.47084   0.59524   0.00000  Uiso   1.00
C1448  C     0.80413   0.45914   0.95455   0.00000  Uiso   1.00
C1449  C     0.85417   0.46982   0.54815   0.00000  Uiso   1.00
C1450  C     0.75604   0.46118   0.97889   0.00000  Uiso   1.00
C1451  C     0.77076   0.46224   0.55165   0.00000  Uiso   1.00
C1452  C     0.89795   0.48158   0.51934   0.00000  Uiso   1.00
C1453  C     0.83555   0.45249   0.97919   0.00000  Uiso   1.00
C1454  C     0.81979   0.45982   0.52776   0.00000  Uiso   1.00
C1455  C     0.68356   0.41175   0.56704   0.00000  Uiso   1.00
C1456  C     0.96983   0.41356   0.97744   0.00000  Uiso   1.00
C1457  C     0.97697   0.53397   0.60287   0.00000  Uiso   1.00
C1458  C     0.70624   0.44253   0.86279   0.00000  Uiso   1.00
C1459  C     0.71359   0.54622   0.97409   0.00000  Uiso   1.00
C1460  C     0.91526   0.57170   0.99903   0.00000  Uiso   1.00
C1461  C     0.74959   0.48066   0.59855   0.00000  Uiso   1.00
C1462  C     0.88361   0.44528   0.95615   0.00000  Uiso   1.00
C1463  C     0.89893   0.41818   0.91407   0.00000  Uiso   1.00
C1464  C     0.84067   0.62055   0.82988   0.00000  Uiso   1.00
C1465  C     0.83306   0.37933   0.66874   0.00000  Uiso   1.00
C1466  C     0.83199   0.37975   0.83307   0.00000  Uiso   1.00
C1467  C     0.82258   0.62143   0.67199   0.00000  Uiso   1.00
C1468  C     0.97161   0.43178   0.70615   0.00000  Uiso   1.00
C1469  C     0.69517   0.56801   0.79403   0.00000  Uiso   1.00
C1470  C     0.73981   0.45565   0.52681   0.00000  Uiso   1.00
C1471  C     0.91541   0.46233   0.97581   0.00000  Uiso   1.00
C1472  C     0.83560   0.64490   0.79016   0.00000  Uiso   1.00
C1473  C     0.83039   0.35518   0.71116   0.00000  Uiso   1.00
C1474  C     0.83497   0.35531   0.79050   0.00000  Uiso   1.00
H1475  H     0.81806   0.45432   0.61838   0.00000  Uiso   1.00
H1476  H     0.95395   0.38730   0.96410   0.00000  Uiso   1.00
H1477  H     0.97462   0.50350   0.62089   0.00000  Uiso   1.00
H1478  H     0.98992   0.55728   0.62264   0.00000  Uiso   1.00
H1479  H     0.66951   0.53143   0.56793   0.00000  Uiso   1.00
H1480  H     0.69016   0.41734   0.88707   0.00000  Uiso   1.00
H1481  H     0.74145   0.43095   0.84129   0.00000  Uiso   1.00
H1482  H     0.68552   0.44761   0.83920   0.00000  Uiso   1.00
H1483  H     0.72015   0.55780   0.93843   0.00000  Uiso   1.00
H1484  H     0.74660   0.54595   0.98289   0.00000  Uiso   1.00
H1485  H     0.69002   0.56943   0.99783   0.00000  Uiso   1.00
H1486  H     0.85628   0.47825   0.89087   0.00000  Uiso   1.00
H1487  H     0.89329   0.55775   0.97995   0.00000  Uiso   1.00
H1488  H     0.93543   0.59716   0.97758   0.00000  Uiso   1.00
H1489  H     0.89286   0.58615   0.53213   0.00000  Uiso   1.00
H1490  H     0.72161   0.46494   0.62405   0.00000  Uiso   1.00
H1491  H     0.87443   0.39688   0.90705   0.00000  Uiso   1.00
H1492  H     0.82339   0.59081   0.83893   0.00000  Uiso   1.00
H1493  H     0.85467   0.40677   0.66047   0.00000  Uiso   1.00
H1494  H     0.85126   0.40840   0.83090   0.00000  Uiso   1.00
H1495  H     0.79398   0.62869   0.65900   0.00000  Uiso   1.00
H1496  H     0.98467   0.40064   0.71033   0.00000  Uiso   1.00
H1497  H     0.72169   0.44239   0.71417   0.00000  Uiso   1.00
H1498  H     0.68309   0.59935   0.78912   0.00000  Uiso   1.00
H1499  H     0.94503   0.55763   0.78584   0.00000  Uiso   1.00
H1500  H     0.69372   0.38783   0.53876   0.00000  Uiso   1.00
H1501  H     0.97891   0.40919   0.58516   0.00000  Uiso   1.00
H1502  H     0.70174   0.40459   0.59250   0.00000  Uiso   1.00
H1503  H     0.95601   0.41429   0.51575   0.00000  Uiso   1.00
H1504  H     0.67445   0.40657   0.96734   0.00000  Uiso   1.00
N1505  N     0.71426   0.50001   0.75001   0.00000  Uiso   1.00
N1506  N     0.95241   0.49999   0.74999   0.00000  Uiso   1.00
O1507  O     0.79512   0.56108   0.75001   0.00000  Uiso   1.00
O1508  O     0.96231   0.45233   0.95829   0.00000  Uiso   1.00
O1509  O     0.93340   0.54827   0.60078   0.00000  Uiso   1.00
O1510  O     0.70689   0.48069   0.88654   0.00000  Uiso   1.00
O1511  O     0.69244   0.50623   0.97949   0.00000  Uiso   1.00
O1512  O     0.94700   0.54170   0.50627   0.00000  Uiso   1.00
O1513  O     0.76117   0.51515   0.60802   0.00000  Uiso   1.00
O1514  O     0.93811   0.41995   0.88647   0.00000  Uiso   1.00
O1515  O     0.86564   0.63260   0.85160   0.00000  Uiso   1.00
O1516  O     0.81061   0.36981   0.64356   0.00000  Uiso   1.00
O1517  O     0.80638   0.36895   0.87075   0.00000  Uiso   1.00
O1518  O     0.87154   0.43892   0.75000   0.00000  Uiso   1.00
O1519  O     0.85091   0.59403   0.65282   0.00000  Uiso   1.00
O1520  O     0.95006   0.43651   0.67906   0.00000  Uiso   1.00
O1521  O     0.71569   0.56295   0.82197   0.00000  Uiso   1.00
O1522  O     0.87157   0.56107   0.75000   0.00000  Uiso   1.00
O1523  O     0.79510   0.43893   0.75000   0.00000  Uiso   1.00
O1524  O     0.77328   0.50001   0.81613   0.00000  Uiso   1.00
O1525  O     0.89339   0.49999   0.68388   0.00000  Uiso   1.00
O1526  O     0.84972   0.50000   0.81612   0.00000  Uiso   1.00
O1527  O     0.81695   0.50000   0.68388   0.00000  Uiso   1.00
O1528  O     0.69239   0.45268   0.54948   0.00000  Uiso   1.00
Zn1529 Zn    0.78229   0.50001   0.75000   0.00000  Uiso   1.00
Zn1530 Zn    0.88438   0.49999   0.75000   0.00000  Uiso   1.00
C1531  C     0.16619   0.91291   0.75028   0.00000  Uiso   1.00
C1532  C     0.16074   0.97834   0.71220   0.00000  Uiso   1.00
C1533  C     0.16765   0.70942   0.75029   0.00000  Uiso   1.00
C1534  C     0.16495   0.95730   0.75102   0.00000  Uiso   1.00
C1535  C     0.31746   0.80116   0.72975   0.00000  Uiso   1.00
C1536  C     0.01589   0.86546   0.77030   0.00000  Uiso   1.00
C1537  C     0.03122   0.80129   0.73037   0.00000  Uiso   1.00
C1538  C     0.30214   0.86538   0.76965   0.00000  Uiso   1.00
C1539  C     0.13792   0.82924   0.83701   0.00000  Uiso   1.00
C1540  C     0.19523   0.83255   0.66276   0.00000  Uiso   1.00
C1541  C     0.12134   0.81522   0.88507   0.00000  Uiso   1.00
C1542  C     0.16686   0.75379   0.75050   0.00000  Uiso   1.00
C1543  C     0.20951   0.82741   0.61310   0.00000  Uiso   1.00
C1544  C     0.05923   0.81036   0.95636   0.00000  Uiso   1.00
C1545  C     0.25589   0.84478   0.53566   0.00000  Uiso   1.00
C1546  C     0.07352   0.81007   0.90840   0.00000  Uiso   1.00
C1547  C     0.24650   0.84975   0.58345   0.00000  Uiso   1.00
C1548  C     0.15308   0.80607   0.90834   0.00000  Uiso   1.00
C1549  C     0.18027   0.80417   0.59524   0.00000  Uiso   1.00
C1550  C     0.13746   0.79247   0.95455   0.00000  Uiso   1.00
C1551  C     0.18750   0.80315   0.54815   0.00000  Uiso   1.00
C1552  C     0.08937   0.79451   0.97889   0.00000  Uiso   1.00
C1553  C     0.10410   0.79558   0.55165   0.00000  Uiso   1.00
C1554  C     0.23128   0.81491   0.51934   0.00000  Uiso   1.00
C1555  C     0.16889   0.78582   0.97919   0.00000  Uiso   1.00
C1556  C     0.15312   0.79315   0.52776   0.00000  Uiso   1.00
C1557  C     0.01690   0.74509   0.56704   0.00000  Uiso   1.00
C1558  C     0.30316   0.74689   0.97744   0.00000  Uiso   1.00
C1559  C     0.31031   0.86731   0.60287   0.00000  Uiso   1.00
C1560  C     0.03957   0.77586   0.86279   0.00000  Uiso   1.00
C1561  C     0.04692   0.87955   0.97409   0.00000  Uiso   1.00
C1562  C     0.24859   0.90503   0.99903   0.00000  Uiso   1.00
C1563  C     0.08292   0.81400   0.59855   0.00000  Uiso   1.00
C1564  C     0.21694   0.77862   0.95615   0.00000  Uiso   1.00
C1565  C     0.23226   0.75151   0.91407   0.00000  Uiso   1.00
C1566  C     0.17400   0.95388   0.82988   0.00000  Uiso   1.00
C1567  C     0.16639   0.71266   0.66874   0.00000  Uiso   1.00
C1568  C     0.16533   0.71309   0.83307   0.00000  Uiso   1.00
C1569  C     0.15591   0.95476   0.67199   0.00000  Uiso   1.00
C1570  C     0.30495   0.76511   0.70615   0.00000  Uiso   1.00
C1571  C     0.02850   0.90134   0.79403   0.00000  Uiso   1.00
C1572  C     0.07314   0.78898   0.52681   0.00000  Uiso   1.00
C1573  C     0.24875   0.79567   0.97581   0.00000  Uiso   1.00
C1574  C     0.16894   0.97824   0.79016   0.00000  Uiso   1.00
C1575  C     0.16372   0.68851   0.71116   0.00000  Uiso   1.00
C1576  C     0.16830   0.68864   0.79050   0.00000  Uiso   1.00
H1577  H     0.15139   0.78766   0.61838   0.00000  Uiso   1.00
H1578  H     0.28728   0.72064   0.96410   0.00000  Uiso   1.00
H1579  H     0.30796   0.83683   0.62089   0.00000  Uiso   1.00
H1580  H     0.32326   0.89062   0.62264   0.00000  Uiso   1.00
H1581  H     0.00285   0.86477   0.56793   0.00000  Uiso   1.00
H1582  H     0.02349   0.75067   0.88707   0.00000  Uiso   1.00
H1583  H     0.07478   0.76429   0.84129   0.00000  Uiso   1.00
H1584  H     0.01886   0.78095   0.83920   0.00000  Uiso   1.00
H1585  H     0.05348   0.89114   0.93843   0.00000  Uiso   1.00
H1586  H     0.07993   0.87928   0.98289   0.00000  Uiso   1.00
H1587  H     0.02336   0.90276   0.99783   0.00000  Uiso   1.00
H1588  H     0.18961   0.81159   0.89087   0.00000  Uiso   1.00
H1589  H     0.22662   0.89108   0.97995   0.00000  Uiso   1.00
H1590  H     0.26876   0.93049   0.97758   0.00000  Uiso   1.00
H1591  H     0.22619   0.91948   0.53213   0.00000  Uiso   1.00
H1592  H     0.05494   0.79827   0.62405   0.00000  Uiso   1.00
H1593  H     0.20777   0.73021   0.90705   0.00000  Uiso   1.00
H1594  H     0.15672   0.92415   0.83893   0.00000  Uiso   1.00
H1595  H     0.18800   0.74011   0.66047   0.00000  Uiso   1.00
H1596  H     0.18460   0.74173   0.83090   0.00000  Uiso   1.00
H1597  H     0.12731   0.96202   0.65900   0.00000  Uiso   1.00
H1598  H     0.31801   0.73397   0.71033   0.00000  Uiso   1.00
H1599  H     0.05502   0.77572   0.71417   0.00000  Uiso   1.00
H1600  H     0.01643   0.93268   0.78912   0.00000  Uiso   1.00
H1601  H     0.27837   0.89096   0.78584   0.00000  Uiso   1.00
H1602  H     0.02705   0.72116   0.53876   0.00000  Uiso   1.00
H1603  H     0.31224   0.74253   0.58516   0.00000  Uiso   1.00
H1604  H     0.03508   0.73793   0.59250   0.00000  Uiso   1.00
H1605  H     0.28934   0.74762   0.51575   0.00000  Uiso   1.00
H1606  H     0.00779   0.73991   0.96734   0.00000  Uiso   1.00
N1607  N     0.04759   0.83334   0.75001   0.00000  Uiso   1.00
N1608  N     0.28574   0.83332   0.74999   0.00000  Uiso   1.00
O1609  O     0.12846   0.89442   0.75001   0.00000  Uiso   1.00
O1610  O     0.29565   0.78566   0.95829   0.00000  Uiso   1.00
O1611  O     0.26674   0.88160   0.60078   0.00000  Uiso   1.00
O1612  O     0.04022   0.81402   0.88654   0.00000  Uiso   1.00
O1613  O     0.02577   0.83957   0.97949   0.00000  Uiso   1.00
O1614  O     0.28033   0.87504   0.50627   0.00000  Uiso   1.00
O1615  O     0.09451   0.84848   0.60802   0.00000  Uiso   1.00
O1616  O     0.27144   0.75329   0.88647   0.00000  Uiso   1.00
O1617  O     0.19897   0.96593   0.85160   0.00000  Uiso   1.00
O1618  O     0.14394   0.70315   0.64356   0.00000  Uiso   1.00
O1619  O     0.13971   0.70229   0.87075   0.00000  Uiso   1.00
O1620  O     0.20488   0.77225   0.75000   0.00000  Uiso   1.00
O1621  O     0.18425   0.92737   0.65282   0.00000  Uiso   1.00
O1622  O     0.28339   0.76984   0.67906   0.00000  Uiso   1.00
O1623  O     0.04902   0.89628   0.82197   0.00000  Uiso   1.00
O1624  O     0.20490   0.89441   0.75000   0.00000  Uiso   1.00
O1625  O     0.12843   0.77226   0.75000   0.00000  Uiso   1.00
O1626  O     0.10661   0.83334   0.81613   0.00000  Uiso   1.00
O1627  O     0.22672   0.83333   0.68388   0.00000  Uiso   1.00
O1628  O     0.18305   0.83333   0.81612   0.00000  Uiso   1.00
O1629  O     0.15028   0.83334   0.68388   0.00000  Uiso   1.00
O1630  O     0.02572   0.78601   0.54948   0.00000  Uiso   1.00
Zn1631 Zn    0.11562   0.83334   0.75000   0.00000  Uiso   1.00
Zn1632 Zn    0.21771   0.83333   0.75000   0.00000  Uiso   1.00
C1633  C     0.49952   0.91291   0.75028   0.00000  Uiso   1.00
C1634  C     0.49407   0.97834   0.71220   0.00000  Uiso   1.00
C1635  C     0.50099   0.70942   0.75029   0.00000  Uiso   1.00
C1636  C     0.49828   0.95730   0.75102   0.00000  Uiso   1.00
C1637  C     0.65080   0.80116   0.72975   0.00000  Uiso   1.00
C1638  C     0.34922   0.86546   0.77030   0.00000  Uiso   1.00
C1639  C     0.36455   0.80129   0.73037   0.00000  Uiso   1.00
C1640  C     0.63547   0.86538   0.76965   0.00000  Uiso   1.00
C1641  C     0.47126   0.82924   0.83701   0.00000  Uiso   1.00
C1642  C     0.52857   0.83255   0.66276   0.00000  Uiso   1.00
C1643  C     0.45468   0.81522   0.88507   0.00000  Uiso   1.00
C1644  C     0.50019   0.75379   0.75050   0.00000  Uiso   1.00
C1645  C     0.54284   0.82741   0.61310   0.00000  Uiso   1.00
C1646  C     0.39256   0.81036   0.95636   0.00000  Uiso   1.00
C1647  C     0.58923   0.84478   0.53566   0.00000  Uiso   1.00
C1648  C     0.40686   0.81007   0.90840   0.00000  Uiso   1.00
C1649  C     0.57983   0.84975   0.58345   0.00000  Uiso   1.00
C1650  C     0.48642   0.80607   0.90834   0.00000  Uiso   1.00
C1651  C     0.51361   0.80417   0.59524   0.00000  Uiso   1.00
C1652  C     0.47079   0.79247   0.95455   0.00000  Uiso   1.00
C1653  C     0.52084   0.80315   0.54815   0.00000  Uiso   1.00
C1654  C     0.42271   0.79451   0.97889   0.00000  Uiso   1.00
C1655  C     0.43743   0.79558   0.55165   0.00000  Uiso   1.00
C1656  C     0.56462   0.81491   0.51934   0.00000  Uiso   1.00
C1657  C     0.50222   0.78582   0.97919   0.00000  Uiso   1.00
C1658  C     0.48646   0.79315   0.52776   0.00000  Uiso   1.00
C1659  C     0.35023   0.74509   0.56704   0.00000  Uiso   1.00
C1660  C     0.63650   0.74689   0.97744   0.00000  Uiso   1.00
C1661  C     0.64364   0.86731   0.60287   0.00000  Uiso   1.00
C1662  C     0.37290   0.77586   0.86279   0.00000  Uiso   1.00
C1663  C     0.38026   0.87955   0.97409   0.00000  Uiso   1.00
C1664  C     0.58192   0.90503   0.99903   0.00000  Uiso   1.00
C1665  C     0.41625   0.81400   0.59855   0.00000  Uiso   1.00
C1666  C     0.55027   0.77862   0.95615   0.00000  Uiso   1.00
C1667  C     0.56560   0.75151   0.91407   0.00000  Uiso   1.00
C1668  C     0.50733   0.95388   0.82988   0.00000  Uiso   1.00
C1669  C     0.49973   0.71266   0.66874   0.00000  Uiso   1.00
C1670  C     0.49866   0.71309   0.83307   0.00000  Uiso   1.00
C1671  C     0.48924   0.95476   0.67199   0.00000  Uiso   1.00
C1672  C     0.63828   0.76511   0.70615   0.00000  Uiso   1.00
C1673  C     0.36183   0.90134   0.79403   0.00000  Uiso   1.00
C1674  C     0.40647   0.78898   0.52681   0.00000  Uiso   1.00
C1675  C     0.58208   0.79567   0.97581   0.00000  Uiso   1.00
C1676  C     0.50227   0.97824   0.79016   0.00000  Uiso   1.00
C1677  C     0.49706   0.68851   0.71116   0.00000  Uiso   1.00
C1678  C     0.50164   0.68864   0.79050   0.00000  Uiso   1.00
H1679  H     0.48473   0.78766   0.61838   0.00000  Uiso   1.00
H1680  H     0.62061   0.72064   0.96410   0.00000  Uiso   1.00
H1681  H     0.64129   0.83683   0.62089   0.00000  Uiso   1.00
H1682  H     0.65659   0.89062   0.62264   0.00000  Uiso   1.00
H1683  H     0.33618   0.86477   0.56793   0.00000  Uiso   1.00
H1684  H     0.35683   0.75067   0.88707   0.00000  Uiso   1.00
H1685  H     0.40811   0.76429   0.84129   0.00000  Uiso   1.00
H1686  H     0.35219   0.78095   0.83920   0.00000  Uiso   1.00
H1687  H     0.38682   0.89114   0.93843   0.00000  Uiso   1.00
H1688  H     0.41326   0.87928   0.98289   0.00000  Uiso   1.00
H1689  H     0.35669   0.90276   0.99783   0.00000  Uiso   1.00
H1690  H     0.52294   0.81159   0.89087   0.00000  Uiso   1.00
H1691  H     0.55995   0.89108   0.97995   0.00000  Uiso   1.00
H1692  H     0.60210   0.93049   0.97758   0.00000  Uiso   1.00
H1693  H     0.55953   0.91948   0.53213   0.00000  Uiso   1.00
H1694  H     0.38827   0.79827   0.62405   0.00000  Uiso   1.00
H1695  H     0.54110   0.73021   0.90705   0.00000  Uiso   1.00
H1696  H     0.49005   0.92415   0.83893   0.00000  Uiso   1.00
H1697  H     0.52133   0.74011   0.66047   0.00000  Uiso   1.00
H1698  H     0.51793   0.74173   0.83090   0.00000  Uiso   1.00
H1699  H     0.46064   0.96202   0.65900   0.00000  Uiso   1.00
H1700  H     0.65134   0.73397   0.71033   0.00000  Uiso   1.00
H1701  H     0.38836   0.77572   0.71417   0.00000  Uiso   1.00
H1702  H     0.34976   0.93268   0.78912   0.00000  Uiso   1.00
H1703  H     0.61170   0.89096   0.78584   0.00000  Uiso   1.00
H1704  H     0.36038   0.72116   0.53876   0.00000  Uiso   1.00
H1705  H     0.64557   0.74253   0.58516   0.00000  Uiso   1.00
H1706  H     0.36841   0.73793   0.59250   0.00000  Uiso   1.00
H1707  H     0.62267   0.74762   0.51575   0.00000  Uiso   1.00
H1708  H     0.34112   0.73991   0.96734   0.00000  Uiso   1.00
N1709  N     0.38093   0.83334   0.75001   0.00000  Uiso   1.00
N1710  N     0.61907   0.83332   0.74999   0.00000  Uiso   1.00
O1711  O     0.46179   0.89442   0.75001   0.00000  Uiso   1.00
O1712  O     0.62898   0.78566   0.95829   0.00000  Uiso   1.00
O1713  O     0.60007   0.88160   0.60078   0.00000  Uiso   1.00
O1714  O     0.37356   0.81402   0.88654   0.00000  Uiso   1.00
O1715  O     0.35911   0.83957   0.97949   0.00000  Uiso   1.00
O1716  O     0.61366   0.87504   0.50627   0.00000  Uiso   1.00
O1717  O     0.42784   0.84848   0.60802   0.00000  Uiso   1.00
O1718  O     0.60478   0.75329   0.88647   0.00000  Uiso   1.00
O1719  O     0.53231   0.96593   0.85160   0.00000  Uiso   1.00
O1720  O     0.47728   0.70315   0.64356   0.00000  Uiso   1.00
O1721  O     0.47305   0.70229   0.87075   0.00000  Uiso   1.00
O1722  O     0.53821   0.77225   0.75000   0.00000  Uiso   1.00
O1723  O     0.51758   0.92737   0.65282   0.00000  Uiso   1.00
O1724  O     0.61673   0.76984   0.67906   0.00000  Uiso   1.00
O1725  O     0.38236   0.89628   0.82197   0.00000  Uiso   1.00
O1726  O     0.53823   0.89441   0.75000   0.00000  Uiso   1.00
O1727  O     0.46177   0.77226   0.75000   0.00000  Uiso   1.00
O1728  O     0.43994   0.83334   0.81613   0.00000  Uiso   1.00
O1729  O     0.56006   0.83333   0.68388   0.00000  Uiso   1.00
O1730  O     0.51639   0.83333   0.81612   0.00000  Uiso   1.00
O1731  O     0.48361   0.83334   0.68388   0.00000  Uiso   1.00
O1732  O     0.35906   0.78601   0.54948   0.00000  Uiso   1.00
Zn1733 Zn    0.44896   0.83334   0.75000   0.00000  Uiso   1.00
Zn1734 Zn    0.55104   0.83333   0.75000   0.00000  Uiso   1.00
C1735  C     0.83285   0.91291   0.75028   0.00000  Uiso   1.00
C1736  C     0.82741   0.97834   0.71220   0.00000  Uiso   1.00
C1737  C     0.83432   0.70942   0.75029   0.00000  Uiso   1.00
C1738  C     0.83162   0.95730   0.75102   0.00000  Uiso   1.00
C1739  C     0.98413   0.80116   0.72975   0.00000  Uiso   1.00
C1740  C     0.68255   0.86546   0.77030   0.00000  Uiso   1.00
C1741  C     0.69788   0.80129   0.73037   0.00000  Uiso   1.00
C1742  C     0.96881   0.86538   0.76965   0.00000  Uiso   1.00
C1743  C     0.80459   0.82924   0.83701   0.00000  Uiso   1.00
C1744  C     0.86190   0.83255   0.66276   0.00000  Uiso   1.00
C1745  C     0.78801   0.81522   0.88507   0.00000  Uiso   1.00
C1746  C     0.83352   0.75379   0.75050   0.00000  Uiso   1.00
C1747  C     0.87618   0.82741   0.61310   0.00000  Uiso   1.00
C1748  C     0.72589   0.81036   0.95636   0.00000  Uiso   1.00
C1749  C     0.92256   0.84478   0.53566   0.00000  Uiso   1.00
C1750  C     0.74019   0.81007   0.90840   0.00000  Uiso   1.00
C1751  C     0.91316   0.84975   0.58345   0.00000  Uiso   1.00
C1752  C     0.81975   0.80607   0.90834   0.00000  Uiso   1.00
C1753  C     0.84694   0.80417   0.59524   0.00000  Uiso   1.00
C1754  C     0.80413   0.79247   0.95455   0.00000  Uiso   1.00
C1755  C     0.85417   0.80315   0.54815   0.00000  Uiso   1.00
C1756  C     0.75604   0.79451   0.97889   0.00000  Uiso   1.00
C1757  C     0.77076   0.79558   0.55165   0.00000  Uiso   1.00
C1758  C     0.89795   0.81491   0.51934   0.00000  Uiso   1.00
C1759  C     0.83555   0.78582   0.97919   0.00000  Uiso   1.00
C1760  C     0.81979   0.79315   0.52776   0.00000  Uiso   1.00
C1761  C     0.68356   0.74509   0.56704   0.00000  Uiso   1.00
C1762  C     0.96983   0.74689   0.97744   0.00000  Uiso   1.00
C1763  C     0.97697   0.86731   0.60287   0.00000  Uiso   1.00
C1764  C     0.70624   0.77586   0.86279   0.00000  Uiso   1.00
C1765  C     0.71359   0.87955   0.97409   0.00000  Uiso   1.00
C1766  C     0.91526   0.90503   0.99903   0.00000  Uiso   1.00
C1767  C     0.74959   0.81400   0.59855   0.00000  Uiso   1.00
C1768  C     0.88361   0.77862   0.95615   0.00000  Uiso   1.00
C1769  C     0.89893   0.75151   0.91407   0.00000  Uiso   1.00
C1770  C     0.84067   0.95388   0.82988   0.00000  Uiso   1.00
C1771  C     0.83306   0.71266   0.66874   0.00000  Uiso   1.00
C1772  C     0.83199   0.71309   0.83307   0.00000  Uiso   1.00
C1773  C     0.82258   0.95476   0.67199   0.00000  Uiso   1.00
C1774  C     0.97161   0.76511   0.70615   0.00000  Uiso   1.00
C1775  C     0.69517   0.90134   0.79403   0.00000  Uiso   1.00
C1776  C     0.73981   0.78898   0.52681   0.00000  Uiso   1.00
C1777  C     0.91541   0.79567   0.97581   0.00000  Uiso   1.00
C1778  C     0.83560   0.97824   0.79016   0.00000  Uiso   1.00
C1779  C     0.83039   0.68851   0.71116   0.00000  Uiso   1.00
C1780  C     0.83497   0.68864   0.79050   0.00000  Uiso   1.00
H1781  H     0.81806   0.78766   0.61838   0.00000  Uiso   1.00
H1782  H     0.95395   0.72064   0.96410   0.00000  Uiso   1.00
H1783  H     0.97462   0.83683   0.62089   0.00000  Uiso   1.00
H1784  H     0.98992   0.89062   0.62264   0.00000  Uiso   1.00
H1785  H     0.66951   0.86477   0.56793   0.00000  Uiso   1.00
H1786  H     0.69016   0.75067   0.88707   0.00000  Uiso   1.00
H1787  H     0.74145   0.76429   0.84129   0.00000  Uiso   1.00
H1788  H     0.68552   0.78095   0.83920   0.00000  Uiso   1.00
H1789  H     0.72015   0.89114   0.93843   0.00000  Uiso   1.00
H1790  H     0.74660   0.87928   0.98289   0.00000  Uiso   1.00
H1791  H     0.69002   0.90276   0.99783   0.00000  Uiso   1.00
H1792  H     0.85628   0.81159   0.89087   0.00000  Uiso   1.00
H1793  H     0.89329   0.89108   0.97995   0.00000  Uiso   1.00
H1794  H     0.93543   0.93049   0.97758   0.00000  Uiso   1.00
H1795  H     0.89286   0.91948   0.53213   0.00000  Uiso   1.00
H1796  H     0.72161   0.79827   0.62405   0.00000  Uiso   1.00
H1797  H     0.87443   0.73021   0.90705   0.00000  Uiso   1.00
H1798  H     0.82339   0.92415   0.83893   0.00000  Uiso   1.00
H1799  H     0.85467   0.74011   0.66047   0.00000  Uiso   1.00
H1800  H     0.85126   0.74173   0.83090   0.00000  Uiso   1.00
H1801  H     0.79398   0.96202   0.65900   0.00000  Uiso   1.00
H1802  H     0.98467   0.73397   0.71033   0.00000  Uiso   1.00
H1803  H     0.72169   0.77572   0.71417   0.00000  Uiso   1.00
H1804  H     0.68309   0.93268   0.78912   0.00000  Uiso   1.00
H1805  H     0.94503   0.89096   0.78584   0.00000  Uiso   1.00
H1806  H     0.69372   0.72116   0.53876   0.00000  Uiso   1.00
H1807  H     0.97891   0.74253   0.58516   0.00000  Uiso   1.00
H1808  H     0.70174   0.73793   0.59250   0.00000  Uiso   1.00
H1809  H     0.95601   0.74762   0.51575   0.00000  Uiso   1.00
H1810  H     0.67445   0.73991   0.96734   0.00000  Uiso   1.00
N1811  N     0.71426   0.83334   0.75001   0.00000  Uiso   1.00
N1812  N     0.95241   0.83332   0.74999   0.00000  Uiso   1.00
O1813  O     0.79512   0.89442   0.75001   0.00000  Uiso   1.00
O1814  O     0.96231   0.78566   0.95829   0.00000  Uiso   1.00
O1815  O     0.93340   0.88160   0.60078   0.00000  Uiso   1.00
O1816  O     0.70689   0.81402   0.88654   0.00000  Uiso   1.00
O1817  O     0.69244   0.83957   0.97949   0.00000  Uiso   1.00
O1818  O     0.94700   0.87504   0.50627   0.00000  Uiso   1.00
O1819  O     0.76117   0.84848   0.60802   0.00000  Uiso   1.00
O1820  O     0.93811   0.75329   0.88647   0.00000  Uiso   1.00
O1821  O     0.86564   0.96593   0.85160   0.00000  Uiso   1.00
O1822  O     0.81061   0.70315   0.64356   0.00000  Uiso   1.00
O1823  O     0.80638   0.70229   0.87075   0.00000  Uiso   1.00
O1824  O     0.87154   0.77225   0.75000   0.00000  Uiso   1.00
O1825  O     0.85091   0.92737   0.65282   0.00000  Uiso   1.00
O1826  O     0.95006   0.76984   0.67906   0.00000  Uiso   1.00
O1827  O     0.71569   0.89628   0.82197   0.00000  Uiso   1.00
O1828  O     0.87157   0.89441   0.75000   0.00000  Uiso   1.00
O1829  O     0.79510   0.77226   0.75000   0.00000  Uiso   1.00
O1830  O     0.77328   0.83334   0.81613   0.00000  Uiso   1.00
O1831  O     0.89339   0.83333   0.68388   0.00000  Uiso   1.00
O1832  O     0.84972   0.83333   0.81612   0.00000  Uiso   1.00
O1833  O     0.81695   0.83334   0.68388   0.00000  Uiso   1.00
O1834  O     0.69239   0.78601   0.54948   0.00000  Uiso   1.00
Zn1835 Zn    0.78229   0.83334   0.75000   0.00000  Uiso   1.00
Zn1836 Zn    0.88438   0.83333   0.75000   0.00000  Uiso   1.00
loop_
_geom_bond_atom_site_label_1
_geom_bond_atom_site_label_2
_geom_bond_distance
_geom_bond_site_symmetry_2
_ccdc_geom_bond_type
C1     O94     1.299   .     A
C1     O79     1.297   .     A
C1     C4      1.415   .     S
C2     C39     1.487   .     S
C2     C4      1.408   .     A
C2     C351    1.392   .     S
C3     C12     1.414   .     S
C3     C45     1.407   .     A
C3     C46     1.407   .     A
C4     C44     1.408   .     A
C5     C40     1.473   .     S
C5     N78     1.390   .     A
C5     C109    1.431   .     S
C6     C41     1.472   .     S
C6     N77     1.389   .     A
C6     C212    1.431   1_455 S
C7     N77     1.362   .     A
C7     H69     1.083   .     S
C7     C209    1.431   1_455 S
C8     N78     1.362   .     A
C8     H71     1.083   .     S
C8     C108    1.431   .     S
C9     O98     1.318   .     A
C9     C11     1.470   .     S
C9     O96     1.307   .     A
C10    O97     1.312   .     A
C10    C13     1.448   .     S
C10    O99     1.305   .     A
C11    C18     1.395   .     A
C11    C16     1.406   .     A
C12    O90     1.298   .     A
C12    O95     1.298   .     A
C13    C19     1.400   .     A
C13    C17     1.403   .     A
C14    O83     1.375   .     S
C14    C16     1.392   .     A
C14    C22     1.398   .     A
C15    C24     1.404   .     A
C15    C17     1.406   .     A
C15    O84     1.377   .     S
C16    O82     1.381   .     S
C17    O81     1.383   .     S
C18    H58     1.080   .     S
C18    C20     1.414   .     A
C19    C21     1.388   .     A
C19    H47     1.080   .     S
C20    C25     1.405   .     A
C20    C22     1.406   .     A
C21    C26     1.414   .     A
C21    C24     1.395   .     A
C22    C960    1.403   .     S
C23    C42     1.401   .     A
C23    C26     1.428   .     A
C23    C33     1.484   .     S
C24    C961    1.400   1_554 S
C25    C34     1.411   .     A
C25    C944    1.425   .     S
C26    C943    1.425   1_554 S
C27    H74     1.112   .     S
C27    O100    1.412   .     S
C27    H72     1.113   .     S
C27    H277    1.109   1_455 S
C28    H48     1.111   .     S
C28    O80     1.417   .     S
C28    H993    1.112   .     S
C28    H178    1.107   .     S
C29    H49     1.112   .     S
C29    H50     1.109   .     S
C29    O81     1.408   .     S
C29    H153    1.106   .     S
C30    H54     1.109   .     S
C30    H53     1.112   .     S
C30    O82     1.417   .     S
C30    H52     1.106   .     S
C31    O83     1.424   .     S
C31    H56     1.115   .     S
C31    H57     1.107   .     S
C31    H55     1.112   .     S
C32    H60     1.109   .     S
C32    H59     1.113   .     S
C32    H979    1.114   .     S
C32    O1002   1.411   .     S
C33    O85     1.221   .     D
C33    H62     1.083   .     S
C34    C35     1.487   .     S
C34    C43     1.404   .     A
C35    O86     1.218   .     D
C35    H63     1.084   .     S
C36    O87     1.221   .     D
C36    C44     1.494   .     S
C36    H64     1.085   .     S
C37    O88     1.220   .     D
C37    H65     1.084   .     S
C37    C45     1.495   .     S
C38    O89     1.221   .     D
C38    H66     1.083   .     S
C38    C46     1.492   .     S
C39    O91     1.219   .     D
C39    H67     1.084   .     S
C40    O92     1.217   .     D
C40    H68     1.085   .     S
C41    O93     1.218   .     D
C41    H70     1.085   .     S
C42    O100    1.384   .     S
C42    C940    1.403   1_554 S
C43    O80     1.377   .     S
C43    C942    1.400   .     S
C44    C352    1.394   .     S
C45    C614    1.392   1_545 S
C46    C656    1.394   1_545 S
H51    C233    1.106   1_455 S
H61    C950    1.114   1_554 S
H73    C129    1.109   .     S
H75    C946    1.112   1_554 S
H76    C232    1.107   1_455 S
N77    Zn101   2.058   .     S
N78    Zn102   2.058   .     S
O79    Zn101   1.993   .     S
O84    C950    1.411   1_554 S
O90    Zn102   1.993   .     S
O94    Zn102   1.979   .     S
O95    Zn101   1.979   .     S
O96    Zn101   1.954   .     S
O97    Zn102   1.954   .     S
O98    Zn102   1.959   .     S
O99    Zn101   1.959   .     S
C103   O196    1.299   .     A
C103   O181    1.297   .     A
C103   C106    1.415   .     S
C104   C141    1.487   .     S
C104   C106    1.408   .     A
C104   C453    1.392   .     S
C105   C114    1.414   .     S
C105   C147    1.407   .     A
C105   C148    1.407   .     A
C106   C146    1.408   .     A
C107   C142    1.473   .     S
C107   N180    1.390   .     A
C107   C211    1.431   .     S
C108   C143    1.472   .     S
C108   N179    1.389   .     A
C109   N179    1.362   .     A
C109   H171    1.083   .     S
C110   N180    1.362   .     A
C110   H173    1.083   .     S
C110   C210    1.431   .     S
C111   O200    1.318   .     A
C111   C113    1.470   .     S
C111   O198    1.307   .     A
C112   O199    1.312   .     A
C112   C115    1.448   .     S
C112   O201    1.305   .     A
C113   C120    1.395   .     A
C113   C118    1.406   .     A
C114   O192    1.298   .     A
C114   O197    1.298   .     A
C115   C121    1.400   .     A
C115   C119    1.403   .     A
C116   O185    1.375   .     S
C116   C118    1.392   .     A
C116   C124    1.398   .     A
C117   C126    1.404   .     A
C117   C119    1.406   .     A
C117   O186    1.377   .     S
C118   O184    1.381   .     S
C119   O183    1.383   .     S
C120   H160    1.080   .     S
C120   C122    1.414   .     A
C121   C123    1.388   .     A
C121   H149    1.080   .     S
C122   C127    1.405   .     A
C122   C124    1.406   .     A
C123   C128    1.414   .     A
C123   C126    1.395   .     A
C124   C1062   1.403   .     S
C125   C144    1.401   .     A
C125   C128    1.428   .     A
C125   C135    1.484   .     S
C126   C1063   1.400   1_554 S
C127   C136    1.411   .     A
C127   C1046   1.425   .     S
C128   C1045   1.425   1_554 S
C129   H176    1.112   .     S
C129   O202    1.412   .     S
C129   H174    1.113   .     S
C130   H150    1.111   .     S
C130   O182    1.417   .     S
C130   H1095   1.112   .     S
C130   H280    1.107   .     S
C131   H151    1.112   .     S
C131   H152    1.109   .     S
C131   O183    1.408   .     S
C131   H255    1.106   .     S
C132   H156    1.109   .     S
C132   H155    1.112   .     S
C132   O184    1.417   .     S
C132   H154    1.106   .     S
C133   O185    1.424   .     S
C133   H158    1.115   .     S
C133   H159    1.107   .     S
C133   H157    1.112   .     S
C134   H162    1.109   .     S
C134   H161    1.113   .     S
C134   H1081   1.114   .     S
C134   O1104   1.411   .     S
C135   O187    1.221   .     D
C135   H164    1.083   .     S
C136   C137    1.487   .     S
C136   C145    1.404   .     A
C137   O188    1.218   .     D
C137   H165    1.084   .     S
C138   O189    1.221   .     D
C138   C146    1.494   .     S
C138   H166    1.085   .     S
C139   O190    1.220   .     D
C139   H167    1.084   .     S
C139   C147    1.495   .     S
C140   O191    1.221   .     D
C140   H168    1.083   .     S
C140   C148    1.492   .     S
C141   O193    1.219   .     D
C141   H169    1.084   .     S
C142   O194    1.217   .     D
C142   H170    1.085   .     S
C143   O195    1.218   .     D
C143   H172    1.085   .     S
C144   O202    1.384   .     S
C144   C1042   1.403   1_554 S
C145   O182    1.377   .     S
C145   C1044   1.400   .     S
C146   C454    1.394   .     S
C147   C716    1.392   1_545 S
C148   C758    1.394   1_545 S
H163   C1052   1.114   1_554 S
H175   C231    1.109   .     S
H177   C1048   1.112   1_554 S
N179   Zn203   2.058   .     S
N180   Zn204   2.058   .     S
O181   Zn203   1.993   .     S
O186   C1052   1.411   1_554 S
O192   Zn204   1.993   .     S
O196   Zn204   1.979   .     S
O197   Zn203   1.979   .     S
O198   Zn203   1.954   .     S
O199   Zn204   1.954   .     S
O200   Zn204   1.959   .     S
O201   Zn203   1.959   .     S
C205   O298    1.299   .     A
C205   O283    1.297   .     A
C205   C208    1.415   .     S
C206   C243    1.487   .     S
C206   C208    1.408   .     A
C206   C555    1.392   .     S
C207   C216    1.414   .     S
C207   C249    1.407   .     A
C207   C250    1.407   .     A
C208   C248    1.408   .     A
C209   C244    1.473   .     S
C209   N282    1.390   .     A
C209   C7      1.431   1_655 S
C210   C245    1.472   .     S
C210   N281    1.389   .     A
C211   N281    1.362   .     A
C211   H273    1.083   .     S
C212   N282    1.362   .     A
C212   H275    1.083   .     S
C212   C6      1.431   1_655 S
C213   O302    1.318   .     A
C213   C215    1.470   .     S
C213   O300    1.307   .     A
C214   O301    1.312   .     A
C214   C217    1.448   .     S
C214   O303    1.305   .     A
C215   C222    1.395   .     A
C215   C220    1.406   .     A
C216   O294    1.298   .     A
C216   O299    1.298   .     A
C217   C223    1.400   .     A
C217   C221    1.403   .     A
C218   O287    1.375   .     S
C218   C220    1.392   .     A
C218   C226    1.398   .     A
C219   C228    1.404   .     A
C219   C221    1.406   .     A
C219   O288    1.377   .     S
C220   O286    1.381   .     S
C221   O285    1.383   .     S
C222   H262    1.080   .     S
C222   C224    1.414   .     A
C223   C225    1.388   .     A
C223   H251    1.080   .     S
C224   C229    1.405   .     A
C224   C226    1.406   .     A
C225   C230    1.414   .     A
C225   C228    1.395   .     A
C226   C1164   1.403   .     S
C227   C246    1.401   .     A
C227   C230    1.428   .     A
C227   C237    1.484   .     S
C228   C1165   1.400   1_554 S
C229   C238    1.411   .     A
C229   C1148   1.425   .     S
C230   C1147   1.425   1_554 S
C231   H278    1.112   .     S
C231   O304    1.412   .     S
C231   H276    1.113   .     S
C232   H252    1.111   .     S
C232   O284    1.417   .     S
C232   H1197   1.112   .     S
C232   H76     1.107   1_655 S
C233   H253    1.112   .     S
C233   H254    1.109   .     S
C233   O285    1.408   .     S
C233   H51     1.106   1_655 S
C234   H258    1.109   .     S
C234   H257    1.112   .     S
C234   O286    1.417   .     S
C234   H256    1.106   .     S
C235   O287    1.424   .     S
C235   H260    1.115   .     S
C235   H261    1.107   .     S
C235   H259    1.112   .     S
C236   H264    1.109   .     S
C236   H263    1.113   .     S
C236   H1183   1.114   .     S
C236   O1206   1.411   .     S
C237   O289    1.221   .     D
C237   H266    1.083   .     S
C238   C239    1.487   .     S
C238   C247    1.404   .     A
C239   O290    1.218   .     D
C239   H267    1.084   .     S
C240   O291    1.221   .     D
C240   C248    1.494   .     S
C240   H268    1.085   .     S
C241   O292    1.220   .     D
C241   H269    1.084   .     S
C241   C249    1.495   .     S
C242   O293    1.221   .     D
C242   H270    1.083   .     S
C242   C250    1.492   .     S
C243   O295    1.219   .     D
C243   H271    1.084   .     S
C244   O296    1.217   .     D
C244   H272    1.085   .     S
C245   O297    1.218   .     D
C245   H274    1.085   .     S
C246   O304    1.384   .     S
C246   C1144   1.403   1_554 S
C247   O284    1.377   .     S
C247   C1146   1.400   .     S
C248   C556    1.394   .     S
C249   C818    1.392   1_545 S
C250   C860    1.394   1_545 S
H265   C1154   1.114   1_554 S
H277   C27     1.109   1_655 S
H279   C1150   1.112   1_554 S
N281   Zn305   2.058   .     S
N282   Zn306   2.058   .     S
O283   Zn305   1.993   .     S
O288   C1154   1.411   1_554 S
O294   Zn306   1.993   .     S
O298   Zn306   1.979   .     S
O299   Zn305   1.979   .     S
O300   Zn305   1.954   .     S
O301   Zn306   1.954   .     S
O302   Zn306   1.959   .     S
O303   Zn305   1.959   .     S
C307   O400    1.299   .     A
C307   O385    1.297   .     A
C307   C310    1.415   .     S
C308   C345    1.487   .     S
C308   C310    1.408   .     A
C308   C657    1.392   .     S
C309   C318    1.414   .     S
C309   C351    1.407   .     A
C309   C352    1.407   .     A
C310   C350    1.408   .     A
C311   C346    1.473   .     S
C311   N384    1.390   .     A
C311   C415    1.431   .     S
C312   C347    1.472   .     S
C312   N383    1.389   .     A
C312   C518    1.431   1_455 S
C313   N383    1.362   .     A
C313   H375    1.083   .     S
C313   C515    1.431   1_455 S
C314   N384    1.362   .     A
C314   H377    1.083   .     S
C314   C414    1.431   .     S
C315   O404    1.318   .     A
C315   C317    1.470   .     S
C315   O402    1.307   .     A
C316   O403    1.312   .     A
C316   C319    1.448   .     S
C316   O405    1.305   .     A
C317   C324    1.395   .     A
C317   C322    1.406   .     A
C318   O396    1.298   .     A
C318   O401    1.298   .     A
C319   C325    1.400   .     A
C319   C323    1.403   .     A
C320   O389    1.375   .     S
C320   C322    1.392   .     A
C320   C328    1.398   .     A
C321   C330    1.404   .     A
C321   C323    1.406   .     A
C321   O390    1.377   .     S
C322   O388    1.381   .     S
C323   O387    1.383   .     S
C324   H364    1.080   .     S
C324   C326    1.414   .     A
C325   C327    1.388   .     A
C325   H353    1.080   .     S
C326   C331    1.405   .     A
C326   C328    1.406   .     A
C327   C332    1.414   .     A
C327   C330    1.395   .     A
C328   C1266   1.403   .     S
C329   C348    1.401   .     A
C329   C332    1.428   .     A
C329   C339    1.484   .     S
C330   C1267   1.400   1_554 S
C331   C340    1.411   .     A
C331   C1250   1.425   .     S
C332   C1249   1.425   1_554 S
C333   H380    1.112   .     S
C333   O406    1.412   .     S
C333   H378    1.113   .     S
C333   H583    1.109   1_455 S
C334   H354    1.111   .     S
C334   O386    1.417   .     S
C334   H1299   1.112   .     S
C334   H484    1.107   .     S
C335   H355    1.112   .     S
C335   H356    1.109   .     S
C335   O387    1.408   .     S
C335   H459    1.106   .     S
C336   H360    1.109   .     S
C336   H359    1.112   .     S
C336   O388    1.417   .     S
C336   H358    1.106   .     S
C337   O389    1.424   .     S
C337   H362    1.115   .     S
C337   H363    1.107   .     S
C337   H361    1.112   .     S
C338   H366    1.109   .     S
C338   H365    1.113   .     S
C338   H1285   1.114   .     S
C338   O1308   1.411   .     S
C339   O391    1.221   .     D
C339   H368    1.083   .     S
C340   C341    1.487   .     S
C340   C349    1.404   .     A
C341   O392    1.218   .     D
C341   H369    1.084   .     S
C342   O393    1.221   .     D
C342   C350    1.494   .     S
C342   H370    1.085   .     S
C343   O394    1.220   .     D
C343   H371    1.084   .     S
C343   C351    1.495   .     S
C344   O395    1.221   .     D
C344   H372    1.083   .     S
C344   C352    1.492   .     S
C345   O397    1.219   .     D
C345   H373    1.084   .     S
C346   O398    1.217   .     D
C346   H374    1.085   .     S
C347   O399    1.218   .     D
C347   H376    1.085   .     S
C348   O406    1.384   .     S
C348   C1246   1.403   1_554 S
C349   O386    1.377   .     S
C349   C1248   1.400   .     S
C350   C658    1.394   .     S
H357   C539    1.106   1_455 S
H367   C1256   1.114   1_554 S
H379   C435    1.109   .     S
H381   C1252   1.112   1_554 S
H382   C538    1.107   1_455 S
N383   Zn407   2.058   .     S
N384   Zn408   2.058   .     S
O385   Zn407   1.993   .     S
O390   C1256   1.411   1_554 S
O396   Zn408   1.993   .     S
O400   Zn408   1.979   .     S
O401   Zn407   1.979   .     S
O402   Zn407   1.954   .     S
O403   Zn408   1.954   .     S
O404   Zn408   1.959   .     S
O405   Zn407   1.959   .     S
C409   O502    1.299   .     A
C409   O487    1.297   .     A
C409   C412    1.415   .     S
C410   C447    1.487   .     S
C410   C412    1.408   .     A
C410   C759    1.392   .     S
C411   C420    1.414   .     S
C411   C453    1.407   .     A
C411   C454    1.407   .     A
C412   C452    1.408   .     A
C413   C448    1.473   .     S
C413   N486    1.390   .     A
C413   C517    1.431   .     S
C414   C449    1.472   .     S
C414   N485    1.389   .     A
C415   N485    1.362   .     A
C415   H477    1.083   .     S
C416   N486    1.362   .     A
C416   H479    1.083   .     S
C416   C516    1.431   .     S
C417   O506    1.318   .     A
C417   C419    1.470   .     S
C417   O504    1.307   .     A
C418   O505    1.312   .     A
C418   C421    1.448   .     S
C418   O507    1.305   .     A
C419   C426    1.395   .     A
C419   C424    1.406   .     A
C420   O498    1.298   .     A
C420   O503    1.298   .     A
C421   C427    1.400   .     A
C421   C425    1.403   .     A
C422   O491    1.375   .     S
C422   C424    1.392   .     A
C422   C430    1.398   .     A
C423   C432    1.404   .     A
C423   C425    1.406   .     A
C423   O492    1.377   .     S
C424   O490    1.381   .     S
C425   O489    1.383   .     S
C426   H466    1.080   .     S
C426   C428    1.414   .     A
C427   C429    1.388   .     A
C427   H455    1.080   .     S
C428   C433    1.405   .     A
C428   C430    1.406   .     A
C429   C434    1.414   .     A
C429   C432    1.395   .     A
C430   C1368   1.403   .     S
C431   C450    1.401   .     A
C431   C434    1.428   .     A
C431   C441    1.484   .     S
C432   C1369   1.400   1_554 S
C433   C442    1.411   .     A
C433   C1352   1.425   .     S
C434   C1351   1.425   1_554 S
C435   H482    1.112   .     S
C435   O508    1.412   .     S
C435   H480    1.113   .     S
C436   H456    1.111   .     S
C436   O488    1.417   .     S
C436   H1401   1.112   .     S
C436   H586    1.107   .     S
C437   H457    1.112   .     S
C437   H458    1.109   .     S
C437   O489    1.408   .     S
C437   H561    1.106   .     S
C438   H462    1.109   .     S
C438   H461    1.112   .     S
C438   O490    1.417   .     S
C438   H460    1.106   .     S
C439   O491    1.424   .     S
C439   H464    1.115   .     S
C439   H465    1.107   .     S
C439   H463    1.112   .     S
C440   H468    1.109   .     S
C440   H467    1.113   .     S
C440   H1387   1.114   .     S
C440   O1410   1.411   .     S
C441   O493    1.221   .     D
C441   H470    1.083   .     S
C442   C443    1.487   .     S
C442   C451    1.404   .     A
C443   O494    1.218   .     D
C443   H471    1.084   .     S
C444   O495    1.221   .     D
C444   C452    1.494   .     S
C444   H472    1.085   .     S
C445   O496    1.220   .     D
C445   H473    1.084   .     S
C445   C453    1.495   .     S
C446   O497    1.221   .     D
C446   H474    1.083   .     S
C446   C454    1.492   .     S
C447   O499    1.219   .     D
C447   H475    1.084   .     S
C448   O500    1.217   .     D
C448   H476    1.085   .     S
C449   O501    1.218   .     D
C449   H478    1.085   .     S
C450   O508    1.384   .     S
C450   C1348   1.403   1_554 S
C451   O488    1.377   .     S
C451   C1350   1.400   .     S
C452   C760    1.394   .     S
H469   C1358   1.114   1_554 S
H481   C537    1.109   .     S
H483   C1354   1.112   1_554 S
N485   Zn509   2.058   .     S
N486   Zn510   2.058   .     S
O487   Zn509   1.993   .     S
O492   C1358   1.411   1_554 S
O498   Zn510   1.993   .     S
O502   Zn510   1.979   .     S
O503   Zn509   1.979   .     S
O504   Zn509   1.954   .     S
O505   Zn510   1.954   .     S
O506   Zn510   1.959   .     S
O507   Zn509   1.959   .     S
C511   O604    1.299   .     A
C511   O589    1.297   .     A
C511   C514    1.415   .     S
C512   C549    1.487   .     S
C512   C514    1.408   .     A
C512   C861    1.392   .     S
C513   C522    1.414   .     S
C513   C555    1.407   .     A
C513   C556    1.407   .     A
C514   C554    1.408   .     A
C515   C550    1.473   .     S
C515   N588    1.390   .     A
C515   C313    1.431   1_655 S
C516   C551    1.472   .     S
C516   N587    1.389   .     A
C517   N587    1.362   .     A
C517   H579    1.083   .     S
C518   N588    1.362   .     A
C518   H581    1.083   .     S
C518   C312    1.431   1_655 S
C519   O608    1.318   .     A
C519   C521    1.470   .     S
C519   O606    1.307   .     A
C520   O607    1.312   .     A
C520   C523    1.448   .     S
C520   O609    1.305   .     A
C521   C528    1.395   .     A
C521   C526    1.406   .     A
C522   O600    1.298   .     A
C522   O605    1.298   .     A
C523   C529    1.400   .     A
C523   C527    1.403   .     A
C524   O593    1.375   .     S
C524   C526    1.392   .     A
C524   C532    1.398   .     A
C525   C534    1.404   .     A
C525   C527    1.406   .     A
C525   O594    1.377   .     S
C526   O592    1.381   .     S
C527   O591    1.383   .     S
C528   H568    1.080   .     S
C528   C530    1.414   .     A
C529   C531    1.388   .     A
C529   H557    1.080   .     S
C530   C535    1.405   .     A
C530   C532    1.406   .     A
C531   C536    1.414   .     A
C531   C534    1.395   .     A
C532   C1470   1.403   .     S
C533   C552    1.401   .     A
C533   C536    1.428   .     A
C533   C543    1.484   .     S
C534   C1471   1.400   1_554 S
C535   C544    1.411   .     A
C535   C1454   1.425   .     S
C536   C1453   1.425   1_554 S
C537   H584    1.112   .     S
C537   O610    1.412   .     S
C537   H582    1.113   .     S
C538   H558    1.111   .     S
C538   O590    1.417   .     S
C538   H1503   1.112   .     S
C538   H382    1.107   1_655 S
C539   H559    1.112   .     S
C539   H560    1.109   .     S
C539   O591    1.408   .     S
C539   H357    1.106   1_655 S
C540   H564    1.109   .     S
C540   H563    1.112   .     S
C540   O592    1.417   .     S
C540   H562    1.106   .     S
C541   O593    1.424   .     S
C541   H566    1.115   .     S
C541   H567    1.107   .     S
C541   H565    1.112   .     S
C542   H570    1.109   .     S
C542   H569    1.113   .     S
C542   H1489   1.114   .     S
C542   O1512   1.411   .     S
C543   O595    1.221   .     D
C543   H572    1.083   .     S
C544   C545    1.487   .     S
C544   C553    1.404   .     A
C545   O596    1.218   .     D
C545   H573    1.084   .     S
C546   O597    1.221   .     D
C546   C554    1.494   .     S
C546   H574    1.085   .     S
C547   O598    1.220   .     D
C547   H575    1.084   .     S
C547   C555    1.495   .     S
C548   O599    1.221   .     D
C548   H576    1.083   .     S
C548   C556    1.492   .     S
C549   O601    1.219   .     D
C549   H577    1.084   .     S
C550   O602    1.217   .     D
C550   H578    1.085   .     S
C551   O603    1.218   .     D
C551   H580    1.085   .     S
C552   O610    1.384   .     S
C552   C1450   1.403   1_554 S
C553   O590    1.377   .     S
C553   C1452   1.400   .     S
C554   C862    1.394   .     S
H571   C1460   1.114   1_554 S
H583   C333    1.109   1_655 S
H585   C1456   1.112   1_554 S
N587   Zn611   2.058   .     S
N588   Zn612   2.058   .     S
O589   Zn611   1.993   .     S
O594   C1460   1.411   1_554 S
O600   Zn612   1.993   .     S
O604   Zn612   1.979   .     S
O605   Zn611   1.979   .     S
O606   Zn611   1.954   .     S
O607   Zn612   1.954   .     S
O608   Zn612   1.959   .     S
O609   Zn611   1.959   .     S
C613   O706    1.299   .     A
C613   O691    1.297   .     A
C613   C616    1.415   .     S
C614   C651    1.487   .     S
C614   C616    1.408   .     A
C614   C45     1.392   1_565 S
C615   C624    1.414   .     S
C615   C657    1.407   .     A
C615   C658    1.407   .     A
C616   C656    1.408   .     A
C617   C652    1.473   .     S
C617   N690    1.390   .     A
C617   C721    1.431   .     S
C618   C653    1.472   .     S
C618   N689    1.389   .     A
C618   C824    1.431   1_455 S
C619   N689    1.362   .     A
C619   H681    1.083   .     S
C619   C821    1.431   1_455 S
C620   N690    1.362   .     A
C620   H683    1.083   .     S
C620   C720    1.431   .     S
C621   O710    1.318   .     A
C621   C623    1.470   .     S
C621   O708    1.307   .     A
C622   O709    1.312   .     A
C622   C625    1.448   .     S
C622   O711    1.305   .     A
C623   C630    1.395   .     A
C623   C628    1.406   .     A
C624   O702    1.298   .     A
C624   O707    1.298   .     A
C625   C631    1.400   .     A
C625   C629    1.403   .     A
C626   O695    1.375   .     S
C626   C628    1.392   .     A
C626   C634    1.398   .     A
C627   C636    1.404   .     A
C627   C629    1.406   .     A
C627   O696    1.377   .     S
C628   O694    1.381   .     S
C629   O693    1.383   .     S
C630   H670    1.080   .     S
C630   C632    1.414   .     A
C631   C633    1.388   .     A
C631   H659    1.080   .     S
C632   C637    1.405   .     A
C632   C634    1.406   .     A
C633   C638    1.414   .     A
C633   C636    1.395   .     A
C634   C1572   1.403   .     S
C635   C654    1.401   .     A
C635   C638    1.428   .     A
C635   C645    1.484   .     S
C636   C1573   1.400   1_554 S
C637   C646    1.411   .     A
C637   C1556   1.425   .     S
C638   C1555   1.425   1_554 S
C639   H686    1.112   .     S
C639   O712    1.412   .     S
C639   H684    1.113   .     S
C639   H889    1.109   1_455 S
C640   H660    1.111   .     S
C640   O692    1.417   .     S
C640   H1605   1.112   .     S
C640   H790    1.107   .     S
C641   H661    1.112   .     S
C641   H662    1.109   .     S
C641   O693    1.408   .     S
C641   H765    1.106   .     S
C642   H666    1.109   .     S
C642   H665    1.112   .     S
C642   O694    1.417   .     S
C642   H664    1.106   .     S
C643   O695    1.424   .     S
C643   H668    1.115   .     S
C643   H669    1.107   .     S
C643   H667    1.112   .     S
C644   H672    1.109   .     S
C644   H671    1.113   .     S
C644   H1591   1.114   .     S
C644   O1614   1.411   .     S
C645   O697    1.221   .     D
C645   H674    1.083   .     S
C646   C647    1.487   .     S
C646   C655    1.404   .     A
C647   O698    1.218   .     D
C647   H675    1.084   .     S
C648   O699    1.221   .     D
C648   C656    1.494   .     S
C648   H676    1.085   .     S
C649   O700    1.220   .     D
C649   H677    1.084   .     S
C649   C657    1.495   .     S
C650   O701    1.221   .     D
C650   H678    1.083   .     S
C650   C658    1.492   .     S
C651   O703    1.219   .     D
C651   H679    1.084   .     S
C652   O704    1.217   .     D
C652   H680    1.085   .     S
C653   O705    1.218   .     D
C653   H682    1.085   .     S
C654   O712    1.384   .     S
C654   C1552   1.403   1_554 S
C655   O692    1.377   .     S
C655   C1554   1.400   .     S
C656   C46     1.394   1_565 S
H663   C845    1.106   1_455 S
H673   C1562   1.114   1_554 S
H685   C741    1.109   .     S
H687   C1558   1.112   1_554 S
H688   C844    1.107   1_455 S
N689   Zn713   2.058   .     S
N690   Zn714   2.058   .     S
O691   Zn713   1.993   .     S
O696   C1562   1.411   1_554 S
O702   Zn714   1.993   .     S
O706   Zn714   1.979   .     S
O707   Zn713   1.979   .     S
O708   Zn713   1.954   .     S
O709   Zn714   1.954   .     S
O710   Zn714   1.959   .     S
O711   Zn713   1.959   .     S
C715   O808    1.299   .     A
C715   O793    1.297   .     A
C715   C718    1.415   .     S
C716   C753    1.487   .     S
C716   C718    1.408   .     A
C716   C147    1.392   1_565 S
C717   C726    1.414   .     S
C717   C759    1.407   .     A
C717   C760    1.407   .     A
C718   C758    1.408   .     A
C719   C754    1.473   .     S
C719   N792    1.390   .     A
C719   C823    1.431   .     S
C720   C755    1.472   .     S
C720   N791    1.389   .     A
C721   N791    1.362   .     A
C721   H783    1.083   .     S
C722   N792    1.362   .     A
C722   H785    1.083   .     S
C722   C822    1.431   .     S
C723   O812    1.318   .     A
C723   C725    1.470   .     S
C723   O810    1.307   .     A
C724   O811    1.312   .     A
C724   C727    1.448   .     S
C724   O813    1.305   .     A
C725   C732    1.395   .     A
C725   C730    1.406   .     A
C726   O804    1.298   .     A
C726   O809    1.298   .     A
C727   C733    1.400   .     A
C727   C731    1.403   .     A
C728   O797    1.375   .     S
C728   C730    1.392   .     A
C728   C736    1.398   .     A
C729   C738    1.404   .     A
C729   C731    1.406   .     A
C729   O798    1.377   .     S
C730   O796    1.381   .     S
C731   O795    1.383   .     S
C732   H772    1.080   .     S
C732   C734    1.414   .     A
C733   C735    1.388   .     A
C733   H761    1.080   .     S
C734   C739    1.405   .     A
C734   C736    1.406   .     A
C735   C740    1.414   .     A
C735   C738    1.395   .     A
C736   C1674   1.403   .     S
C737   C756    1.401   .     A
C737   C740    1.428   .     A
C737   C747    1.484   .     S
C738   C1675   1.400   1_554 S
C739   C748    1.411   .     A
C739   C1658   1.425   .     S
C740   C1657   1.425   1_554 S
C741   H788    1.112   .     S
C741   O814    1.412   .     S
C741   H786    1.113   .     S
C742   H762    1.111   .     S
C742   O794    1.417   .     S
C742   H1707   1.112   .     S
C742   H892    1.107   .     S
C743   H763    1.112   .     S
C743   H764    1.109   .     S
C743   O795    1.408   .     S
C743   H867    1.106   .     S
C744   H768    1.109   .     S
C744   H767    1.112   .     S
C744   O796    1.417   .     S
C744   H766    1.106   .     S
C745   O797    1.424   .     S
C745   H770    1.115   .     S
C745   H771    1.107   .     S
C745   H769    1.112   .     S
C746   H774    1.109   .     S
C746   H773    1.113   .     S
C746   H1693   1.114   .     S
C746   O1716   1.411   .     S
C747   O799    1.221   .     D
C747   H776    1.083   .     S
C748   C749    1.487   .     S
C748   C757    1.404   .     A
C749   O800    1.218   .     D
C749   H777    1.084   .     S
C750   O801    1.221   .     D
C750   C758    1.494   .     S
C750   H778    1.085   .     S
C751   O802    1.220   .     D
C751   H779    1.084   .     S
C751   C759    1.495   .     S
C752   O803    1.221   .     D
C752   H780    1.083   .     S
C752   C760    1.492   .     S
C753   O805    1.219   .     D
C753   H781    1.084   .     S
C754   O806    1.217   .     D
C754   H782    1.085   .     S
C755   O807    1.218   .     D
C755   H784    1.085   .     S
C756   O814    1.384   .     S
C756   C1654   1.403   1_554 S
C757   O794    1.377   .     S
C757   C1656   1.400   .     S
C758   C148    1.394   1_565 S
H775   C1664   1.114   1_554 S
H787   C843    1.109   .     S
H789   C1660   1.112   1_554 S
N791   Zn815   2.058   .     S
N792   Zn816   2.058   .     S
O793   Zn815   1.993   .     S
O798   C1664   1.411   1_554 S
O804   Zn816   1.993   .     S
O808   Zn816   1.979   .     S
O809   Zn815   1.979   .     S
O810   Zn815   1.954   .     S
O811   Zn816   1.954   .     S
O812   Zn816   1.959   .     S
O813   Zn815   1.959   .     S
C817   O910    1.299   .     A
C817   O895    1.297   .     A
C817   C820    1.415   .     S
C818   C855    1.487   .     S
C818   C820    1.408   .     A
C818   C249    1.392   1_565 S
C819   C828    1.414   .     S
C819   C861    1.407   .     A
C819   C862    1.407   .     A
C820   C860    1.408   .     A
C821   C856    1.473   .     S
C821   N894    1.390   .     A
C821   C619    1.431   1_655 S
C822   C857    1.472   .     S
C822   N893    1.389   .     A
C823   N893    1.362   .     A
C823   H885    1.083   .     S
C824   N894    1.362   .     A
C824   H887    1.083   .     S
C824   C618    1.431   1_655 S
C825   O914    1.318   .     A
C825   C827    1.470   .     S
C825   O912    1.307   .     A
C826   O913    1.312   .     A
C826   C829    1.448   .     S
C826   O915    1.305   .     A
C827   C834    1.395   .     A
C827   C832    1.406   .     A
C828   O906    1.298   .     A
C828   O911    1.298   .     A
C829   C835    1.400   .     A
C829   C833    1.403   .     A
C830   O899    1.375   .     S
C830   C832    1.392   .     A
C830   C838    1.398   .     A
C831   C840    1.404   .     A
C831   C833    1.406   .     A
C831   O900    1.377   .     S
C832   O898    1.381   .     S
C833   O897    1.383   .     S
C834   H874    1.080   .     S
C834   C836    1.414   .     A
C835   C837    1.388   .     A
C835   H863    1.080   .     S
C836   C841    1.405   .     A
C836   C838    1.406   .     A
C837   C842    1.414   .     A
C837   C840    1.395   .     A
C838   C1776   1.403   .     S
C839   C858    1.401   .     A
C839   C842    1.428   .     A
C839   C849    1.484   .     S
C840   C1777   1.400   1_554 S
C841   C850    1.411   .     A
C841   C1760   1.425   .     S
C842   C1759   1.425   1_554 S
C843   H890    1.112   .     S
C843   O916    1.412   .     S
C843   H888    1.113   .     S
C844   H864    1.111   .     S
C844   O896    1.417   .     S
C844   H1809   1.112   .     S
C844   H688    1.107   1_655 S
C845   H865    1.112   .     S
C845   H866    1.109   .     S
C845   O897    1.408   .     S
C845   H663    1.106   1_655 S
C846   H870    1.109   .     S
C846   H869    1.112   .     S
C846   O898    1.417   .     S
C846   H868    1.106   .     S
C847   O899    1.424   .     S
C847   H872    1.115   .     S
C847   H873    1.107   .     S
C847   H871    1.112   .     S
C848   H876    1.109   .     S
C848   H875    1.113   .     S
C848   H1795   1.114   .     S
C848   O1818   1.411   .     S
C849   O901    1.221   .     D
C849   H878    1.083   .     S
C850   C851    1.487   .     S
C850   C859    1.404   .     A
C851   O902    1.218   .     D
C851   H879    1.084   .     S
C852   O903    1.221   .     D
C852   C860    1.494   .     S
C852   H880    1.085   .     S
C853   O904    1.220   .     D
C853   H881    1.084   .     S
C853   C861    1.495   .     S
C854   O905    1.221   .     D
C854   H882    1.083   .     S
C854   C862    1.492   .     S
C855   O907    1.219   .     D
C855   H883    1.084   .     S
C856   O908    1.217   .     D
C856   H884    1.085   .     S
C857   O909    1.218   .     D
C857   H886    1.085   .     S
C858   O916    1.384   .     S
C858   C1756   1.403   1_554 S
C859   O896    1.377   .     S
C859   C1758   1.400   .     S
C860   C250    1.394   1_565 S
H877   C1766   1.114   1_554 S
H889   C639    1.109   1_655 S
H891   C1762   1.112   1_554 S
N893   Zn917   2.058   .     S
N894   Zn918   2.058   .     S
O895   Zn917   1.993   .     S
O900   C1766   1.411   1_554 S
O906   Zn918   1.993   .     S
O910   Zn918   1.979   .     S
O911   Zn917   1.979   .     S
O912   Zn917   1.954   .     S
O913   Zn918   1.954   .     S
O914   Zn918   1.959   .     S
O915   Zn917   1.959   .     S
C919   O1012   1.299   .     A
C919   O997    1.297   .     A
C919   C922    1.415   .     S
C920   C957    1.487   .     S
C920   C922    1.408   .     A
C920   C1269   1.392   .     S
C921   C930    1.414   .     S
C921   C963    1.407   .     A
C921   C964    1.407   .     A
C922   C962    1.408   .     A
C923   C958    1.473   .     S
C923   N996    1.390   .     A
C923   C1027   1.431   .     S
C924   C959    1.472   .     S
C924   N995    1.389   .     A
C924   C1130   1.431   1_455 S
C925   N995    1.362   .     A
C925   H987    1.083   .     S
C925   C1127   1.431   1_455 S
C926   N996    1.362   .     A
C926   H989    1.083   .     S
C926   C1026   1.431   .     S
C927   O1016   1.318   .     A
C927   C929    1.470   .     S
C927   O1014   1.307   .     A
C928   O1015   1.312   .     A
C928   C931    1.448   .     S
C928   O1017   1.305   .     A
C929   C936    1.395   .     A
C929   C934    1.406   .     A
C930   O1008   1.298   .     A
C930   O1013   1.298   .     A
C931   C937    1.400   .     A
C931   C935    1.403   .     A
C932   O1001   1.375   .     S
C932   C934    1.392   .     A
C932   C940    1.398   .     A
C933   C942    1.404   .     A
C933   C935    1.406   .     A
C933   O1002   1.377   .     S
C934   O1000   1.381   .     S
C935   O999    1.383   .     S
C936   H976    1.080   .     S
C936   C938    1.414   .     A
C937   C939    1.388   .     A
C937   H965    1.080   .     S
C938   C943    1.405   .     A
C938   C940    1.406   .     A
C939   C944    1.414   .     A
C939   C942    1.395   .     A
C940   C42     1.403   1_556 S
C941   C960    1.401   .     A
C941   C944    1.428   .     A
C941   C951    1.484   .     S
C943   C952    1.411   .     A
C943   C26     1.425   1_556 S
C945   H992    1.112   .     S
C945   O1018   1.412   .     S
C945   H990    1.113   .     S
C945   H1195   1.109   1_455 S
C946   H966    1.111   .     S
C946   O998    1.417   .     S
C946   H75     1.112   1_556 S
C946   H1096   1.107   .     S
C947   H967    1.112   .     S
C947   H968    1.109   .     S
C947   O999    1.408   .     S
C947   H1071   1.106   .     S
C948   H972    1.109   .     S
C948   H971    1.112   .     S
C948   O1000   1.417   .     S
C948   H970    1.106   .     S
C949   O1001   1.424   .     S
C949   H974    1.115   .     S
C949   H975    1.107   .     S
C949   H973    1.112   .     S
C950   H978    1.109   .     S
C950   H977    1.113   .     S
C950   H61     1.114   1_556 S
C950   O84     1.411   1_556 S
C951   O1003   1.221   .     D
C951   H980    1.083   .     S
C952   C953    1.487   .     S
C952   C961    1.404   .     A
C953   O1004   1.218   .     D
C953   H981    1.084   .     S
C954   O1005   1.221   .     D
C954   C962    1.494   .     S
C954   H982    1.085   .     S
C955   O1006   1.220   .     D
C955   H983    1.084   .     S
C955   C963    1.495   .     S
C956   O1007   1.221   .     D
C956   H984    1.083   .     S
C956   C964    1.492   .     S
C957   O1009   1.219   .     D
C957   H985    1.084   .     S
C958   O1010   1.217   .     D
C958   H986    1.085   .     S
C959   O1011   1.218   .     D
C959   H988    1.085   .     S
C960   O1018   1.384   .     S
C961   O998    1.377   .     S
C961   C24     1.400   1_556 S
C962   C1270   1.394   .     S
C963   C1532   1.392   1_545 S
C964   C1574   1.394   1_545 S
H969   C1151   1.106   1_455 S
H991   C1047   1.109   .     S
H994   C1150   1.107   1_455 S
N995   Zn1019  2.058   .     S
N996   Zn1020  2.058   .     S
O997   Zn1019  1.993   .     S
O1008  Zn1020  1.993   .     S
O1012  Zn1020  1.979   .     S
O1013  Zn1019  1.979   .     S
O1014  Zn1019  1.954   .     S
O1015  Zn1020  1.954   .     S
O1016  Zn1020  1.959   .     S
O1017  Zn1019  1.959   .     S
C1021  O1114   1.299   .     A
C1021  O1099   1.297   .     A
C1021  C1024   1.415   .     S
C1022  C1059   1.487   .     S
C1022  C1024   1.408   .     A
C1022  C1371   1.392   .     S
C1023  C1032   1.414   .     S
C1023  C1065   1.407   .     A
C1023  C1066   1.407   .     A
C1024  C1064   1.408   .     A
C1025  C1060   1.473   .     S
C1025  N1098   1.390   .     A
C1025  C1129   1.431   .     S
C1026  C1061   1.472   .     S
C1026  N1097   1.389   .     A
C1027  N1097   1.362   .     A
C1027  H1089   1.083   .     S
C1028  N1098   1.362   .     A
C1028  H1091   1.083   .     S
C1028  C1128   1.431   .     S
C1029  O1118   1.318   .     A
C1029  C1031   1.470   .     S
C1029  O1116   1.307   .     A
C1030  O1117   1.312   .     A
C1030  C1033   1.448   .     S
C1030  O1119   1.305   .     A
C1031  C1038   1.395   .     A
C1031  C1036   1.406   .     A
C1032  O1110   1.298   .     A
C1032  O1115   1.298   .     A
C1033  C1039   1.400   .     A
C1033  C1037   1.403   .     A
C1034  O1103   1.375   .     S
C1034  C1036   1.392   .     A
C1034  C1042   1.398   .     A
C1035  C1044   1.404   .     A
C1035  C1037   1.406   .     A
C1035  O1104   1.377   .     S
C1036  O1102   1.381   .     S
C1037  O1101   1.383   .     S
C1038  H1078   1.080   .     S
C1038  C1040   1.414   .     A
C1039  C1041   1.388   .     A
C1039  H1067   1.080   .     S
C1040  C1045   1.405   .     A
C1040  C1042   1.406   .     A
C1041  C1046   1.414   .     A
C1041  C1044   1.395   .     A
C1042  C144    1.403   1_556 S
C1043  C1062   1.401   .     A
C1043  C1046   1.428   .     A
C1043  C1053   1.484   .     S
C1045  C1054   1.411   .     A
C1045  C128    1.425   1_556 S
C1047  H1094   1.112   .     S
C1047  O1120   1.412   .     S
C1047  H1092   1.113   .     S
C1048  H1068   1.111   .     S
C1048  O1100   1.417   .     S
C1048  H177    1.112   1_556 S
C1048  H1198   1.107   .     S
C1049  H1069   1.112   .     S
C1049  H1070   1.109   .     S
C1049  O1101   1.408   .     S
C1049  H1173   1.106   .     S
C1050  H1074   1.109   .     S
C1050  H1073   1.112   .     S
C1050  O1102   1.417   .     S
C1050  H1072   1.106   .     S
C1051  O1103   1.424   .     S
C1051  H1076   1.115   .     S
C1051  H1077   1.107   .     S
C1051  H1075   1.112   .     S
C1052  H1080   1.109   .     S
C1052  H1079   1.113   .     S
C1052  H163    1.114   1_556 S
C1052  O186    1.411   1_556 S
C1053  O1105   1.221   .     D
C1053  H1082   1.083   .     S
C1054  C1055   1.487   .     S
C1054  C1063   1.404   .     A
C1055  O1106   1.218   .     D
C1055  H1083   1.084   .     S
C1056  O1107   1.221   .     D
C1056  C1064   1.494   .     S
C1056  H1084   1.085   .     S
C1057  O1108   1.220   .     D
C1057  H1085   1.084   .     S
C1057  C1065   1.495   .     S
C1058  O1109   1.221   .     D
C1058  H1086   1.083   .     S
C1058  C1066   1.492   .     S
C1059  O1111   1.219   .     D
C1059  H1087   1.084   .     S
C1060  O1112   1.217   .     D
C1060  H1088   1.085   .     S
C1061  O1113   1.218   .     D
C1061  H1090   1.085   .     S
C1062  O1120   1.384   .     S
C1063  O1100   1.377   .     S
C1063  C126    1.400   1_556 S
C1064  C1372   1.394   .     S
C1065  C1634   1.392   1_545 S
C1066  C1676   1.394   1_545 S
H1093  C1149   1.109   .     S
N1097  Zn1121  2.058   .     S
N1098  Zn1122  2.058   .     S
O1099  Zn1121  1.993   .     S
O1110  Zn1122  1.993   .     S
O1114  Zn1122  1.979   .     S
O1115  Zn1121  1.979   .     S
O1116  Zn1121  1.954   .     S
O1117  Zn1122  1.954   .     S
O1118  Zn1122  1.959   .     S
O1119  Zn1121  1.959   .     S
C1123  O1216   1.299   .     A
C1123  O1201   1.297   .     A
C1123  C1126   1.415   .     S
C1124  C1161   1.487   .     S
C1124  C1126   1.408   .     A
C1124  C1473   1.392   .     S
C1125  C1134   1.414   .     S
C1125  C1167   1.407   .     A
C1125  C1168   1.407   .     A
C1126  C1166   1.408   .     A
C1127  C1162   1.473   .     S
C1127  N1200   1.390   .     A
C1127  C925    1.431   1_655 S
C1128  C1163   1.472   .     S
C1128  N1199   1.389   .     A
C1129  N1199   1.362   .     A
C1129  H1191   1.083   .     S
C1130  N1200   1.362   .     A
C1130  H1193   1.083   .     S
C1130  C924    1.431   1_655 S
C1131  O1220   1.318   .     A
C1131  C1133   1.470   .     S
C1131  O1218   1.307   .     A
C1132  O1219   1.312   .     A
C1132  C1135   1.448   .     S
C1132  O1221   1.305   .     A
C1133  C1140   1.395   .     A
C1133  C1138   1.406   .     A
C1134  O1212   1.298   .     A
C1134  O1217   1.298   .     A
C1135  C1141   1.400   .     A
C1135  C1139   1.403   .     A
C1136  O1205   1.375   .     S
C1136  C1138   1.392   .     A
C1136  C1144   1.398   .     A
C1137  C1146   1.404   .     A
C1137  C1139   1.406   .     A
C1137  O1206   1.377   .     S
C1138  O1204   1.381   .     S
C1139  O1203   1.383   .     S
C1140  H1180   1.080   .     S
C1140  C1142   1.414   .     A
C1141  C1143   1.388   .     A
C1141  H1169   1.080   .     S
C1142  C1147   1.405   .     A
C1142  C1144   1.406   .     A
C1143  C1148   1.414   .     A
C1143  C1146   1.395   .     A
C1144  C246    1.403   1_556 S
C1145  C1164   1.401   .     A
C1145  C1148   1.428   .     A
C1145  C1155   1.484   .     S
C1147  C1156   1.411   .     A
C1147  C230    1.425   1_556 S
C1149  H1196   1.112   .     S
C1149  O1222   1.412   .     S
C1149  H1194   1.113   .     S
C1150  H1170   1.111   .     S
C1150  O1202   1.417   .     S
C1150  H279    1.112   1_556 S
C1150  H994    1.107   1_655 S
C1151  H1171   1.112   .     S
C1151  H1172   1.109   .     S
C1151  O1203   1.408   .     S
C1151  H969    1.106   1_655 S
C1152  H1176   1.109   .     S
C1152  H1175   1.112   .     S
C1152  O1204   1.417   .     S
C1152  H1174   1.106   .     S
C1153  O1205   1.424   .     S
C1153  H1178   1.115   .     S
C1153  H1179   1.107   .     S
C1153  H1177   1.112   .     S
C1154  H1182   1.109   .     S
C1154  H1181   1.113   .     S
C1154  H265    1.114   1_556 S
C1154  O288    1.411   1_556 S
C1155  O1207   1.221   .     D
C1155  H1184   1.083   .     S
C1156  C1157   1.487   .     S
C1156  C1165   1.404   .     A
C1157  O1208   1.218   .     D
C1157  H1185   1.084   .     S
C1158  O1209   1.221   .     D
C1158  C1166   1.494   .     S
C1158  H1186   1.085   .     S
C1159  O1210   1.220   .     D
C1159  H1187   1.084   .     S
C1159  C1167   1.495   .     S
C1160  O1211   1.221   .     D
C1160  H1188   1.083   .     S
C1160  C1168   1.492   .     S
C1161  O1213   1.219   .     D
C1161  H1189   1.084   .     S
C1162  O1214   1.217   .     D
C1162  H1190   1.085   .     S
C1163  O1215   1.218   .     D
C1163  H1192   1.085   .     S
C1164  O1222   1.384   .     S
C1165  O1202   1.377   .     S
C1165  C228    1.400   1_556 S
C1166  C1474   1.394   .     S
C1167  C1736   1.392   1_545 S
C1168  C1778   1.394   1_545 S
H1195  C945    1.109   1_655 S
N1199  Zn1223  2.058   .     S
N1200  Zn1224  2.058   .     S
O1201  Zn1223  1.993   .     S
O1212  Zn1224  1.993   .     S
O1216  Zn1224  1.979   .     S
O1217  Zn1223  1.979   .     S
O1218  Zn1223  1.954   .     S
O1219  Zn1224  1.954   .     S
O1220  Zn1224  1.959   .     S
O1221  Zn1223  1.959   .     S
C1225  O1318   1.299   .     A
C1225  O1303   1.297   .     A
C1225  C1228   1.415   .     S
C1226  C1263   1.487   .     S
C1226  C1228   1.408   .     A
C1226  C1575   1.392   .     S
C1227  C1236   1.414   .     S
C1227  C1269   1.407   .     A
C1227  C1270   1.407   .     A
C1228  C1268   1.408   .     A
C1229  C1264   1.473   .     S
C1229  N1302   1.390   .     A
C1229  C1333   1.431   .     S
C1230  C1265   1.472   .     S
C1230  N1301   1.389   .     A
C1230  C1436   1.431   1_455 S
C1231  N1301   1.362   .     A
C1231  H1293   1.083   .     S
C1231  C1433   1.431   1_455 S
C1232  N1302   1.362   .     A
C1232  H1295   1.083   .     S
C1232  C1332   1.431   .     S
C1233  O1322   1.318   .     A
C1233  C1235   1.470   .     S
C1233  O1320   1.307   .     A
C1234  O1321   1.312   .     A
C1234  C1237   1.448   .     S
C1234  O1323   1.305   .     A
C1235  C1242   1.395   .     A
C1235  C1240   1.406   .     A
C1236  O1314   1.298   .     A
C1236  O1319   1.298   .     A
C1237  C1243   1.400   .     A
C1237  C1241   1.403   .     A
C1238  O1307   1.375   .     S
C1238  C1240   1.392   .     A
C1238  C1246   1.398   .     A
C1239  C1248   1.404   .     A
C1239  C1241   1.406   .     A
C1239  O1308   1.377   .     S
C1240  O1306   1.381   .     S
C1241  O1305   1.383   .     S
C1242  H1282   1.080   .     S
C1242  C1244   1.414   .     A
C1243  C1245   1.388   .     A
C1243  H1271   1.080   .     S
C1244  C1249   1.405   .     A
C1244  C1246   1.406   .     A
C1245  C1250   1.414   .     A
C1245  C1248   1.395   .     A
C1246  C348    1.403   1_556 S
C1247  C1266   1.401   .     A
C1247  C1250   1.428   .     A
C1247  C1257   1.484   .     S
C1249  C1258   1.411   .     A
C1249  C332    1.425   1_556 S
C1251  H1298   1.112   .     S
C1251  O1324   1.412   .     S
C1251  H1296   1.113   .     S
C1251  H1501   1.109   1_455 S
C1252  H1272   1.111   .     S
C1252  O1304   1.417   .     S
C1252  H381    1.112   1_556 S
C1252  H1402   1.107   .     S
C1253  H1273   1.112   .     S
C1253  H1274   1.109   .     S
C1253  O1305   1.408   .     S
C1253  H1377   1.106   .     S
C1254  H1278   1.109   .     S
C1254  H1277   1.112   .     S
C1254  O1306   1.417   .     S
C1254  H1276   1.106   .     S
C1255  O1307   1.424   .     S
C1255  H1280   1.115   .     S
C1255  H1281   1.107   .     S
C1255  H1279   1.112   .     S
C1256  H1284   1.109   .     S
C1256  H1283   1.113   .     S
C1256  H367    1.114   1_556 S
C1256  O390    1.411   1_556 S
C1257  O1309   1.221   .     D
C1257  H1286   1.083   .     S
C1258  C1259   1.487   .     S
C1258  C1267   1.404   .     A
C1259  O1310   1.218   .     D
C1259  H1287   1.084   .     S
C1260  O1311   1.221   .     D
C1260  C1268   1.494   .     S
C1260  H1288   1.085   .     S
C1261  O1312   1.220   .     D
C1261  H1289   1.084   .     S
C1261  C1269   1.495   .     S
C1262  O1313   1.221   .     D
C1262  H1290   1.083   .     S
C1262  C1270   1.492   .     S
C1263  O1315   1.219   .     D
C1263  H1291   1.084   .     S
C1264  O1316   1.217   .     D
C1264  H1292   1.085   .     S
C1265  O1317   1.218   .     D
C1265  H1294   1.085   .     S
C1266  O1324   1.384   .     S
C1267  O1304   1.377   .     S
C1267  C330    1.400   1_556 S
C1268  C1576   1.394   .     S
H1275  C1457   1.106   1_455 S
H1297  C1353   1.109   .     S
H1300  C1456   1.107   1_455 S
N1301  Zn1325  2.058   .     S
N1302  Zn1326  2.058   .     S
O1303  Zn1325  1.993   .     S
O1314  Zn1326  1.993   .     S
O1318  Zn1326  1.979   .     S
O1319  Zn1325  1.979   .     S
O1320  Zn1325  1.954   .     S
O1321  Zn1326  1.954   .     S
O1322  Zn1326  1.959   .     S
O1323  Zn1325  1.959   .     S
C1327  O1420   1.299   .     A
C1327  O1405   1.297   .     A
C1327  C1330   1.415   .     S
C1328  C1365   1.487   .     S
C1328  C1330   1.408   .     A
C1328  C1677   1.392   .     S
C1329  C1338   1.414   .     S
C1329  C1371   1.407   .     A
C1329  C1372   1.407   .     A
C1330  C1370   1.408   .     A
C1331  C1366   1.473   .     S
C1331  N1404   1.390   .     A
C1331  C1435   1.431   .     S
C1332  C1367   1.472   .     S
C1332  N1403   1.389   .     A
C1333  N1403   1.362   .     A
C1333  H1395   1.083   .     S
C1334  N1404   1.362   .     A
C1334  H1397   1.083   .     S
C1334  C1434   1.431   .     S
C1335  O1424   1.318   .     A
C1335  C1337   1.470   .     S
C1335  O1422   1.307   .     A
C1336  O1423   1.312   .     A
C1336  C1339   1.448   .     S
C1336  O1425   1.305   .     A
C1337  C1344   1.395   .     A
C1337  C1342   1.406   .     A
C1338  O1416   1.298   .     A
C1338  O1421   1.298   .     A
C1339  C1345   1.400   .     A
C1339  C1343   1.403   .     A
C1340  O1409   1.375   .     S
C1340  C1342   1.392   .     A
C1340  C1348   1.398   .     A
C1341  C1350   1.404   .     A
C1341  C1343   1.406   .     A
C1341  O1410   1.377   .     S
C1342  O1408   1.381   .     S
C1343  O1407   1.383   .     S
C1344  H1384   1.080   .     S
C1344  C1346   1.414   .     A
C1345  C1347   1.388   .     A
C1345  H1373   1.080   .     S
C1346  C1351   1.405   .     A
C1346  C1348   1.406   .     A
C1347  C1352   1.414   .     A
C1347  C1350   1.395   .     A
C1348  C450    1.403   1_556 S
C1349  C1368   1.401   .     A
C1349  C1352   1.428   .     A
C1349  C1359   1.484   .     S
C1351  C1360   1.411   .     A
C1351  C434    1.425   1_556 S
C1353  H1400   1.112   .     S
C1353  O1426   1.412   .     S
C1353  H1398   1.113   .     S
C1354  H1374   1.111   .     S
C1354  O1406   1.417   .     S
C1354  H483    1.112   1_556 S
C1354  H1504   1.107   .     S
C1355  H1375   1.112   .     S
C1355  H1376   1.109   .     S
C1355  O1407   1.408   .     S
C1355  H1479   1.106   .     S
C1356  H1380   1.109   .     S
C1356  H1379   1.112   .     S
C1356  O1408   1.417   .     S
C1356  H1378   1.106   .     S
C1357  O1409   1.424   .     S
C1357  H1382   1.115   .     S
C1357  H1383   1.107   .     S
C1357  H1381   1.112   .     S
C1358  H1386   1.109   .     S
C1358  H1385   1.113   .     S
C1358  H469    1.114   1_556 S
C1358  O492    1.411   1_556 S
C1359  O1411   1.221   .     D
C1359  H1388   1.083   .     S
C1360  C1361   1.487   .     S
C1360  C1369   1.404   .     A
C1361  O1412   1.218   .     D
C1361  H1389   1.084   .     S
C1362  O1413   1.221   .     D
C1362  C1370   1.494   .     S
C1362  H1390   1.085   .     S
C1363  O1414   1.220   .     D
C1363  H1391   1.084   .     S
C1363  C1371   1.495   .     S
C1364  O1415   1.221   .     D
C1364  H1392   1.083   .     S
C1364  C1372   1.492   .     S
C1365  O1417   1.219   .     D
C1365  H1393   1.084   .     S
C1366  O1418   1.217   .     D
C1366  H1394   1.085   .     S
C1367  O1419   1.218   .     D
C1367  H1396   1.085   .     S
C1368  O1426   1.384   .     S
C1369  O1406   1.377   .     S
C1369  C432    1.400   1_556 S
C1370  C1678   1.394   .     S
H1399  C1455   1.109   .     S
N1403  Zn1427  2.058   .     S
N1404  Zn1428  2.058   .     S
O1405  Zn1427  1.993   .     S
O1416  Zn1428  1.993   .     S
O1420  Zn1428  1.979   .     S
O1421  Zn1427  1.979   .     S
O1422  Zn1427  1.954   .     S
O1423  Zn1428  1.954   .     S
O1424  Zn1428  1.959   .     S
O1425  Zn1427  1.959   .     S
C1429  O1522   1.299   .     A
C1429  O1507   1.297   .     A
C1429  C1432   1.415   .     S
C1430  C1467   1.487   .     S
C1430  C1432   1.408   .     A
C1430  C1779   1.392   .     S
C1431  C1440   1.414   .     S
C1431  C1473   1.407   .     A
C1431  C1474   1.407   .     A
C1432  C1472   1.408   .     A
C1433  C1468   1.473   .     S
C1433  N1506   1.390   .     A
C1433  C1231   1.431   1_655 S
C1434  C1469   1.472   .     S
C1434  N1505   1.389   .     A
C1435  N1505   1.362   .     A
C1435  H1497   1.083   .     S
C1436  N1506   1.362   .     A
C1436  H1499   1.083   .     S
C1436  C1230   1.431   1_655 S
C1437  O1526   1.318   .     A
C1437  C1439   1.470   .     S
C1437  O1524   1.307   .     A
C1438  O1525   1.312   .     A
C1438  C1441   1.448   .     S
C1438  O1527   1.305   .     A
C1439  C1446   1.395   .     A
C1439  C1444   1.406   .     A
C1440  O1518   1.298   .     A
C1440  O1523   1.298   .     A
C1441  C1447   1.400   .     A
C1441  C1445   1.403   .     A
C1442  O1511   1.375   .     S
C1442  C1444   1.392   .     A
C1442  C1450   1.398   .     A
C1443  C1452   1.404   .     A
C1443  C1445   1.406   .     A
C1443  O1512   1.377   .     S
C1444  O1510   1.381   .     S
C1445  O1509   1.383   .     S
C1446  H1486   1.080   .     S
C1446  C1448   1.414   .     A
C1447  C1449   1.388   .     A
C1447  H1475   1.080   .     S
C1448  C1453   1.405   .     A
C1448  C1450   1.406   .     A
C1449  C1454   1.414   .     A
C1449  C1452   1.395   .     A
C1450  C552    1.403   1_556 S
C1451  C1470   1.401   .     A
C1451  C1454   1.428   .     A
C1451  C1461   1.484   .     S
C1453  C1462   1.411   .     A
C1453  C536    1.425   1_556 S
C1455  H1502   1.112   .     S
C1455  O1528   1.412   .     S
C1455  H1500   1.113   .     S
C1456  H1476   1.111   .     S
C1456  O1508   1.417   .     S
C1456  H585    1.112   1_556 S
C1456  H1300   1.107   1_655 S
C1457  H1477   1.112   .     S
C1457  H1478   1.109   .     S
C1457  O1509   1.408   .     S
C1457  H1275   1.106   1_655 S
C1458  H1482   1.109   .     S
C1458  H1481   1.112   .     S
C1458  O1510   1.417   .     S
C1458  H1480   1.106   .     S
C1459  O1511   1.424   .     S
C1459  H1484   1.115   .     S
C1459  H1485   1.107   .     S
C1459  H1483   1.112   .     S
C1460  H1488   1.109   .     S
C1460  H1487   1.113   .     S
C1460  H571    1.114   1_556 S
C1460  O594    1.411   1_556 S
C1461  O1513   1.221   .     D
C1461  H1490   1.083   .     S
C1462  C1463   1.487   .     S
C1462  C1471   1.404   .     A
C1463  O1514   1.218   .     D
C1463  H1491   1.084   .     S
C1464  O1515   1.221   .     D
C1464  C1472   1.494   .     S
C1464  H1492   1.085   .     S
C1465  O1516   1.220   .     D
C1465  H1493   1.084   .     S
C1465  C1473   1.495   .     S
C1466  O1517   1.221   .     D
C1466  H1494   1.083   .     S
C1466  C1474   1.492   .     S
C1467  O1519   1.219   .     D
C1467  H1495   1.084   .     S
C1468  O1520   1.217   .     D
C1468  H1496   1.085   .     S
C1469  O1521   1.218   .     D
C1469  H1498   1.085   .     S
C1470  O1528   1.384   .     S
C1471  O1508   1.377   .     S
C1471  C534    1.400   1_556 S
C1472  C1780   1.394   .     S
H1501  C1251   1.109   1_655 S
N1505  Zn1529  2.058   .     S
N1506  Zn1530  2.058   .     S
O1507  Zn1529  1.993   .     S
O1518  Zn1530  1.993   .     S
O1522  Zn1530  1.979   .     S
O1523  Zn1529  1.979   .     S
O1524  Zn1529  1.954   .     S
O1525  Zn1530  1.954   .     S
O1526  Zn1530  1.959   .     S
O1527  Zn1529  1.959   .     S
C1531  O1624   1.299   .     A
C1531  O1609   1.297   .     A
C1531  C1534   1.415   .     S
C1532  C1569   1.487   .     S
C1532  C1534   1.408   .     A
C1532  C963    1.392   1_565 S
C1533  C1542   1.414   .     S
C1533  C1575   1.407   .     A
C1533  C1576   1.407   .     A
C1534  C1574   1.408   .     A
C1535  C1570   1.473   .     S
C1535  N1608   1.390   .     A
C1535  C1639   1.431   .     S
C1536  C1571   1.472   .     S
C1536  N1607   1.389   .     A
C1536  C1742   1.431   1_455 S
C1537  N1607   1.362   .     A
C1537  H1599   1.083   .     S
C1537  C1739   1.431   1_455 S
C1538  N1608   1.362   .     A
C1538  H1601   1.083   .     S
C1538  C1638   1.431   .     S
C1539  O1628   1.318   .     A
C1539  C1541   1.470   .     S
C1539  O1626   1.307   .     A
C1540  O1627   1.312   .     A
C1540  C1543   1.448   .     S
C1540  O1629   1.305   .     A
C1541  C1548   1.395   .     A
C1541  C1546   1.406   .     A
C1542  O1620   1.298   .     A
C1542  O1625   1.298   .     A
C1543  C1549   1.400   .     A
C1543  C1547   1.403   .     A
C1544  O1613   1.375   .     S
C1544  C1546   1.392   .     A
C1544  C1552   1.398   .     A
C1545  C1554   1.404   .     A
C1545  C1547   1.406   .     A
C1545  O1614   1.377   .     S
C1546  O1612   1.381   .     S
C1547  O1611   1.383   .     S
C1548  H1588   1.080   .     S
C1548  C1550   1.414   .     A
C1549  C1551   1.388   .     A
C1549  H1577   1.080   .     S
C1550  C1555   1.405   .     A
C1550  C1552   1.406   .     A
C1551  C1556   1.414   .     A
C1551  C1554   1.395   .     A
C1552  C654    1.403   1_556 S
C1553  C1572   1.401   .     A
C1553  C1556   1.428   .     A
C1553  C1563   1.484   .     S
C1555  C1564   1.411   .     A
C1555  C638    1.425   1_556 S
C1557  H1604   1.112   .     S
C1557  O1630   1.412   .     S
C1557  H1602   1.113   .     S
C1557  H1807   1.109   1_455 S
C1558  H1578   1.111   .     S
C1558  O1610   1.417   .     S
C1558  H687    1.112   1_556 S
C1558  H1708   1.107   .     S
C1559  H1579   1.112   .     S
C1559  H1580   1.109   .     S
C1559  O1611   1.408   .     S
C1559  H1683   1.106   .     S
C1560  H1584   1.109   .     S
C1560  H1583   1.112   .     S
C1560  O1612   1.417   .     S
C1560  H1582   1.106   .     S
C1561  O1613   1.424   .     S
C1561  H1586   1.115   .     S
C1561  H1587   1.107   .     S
C1561  H1585   1.112   .     S
C1562  H1590   1.109   .     S
C1562  H1589   1.113   .     S
C1562  H673    1.114   1_556 S
C1562  O696    1.411   1_556 S
C1563  O1615   1.221   .     D
C1563  H1592   1.083   .     S
C1564  C1565   1.487   .     S
C1564  C1573   1.404   .     A
C1565  O1616   1.218   .     D
C1565  H1593   1.084   .     S
C1566  O1617   1.221   .     D
C1566  C1574   1.494   .     S
C1566  H1594   1.085   .     S
C1567  O1618   1.220   .     D
C1567  H1595   1.084   .     S
C1567  C1575   1.495   .     S
C1568  O1619   1.221   .     D
C1568  H1596   1.083   .     S
C1568  C1576   1.492   .     S
C1569  O1621   1.219   .     D
C1569  H1597   1.084   .     S
C1570  O1622   1.217   .     D
C1570  H1598   1.085   .     S
C1571  O1623   1.218   .     D
C1571  H1600   1.085   .     S
C1572  O1630   1.384   .     S
C1573  O1610   1.377   .     S
C1573  C636    1.400   1_556 S
C1574  C964    1.394   1_565 S
H1581  C1763   1.106   1_455 S
H1603  C1659   1.109   .     S
H1606  C1762   1.107   1_455 S
N1607  Zn1631  2.058   .     S
N1608  Zn1632  2.058   .     S
O1609  Zn1631  1.993   .     S
O1620  Zn1632  1.993   .     S
O1624  Zn1632  1.979   .     S
O1625  Zn1631  1.979   .     S
O1626  Zn1631  1.954   .     S
O1627  Zn1632  1.954   .     S
O1628  Zn1632  1.959   .     S
O1629  Zn1631  1.959   .     S
C1633  O1726   1.299   .     A
C1633  O1711   1.297   .     A
C1633  C1636   1.415   .     S
C1634  C1671   1.487   .     S
C1634  C1636   1.408   .     A
C1634  C1065   1.392   1_565 S
C1635  C1644   1.414   .     S
C1635  C1677   1.407   .     A
C1635  C1678   1.407   .     A
C1636  C1676   1.408   .     A
C1637  C1672   1.473   .     S
C1637  N1710   1.390   .     A
C1637  C1741   1.431   .     S
C1638  C1673   1.472   .     S
C1638  N1709   1.389   .     A
C1639  N1709   1.362   .     A
C1639  H1701   1.083   .     S
C1640  N1710   1.362   .     A
C1640  H1703   1.083   .     S
C1640  C1740   1.431   .     S
C1641  O1730   1.318   .     A
C1641  C1643   1.470   .     S
C1641  O1728   1.307   .     A
C1642  O1729   1.312   .     A
C1642  C1645   1.448   .     S
C1642  O1731   1.305   .     A
C1643  C1650   1.395   .     A
C1643  C1648   1.406   .     A
C1644  O1722   1.298   .     A
C1644  O1727   1.298   .     A
C1645  C1651   1.400   .     A
C1645  C1649   1.403   .     A
C1646  O1715   1.375   .     S
C1646  C1648   1.392   .     A
C1646  C1654   1.398   .     A
C1647  C1656   1.404   .     A
C1647  C1649   1.406   .     A
C1647  O1716   1.377   .     S
C1648  O1714   1.381   .     S
C1649  O1713   1.383   .     S
C1650  H1690   1.080   .     S
C1650  C1652   1.414   .     A
C1651  C1653   1.388   .     A
C1651  H1679   1.080   .     S
C1652  C1657   1.405   .     A
C1652  C1654   1.406   .     A
C1653  C1658   1.414   .     A
C1653  C1656   1.395   .     A
C1654  C756    1.403   1_556 S
C1655  C1674   1.401   .     A
C1655  C1658   1.428   .     A
C1655  C1665   1.484   .     S
C1657  C1666   1.411   .     A
C1657  C740    1.425   1_556 S
C1659  H1706   1.112   .     S
C1659  O1732   1.412   .     S
C1659  H1704   1.113   .     S
C1660  H1680   1.111   .     S
C1660  O1712   1.417   .     S
C1660  H789    1.112   1_556 S
C1660  H1810   1.107   .     S
C1661  H1681   1.112   .     S
C1661  H1682   1.109   .     S
C1661  O1713   1.408   .     S
C1661  H1785   1.106   .     S
C1662  H1686   1.109   .     S
C1662  H1685   1.112   .     S
C1662  O1714   1.417   .     S
C1662  H1684   1.106   .     S
C1663  O1715   1.424   .     S
C1663  H1688   1.115   .     S
C1663  H1689   1.107   .     S
C1663  H1687   1.112   .     S
C1664  H1692   1.109   .     S
C1664  H1691   1.113   .     S
C1664  H775    1.114   1_556 S
C1664  O798    1.411   1_556 S
C1665  O1717   1.221   .     D
C1665  H1694   1.083   .     S
C1666  C1667   1.487   .     S
C1666  C1675   1.404   .     A
C1667  O1718   1.218   .     D
C1667  H1695   1.084   .     S
C1668  O1719   1.221   .     D
C1668  C1676   1.494   .     S
C1668  H1696   1.085   .     S
C1669  O1720   1.220   .     D
C1669  H1697   1.084   .     S
C1669  C1677   1.495   .     S
C1670  O1721   1.221   .     D
C1670  H1698   1.083   .     S
C1670  C1678   1.492   .     S
C1671  O1723   1.219   .     D
C1671  H1699   1.084   .     S
C1672  O1724   1.217   .     D
C1672  H1700   1.085   .     S
C1673  O1725   1.218   .     D
C1673  H1702   1.085   .     S
C1674  O1732   1.384   .     S
C1675  O1712   1.377   .     S
C1675  C738    1.400   1_556 S
C1676  C1066   1.394   1_565 S
H1705  C1761   1.109   .     S
N1709  Zn1733  2.058   .     S
N1710  Zn1734  2.058   .     S
O1711  Zn1733  1.993   .     S
O1722  Zn1734  1.993   .     S
O1726  Zn1734  1.979   .     S
O1727  Zn1733  1.979   .     S
O1728  Zn1733  1.954   .     S
O1729  Zn1734  1.954   .     S
O1730  Zn1734  1.959   .     S
O1731  Zn1733  1.959   .     S
C1735  O1828   1.299   .     A
C1735  O1813   1.297   .     A
C1735  C1738   1.415   .     S
C1736  C1773   1.487   .     S
C1736  C1738   1.408   .     A
C1736  C1167   1.392   1_565 S
C1737  C1746   1.414   .     S
C1737  C1779   1.407   .     A
C1737  C1780   1.407   .     A
C1738  C1778   1.408   .     A
C1739  C1774   1.473   .     S
C1739  N1812   1.390   .     A
C1739  C1537   1.431   1_655 S
C1740  C1775   1.472   .     S
C1740  N1811   1.389   .     A
C1741  N1811   1.362   .     A
C1741  H1803   1.083   .     S
C1742  N1812   1.362   .     A
C1742  H1805   1.083   .     S
C1742  C1536   1.431   1_655 S
C1743  O1832   1.318   .     A
C1743  C1745   1.470   .     S
C1743  O1830   1.307   .     A
C1744  O1831   1.312   .     A
C1744  C1747   1.448   .     S
C1744  O1833   1.305   .     A
C1745  C1752   1.395   .     A
C1745  C1750   1.406   .     A
C1746  O1824   1.298   .     A
C1746  O1829   1.298   .     A
C1747  C1753   1.400   .     A
C1747  C1751   1.403   .     A
C1748  O1817   1.375   .     S
C1748  C1750   1.392   .     A
C1748  C1756   1.398   .     A
C1749  C1758   1.404   .     A
C1749  C1751   1.406   .     A
C1749  O1818   1.377   .     S
C1750  O1816   1.381   .     S
C1751  O1815   1.383   .     S
C1752  H1792   1.080   .     S
C1752  C1754   1.414   .     A
C1753  C1755   1.388   .     A
C1753  H1781   1.080   .     S
C1754  C1759   1.405   .     A
C1754  C1756   1.406   .     A
C1755  C1760   1.414   .     A
C1755  C1758   1.395   .     A
C1756  C858    1.403   1_556 S
C1757  C1776   1.401   .     A
C1757  C1760   1.428   .     A
C1757  C1767   1.484   .     S
C1759  C1768   1.411   .     A
C1759  C842    1.425   1_556 S
C1761  H1808   1.112   .     S
C1761  O1834   1.412   .     S
C1761  H1806   1.113   .     S
C1762  H1782   1.111   .     S
C1762  O1814   1.417   .     S
C1762  H891    1.112   1_556 S
C1762  H1606   1.107   1_655 S
C1763  H1783   1.112   .     S
C1763  H1784   1.109   .     S
C1763  O1815   1.408   .     S
C1763  H1581   1.106   1_655 S
C1764  H1788   1.109   .     S
C1764  H1787   1.112   .     S
C1764  O1816   1.417   .     S
C1764  H1786   1.106   .     S
C1765  O1817   1.424   .     S
C1765  H1790   1.115   .     S
C1765  H1791   1.107   .     S
C1765  H1789   1.112   .     S
C1766  H1794   1.109   .     S
C1766  H1793   1.113   .     S
C1766  H877    1.114   1_556 S
C1766  O900    1.411   1_556 S
C1767  O1819   1.221   .     D
C1767  H1796   1.083   .     S
C1768  C1769   1.487   .     S
C1768  C1777   1.404   .     A
C1769  O1820   1.218   .     D
C1769  H1797   1.084   .     S
C1770  O1821   1.221   .     D
C1770  C1778   1.494   .     S
C1770  H1798   1.085   .     S
C1771  O1822   1.220   .     D
C1771  H1799   1.084   .     S
C1771  C1779   1.495   .     S
C1772  O1823   1.221   .     D
C1772  H1800   1.083   .     S
C1772  C1780   1.492   .     S
C1773  O1825   1.219   .     D
C1773  H1801   1.084   .     S
C1774  O1826   1.217   .     D
C1774  H1802   1.085   .     S
C1775  O1827   1.218   .     D
C1775  H1804   1.085   .     S
C1776  O1834   1.384   .     S
C1777  O1814   1.377   .     S
C1777  C840    1.400   1_556 S
C1778  C1168   1.394   1_565 S
H1807  C1557   1.109   1_655 S
N1811  Zn1835  2.058   .     S
N1812  Zn1836  2.058   .     S
O1813  Zn1835  1.993   .     S
O1824  Zn1836  1.993   .     S
O1828  Zn1836  1.979   .     S
O1829  Zn1835  1.979   .     S
O1830  Zn1835  1.954   .     S
O1831  Zn1836  1.954   .     S
O1832  Zn1836  1.959   .     S
O1833  Zn1835  1.959   .     S
