data_str_m1_o5_o17_pcu_sym.5
_audit_creation_date              2020-01-03
_audit_creation_method            'Materials Studio'
_symmetry_space_group_name_H-M    'P1'
_symmetry_Int_Tables_number       1
_symmetry_cell_setting            triclinic
loop_
_symmetry_equiv_pos_as_xyz
  x,y,z
_cell_length_a                    31.9015
_cell_length_b                    31.8258
_cell_length_c                    34.3410
_cell_angle_alpha                 90.0353
_cell_angle_beta                  90.0004
_cell_angle_gamma                 90.0015
loop_
_atom_site_label
_atom_site_type_symbol
_atom_site_fract_x
_atom_site_fract_y
_atom_site_fract_z
_atom_site_U_iso_or_equiv
_atom_site_adp_type
_atom_site_occupancy
C1     C     0.25000   0.00003   0.35599   0.00000  Uiso   1.00
C2     C     0.33002   0.41995   0.74998   0.00000  Uiso   1.00
C3     C     0.43423   0.20987   0.02018   0.00000  Uiso   1.00
C4     C     0.21984   0.07059   0.98019   0.00000  Uiso   1.00
C5     C     0.28533   0.43188   0.02066   0.00000  Uiso   1.00
C6     C     0.43327   0.21186   0.97921   0.00000  Uiso   1.00
C7     C     0.06667   0.28800   0.02006   0.00000  Uiso   1.00
C8     C     0.40281   0.15103   0.46172   0.00000  Uiso   1.00
C9     C     0.38392   0.11111   0.44416   0.00000  Uiso   1.00
C10    C     0.33646   0.10950   0.44962   0.00000  Uiso   1.00
C11    C     0.00310   0.38078   0.54501   0.00000  Uiso   1.00
C12    C     0.49147   0.40594   0.50837   0.00000  Uiso   1.00
C13    C     0.41998   0.16995   0.24998   0.00000  Uiso   1.00
C14    C     0.45807   0.43865   0.51710   0.00000  Uiso   1.00
C15    C     0.35329   0.40314   0.46273   0.00000  Uiso   1.00
C16    C     0.38858   0.38706   0.43650   0.00000  Uiso   1.00
C17    C     0.39681   0.34028   0.44275   0.00000  Uiso   1.00
C18    C     0.12597   0.01550   0.55639   0.00000  Uiso   1.00
C19    C     0.11566   0.48063   0.52684   0.00000  Uiso   1.00
C20    C     0.09046   0.44593   0.54616   0.00000  Uiso   1.00
C21    C     0.09560   0.35201   0.46223   0.00000  Uiso   1.00
C22    C     0.11285   0.39106   0.44180   0.00000  Uiso   1.00
C23    C     0.16019   0.39509   0.44714   0.00000  Uiso   1.00
C24    C     0.08002   0.33005   0.75002   0.00000  Uiso   1.00
C25    C     0.49451   0.11690   0.54270   0.00000  Uiso   1.00
C26    C     0.49803   0.08703   0.50773   0.00000  Uiso   1.00
C27    C     0.02986   0.05237   0.51500   0.00000  Uiso   1.00
C28    C     0.14872   0.09927   0.46116   0.00000  Uiso   1.00
C29    C     0.10953   0.11471   0.43986   0.00000  Uiso   1.00
C30    C     0.10389   0.16215   0.44392   0.00000  Uiso   1.00
C31    C     0.37288   0.49028   0.55820   0.00000  Uiso   1.00
C32    C     0.38178   0.02705   0.53026   0.00000  Uiso   1.00
C33    C     0.39512   0.06578   0.55310   0.00000  Uiso   1.00
C34    C     0.25289   0.36896   0.95536   0.00000  Uiso   1.00
C35    C     0.33003   0.41996   0.25001   0.00000  Uiso   1.00
C36    C     0.24217   0.34332   0.99195   0.00000  Uiso   1.00
C37    C     0.20886   0.31042   0.98351   0.00000  Uiso   1.00
C38    C     0.15307   0.09921   0.03825   0.00000  Uiso   1.00
C39    C     0.13426   0.13917   0.05582   0.00000  Uiso   1.00
C40    C     0.08679   0.14083   0.05040   0.00000  Uiso   1.00
C41    C     0.12296   0.25991   0.94180   0.00000  Uiso   1.00
C42    C     0.13182   0.22310   0.96970   0.00000  Uiso   1.00
C43    C     0.14570   0.18455   0.94686   0.00000  Uiso   1.00
C44    C     0.39832   0.15108   0.03877   0.00000  Uiso   1.00
C45    C     0.35935   0.13579   0.06050   0.00000  Uiso   1.00
C46    C     0.16997   0.08004   0.74999   0.00000  Uiso   1.00
C47    C     0.35327   0.08842   0.05620   0.00000  Uiso   1.00
C48    C     0.24494   0.13317   0.95737   0.00000  Uiso   1.00
C49    C     0.24848   0.16301   0.99235   0.00000  Uiso   1.00
C50    C     0.28039   0.19762   0.98515   0.00000  Uiso   1.00
C51    C     0.34552   0.39804   0.03773   0.00000  Uiso   1.00
C52    C     0.36282   0.35879   0.05780   0.00000  Uiso   1.00
C53    C     0.41017   0.35490   0.05245   0.00000  Uiso   1.00
C54    C     0.37604   0.23475   0.94335   0.00000  Uiso   1.00
C55    C     0.36593   0.26993   0.97264   0.00000  Uiso   1.00
C56    C     0.34132   0.30481   0.95294   0.00000  Uiso   1.00
C57    C     0.08003   0.33004   0.24999   0.00000  Uiso   1.00
C58    C     0.10348   0.34671   0.03737   0.00000  Uiso   1.00
C59    C     0.13899   0.36262   0.06344   0.00000  Uiso   1.00
C60    C     0.14743   0.40936   0.05714   0.00000  Uiso   1.00
C61    C     0.41997   0.16996   0.75001   0.00000  Uiso   1.00
C62    C     0.16997   0.41995   0.74998   0.00000  Uiso   1.00
C63    C     0.33002   0.08005   0.25002   0.00000  Uiso   1.00
C64    C     0.41997   0.33005   0.75002   0.00000  Uiso   1.00
C65    C     0.24987  -0.00000   0.64410   0.00000  Uiso   1.00
C66    C     0.08002   0.16995   0.24998   0.00000  Uiso   1.00
C67    C     0.33003   0.08004   0.74998   0.00000  Uiso   1.00
C68    C     0.16997   0.41996   0.25001   0.00000  Uiso   1.00
C69    C     0.08003   0.16996   0.75001   0.00000  Uiso   1.00
C70    C     0.41997   0.33004   0.24999   0.00000  Uiso   1.00
C71    C     0.13833   0.38831   0.25001   0.00000  Uiso   1.00
C72    C     0.36167   0.11169   0.74998   0.00000  Uiso   1.00
C73    C     0.11166   0.13830   0.24998   0.00000  Uiso   1.00
C74    C     0.38834   0.36170   0.75002   0.00000  Uiso   1.00
C75    C     0.36166   0.11170   0.25002   0.00000  Uiso   1.00
C76    C     0.00000   0.25003   0.35585   0.00000  Uiso   1.00
C77    C     0.13834   0.38830   0.74998   0.00000  Uiso   1.00
C78    C     0.38833   0.36169   0.24999   0.00000  Uiso   1.00
C79    C     0.11167   0.13831   0.75002   0.00000  Uiso   1.00
C80    C     0.13833   0.11169   0.74999   0.00000  Uiso   1.00
C81    C     0.36167   0.38831   0.25002   0.00000  Uiso   1.00
C82    C     0.11166   0.36170   0.75002   0.00000  Uiso   1.00
C83    C     0.38834   0.13830   0.24997   0.00000  Uiso   1.00
C84    C     0.36166   0.38830   0.74998   0.00000  Uiso   1.00
C85    C     0.13834   0.11170   0.25002   0.00000  Uiso   1.00
C86    C     0.38833   0.13831   0.75001   0.00000  Uiso   1.00
C87    C     0.00001   0.24989   0.64405   0.00000  Uiso   1.00
C88    C     0.11167   0.36169   0.24998   0.00000  Uiso   1.00
C89    C     0.01943   0.28277   0.41812   0.00000  Uiso   1.00
C90    C     0.48457   0.21501   0.58145   0.00000  Uiso   1.00
C91    C     0.21829   0.02122   0.41850   0.00000  Uiso   1.00
C92    C     0.27939   0.47648   0.58165   0.00000  Uiso   1.00
C93    C     0.48062   0.21723   0.41804   0.00000  Uiso   1.00
C94    C     0.01591   0.28442   0.58152   0.00000  Uiso   1.00
C95    C     0.28202   0.47959   0.41858   0.00000  Uiso   1.00
C96    C     0.22033   0.02403   0.58179   0.00000  Uiso   1.00
C97    C     0.23471   0.03505   0.91855   0.00000  Uiso   1.00
C98    C     0.49989   0.25000   0.85590   0.00000  Uiso   1.00
C99    C     0.26936   0.46720   0.08189   0.00000  Uiso   1.00
C100   C     0.47037   0.22597   0.91821   0.00000  Uiso   1.00
C101   C     0.03205   0.27037   0.08142   0.00000  Uiso   1.00
C102   C     0.26572   0.46549   0.91848   0.00000  Uiso   1.00
C103   C     0.23071   0.03283   0.08196   0.00000  Uiso   1.00
C104   C     0.02943   0.27353   0.91834   0.00000  Uiso   1.00
C105   C     0.46822   0.22889   0.08149   0.00000  Uiso   1.00
C106   C     0.00002   0.25002   0.39803   0.00000  Uiso   1.00
C107   C     0.00012   0.24977   0.60166   0.00000  Uiso   1.00
C108   C     0.25004   0.00016   0.39838   0.00000  Uiso   1.00
C109   C    -0.00000   0.24998   0.14401   0.00000  Uiso   1.00
C110   C     0.24975   0.00004   0.60187   0.00000  Uiso   1.00
C111   C     0.25010   0.00022   0.89834   0.00000  Uiso   1.00
C112   C     0.25002   0.00000   0.10197   0.00000  Uiso   1.00
C113   C     0.49979   0.24996   0.89813   0.00000  Uiso   1.00
C114   C     0.00003   0.24985   0.10161   0.00000  Uiso   1.00
C115   C     0.48147   0.21619   0.45875   0.00000  Uiso   1.00
C116   C     0.01582   0.28494   0.54071   0.00000  Uiso   1.00
C117   C     0.28302   0.48035   0.45937   0.00000  Uiso   1.00
C118   C     0.21782   0.02143   0.54117   0.00000  Uiso   1.00
C119   C     0.01876   0.28366   0.45884   0.00000  Uiso   1.00
C120   C     0.25001   0.00011   0.85595   0.00000  Uiso   1.00
C121   C     0.48474   0.21452   0.54062   0.00000  Uiso   1.00
C122   C     0.21758   0.02120   0.45928   0.00000  Uiso   1.00
C123   C     0.28254   0.48016   0.54117   0.00000  Uiso   1.00
C124   C     0.26566   0.46499   0.95929   0.00000  Uiso   1.00
C125   C     0.23157   0.03387   0.04125   0.00000  Uiso   1.00
C126   C     0.03256   0.26987   0.95883   0.00000  Uiso   1.00
C127   C     0.46751   0.22893   0.04070   0.00000  Uiso   1.00
C128   C     0.23486   0.03554   0.95938   0.00000  Uiso   1.00
C129   C     0.26868   0.46632   0.04117   0.00000  Uiso   1.00
C130   C     0.46781   0.22865   0.95882   0.00000  Uiso   1.00
C131   C     0.25000   0.49998   0.14415   0.00000  Uiso   1.00
C132   C     0.03304   0.26965   0.04063   0.00000  Uiso   1.00
C133   C     0.00025   0.24983   0.47928   0.00000  Uiso   1.00
C134   C     0.00033   0.24974   0.52020   0.00000  Uiso   1.00
C135   C     0.25029   0.00083   0.47977   0.00000  Uiso   1.00
C136   C     0.25020   0.00080   0.52063   0.00000  Uiso   1.00
C137   C     0.25031   0.00026   0.97980   0.00000  Uiso   1.00
C138   C     0.25024   0.00018   0.02072   0.00000  Uiso   1.00
C139   C     0.00020   0.24926   0.97937   0.00000  Uiso   1.00
C140   C     0.00027   0.24924   0.02022   0.00000  Uiso   1.00
C141   C     0.46443   0.18194   0.47919   0.00000  Uiso   1.00
C142   C     0.16997   0.08005   0.25002   0.00000  Uiso   1.00
C143   C     0.03048   0.32021   0.52001   0.00000  Uiso   1.00
C144   C     0.31663   0.46197   0.47995   0.00000  Uiso   1.00
C145   C     0.18336   0.03832   0.52077   0.00000  Uiso   1.00
C146   C     0.03548   0.31806   0.47935   0.00000  Uiso   1.00
C147   C     0.46960   0.17952   0.51981   0.00000  Uiso   1.00
C148   C     0.18435   0.04035   0.47980   0.00000  Uiso   1.00
C149   C     0.31771   0.46451   0.52090   0.00000  Uiso   1.00
C150   C     0.28026   0.42971   0.98001   0.00000  Uiso   1.00
C151   C     0.21463   0.06817   0.02081   0.00000  Uiso   1.00
C152   C     0.06772   0.28552   0.97910   0.00000  Uiso   1.00
H153   H     0.03390   0.30803   0.40175   0.00000  Uiso   1.00
H154   H     0.28377   0.44191   0.09825   0.00000  Uiso   1.00
H155   H     0.38094   0.07134   0.06781   0.00000  Uiso   1.00
H156   H     0.24105   0.15208   0.93045   0.00000  Uiso   1.00
H157   H     0.27477   0.11524   0.95352   0.00000  Uiso   1.00
H158   H     0.21759   0.17760   0.99854   0.00000  Uiso   1.00
H159   H     0.25862   0.14513   0.01843   0.00000  Uiso   1.00
H160   H     0.31188   0.18352   0.98092   0.00000  Uiso   1.00
H161   H     0.28147   0.21885   0.01079   0.00000  Uiso   1.00
H162   H     0.27160   0.21636   0.95912   0.00000  Uiso   1.00
H163   H     0.35864   0.42641   0.05236   0.00000  Uiso   1.00
H164   H     0.35575   0.39776   0.00671   0.00000  Uiso   1.00
H165   H     0.44829   0.20695   0.90191   0.00000  Uiso   1.00
H166   H     0.35549   0.36022   0.08942   0.00000  Uiso   1.00
H167   H     0.34749   0.33037   0.04551   0.00000  Uiso   1.00
H168   H     0.41813   0.35263   0.02103   0.00000  Uiso   1.00
H169   H     0.42156   0.32605   0.06726   0.00000  Uiso   1.00
H170   H     0.42633   0.38254   0.06529   0.00000  Uiso   1.00
H171   H     0.34623   0.22319   0.93061   0.00000  Uiso   1.00
H172   H     0.39370   0.24804   0.91847   0.00000  Uiso   1.00
H173   H     0.34763   0.25719   0.99745   0.00000  Uiso   1.00
H174   H     0.39530   0.28391   0.98423   0.00000  Uiso   1.00
H175   H     0.35855   0.31695   0.92719   0.00000  Uiso   1.00
H176   H     0.05656   0.28610   0.09775   0.00000  Uiso   1.00
H177   H     0.33732   0.33093   0.97383   0.00000  Uiso   1.00
H178   H     0.31014   0.29295   0.94370   0.00000  Uiso   1.00
H179   H     0.07357   0.36147   0.04718   0.00000  Uiso   1.00
H180   H     0.11007   0.35640   0.00685   0.00000  Uiso   1.00
H181   H     0.13059   0.35718   0.09444   0.00000  Uiso   1.00
H182   H     0.16811   0.34479   0.05707   0.00000  Uiso   1.00
H183   H     0.15742   0.41519   0.02662   0.00000  Uiso   1.00
H184   H     0.17294   0.41985   0.07690   0.00000  Uiso   1.00
H185   H     0.11882   0.42801   0.06352   0.00000  Uiso   1.00
H186   H     0.27764   0.43889   0.90215   0.00000  Uiso   1.00
H187   H     0.21620   0.05805   0.09837   0.00000  Uiso   1.00
H188   H     0.05146   0.29274   0.90220   0.00000  Uiso   1.00
H189   H     0.44370   0.21329   0.09788   0.00000  Uiso   1.00
H190   H     0.39120   0.17874   0.44511   0.00000  Uiso   1.00
H191   H     0.39223   0.15377   0.49255   0.00000  Uiso   1.00
H192   H     0.39132   0.10983   0.41255   0.00000  Uiso   1.00
H193   H     0.47248   0.18847   0.59772   0.00000  Uiso   1.00
H194   H     0.39810   0.08311   0.45829   0.00000  Uiso   1.00
H195   H     0.32845   0.10967   0.48110   0.00000  Uiso   1.00
H196   H     0.32392   0.08018   0.43646   0.00000  Uiso   1.00
H197   H     0.32143   0.13685   0.43519   0.00000  Uiso   1.00
H198   H     0.00914   0.40296   0.56934   0.00000  Uiso   1.00
H199   H     0.47602   0.36107   0.55445   0.00000  Uiso   1.00
H200   H     0.01949   0.42210   0.49646   0.00000  Uiso   1.00
H201   H     0.47912   0.38428   0.48576   0.00000  Uiso   1.00
H202   H     0.42956   0.42287   0.52839   0.00000  Uiso   1.00
H203   H     0.44993   0.45581   0.49001   0.00000  Uiso   1.00
H204   H     0.19380   0.03687   0.40211   0.00000  Uiso   1.00
H205   H     0.46983   0.46165   0.53885   0.00000  Uiso   1.00
H206   H     0.32328   0.38843   0.45312   0.00000  Uiso   1.00
H207   H     0.36005   0.39352   0.49323   0.00000  Uiso   1.00
H208   H     0.38006   0.39255   0.40553   0.00000  Uiso   1.00
H209   H     0.41784   0.40473   0.44274   0.00000  Uiso   1.00
H210   H     0.40685   0.33437   0.47324   0.00000  Uiso   1.00
H211   H     0.42220   0.32966   0.42292   0.00000  Uiso   1.00
H212   H     0.36807   0.32178   0.43644   0.00000  Uiso   1.00
H213   H     0.09624   0.02712   0.56923   0.00000  Uiso   1.00
H214   H     0.14359   0.00189   0.58114   0.00000  Uiso   1.00
H215   H     0.30143   0.45727   0.59779   0.00000  Uiso   1.00
H216   H     0.09772   0.49374   0.50197   0.00000  Uiso   1.00
H217   H     0.14496   0.46638   0.51538   0.00000  Uiso   1.00
H218   H     0.10729   0.43345   0.57200   0.00000  Uiso   1.00
H219   H     0.08638   0.41997   0.52512   0.00000  Uiso   1.00
H220   H     0.05932   0.45808   0.55517   0.00000  Uiso   1.00
H221   H     0.10875   0.32351   0.44785   0.00000  Uiso   1.00
H222   H     0.10583   0.35263   0.49325   0.00000  Uiso   1.00
H223   H     0.10555   0.38926   0.41019   0.00000  Uiso   1.00
H224   H     0.09747   0.41960   0.45380   0.00000  Uiso   1.00
H225   H     0.16812   0.39774   0.47854   0.00000  Uiso   1.00
H226   H     0.46604   0.19205   0.40163   0.00000  Uiso   1.00
H227   H     0.17155   0.42378   0.43204   0.00000  Uiso   1.00
H228   H     0.17640   0.36732   0.43459   0.00000  Uiso   1.00
H229   H     0.49054   0.09802   0.56962   0.00000  Uiso   1.00
H230   H     0.02438   0.13476   0.54657   0.00000  Uiso   1.00
H231   H     0.46712   0.07250   0.50153   0.00000  Uiso   1.00
H232   H     0.00824   0.10487   0.48166   0.00000  Uiso   1.00
H233   H     0.06138   0.06641   0.51919   0.00000  Uiso   1.00
H234   H     0.03088   0.03107   0.48940   0.00000  Uiso   1.00
H235   H     0.02104   0.03371   0.54107   0.00000  Uiso   1.00
H236   H     0.17696   0.11260   0.44658   0.00000  Uiso   1.00
H237   H     0.02797   0.31096   0.59786   0.00000  Uiso   1.00
H238   H     0.14746   0.11078   0.49176   0.00000  Uiso   1.00
H239   H     0.11194   0.10645   0.40848   0.00000  Uiso   1.00
H240   H     0.08146   0.09878   0.45202   0.00000  Uiso   1.00
H241   H     0.09992   0.17087   0.47503   0.00000  Uiso   1.00
H242   H     0.07545   0.17218   0.42774   0.00000  Uiso   1.00
H243   H     0.13148   0.17892   0.43176   0.00000  Uiso   1.00
H244   H     0.40305   0.48042   0.57139   0.00000  Uiso   1.00
H245   H     0.35391   0.00139   0.58313   0.00000  Uiso   1.00
H246   H     0.40679   0.01810   0.50936   0.00000  Uiso   1.00
H247   H     0.35338   0.03575   0.51343   0.00000  Uiso   1.00
H248   H     0.30649   0.46380   0.40226   0.00000  Uiso   1.00
H249   H     0.37045   0.07490   0.57432   0.00000  Uiso   1.00
H250   H     0.39951   0.09223   0.53267   0.00000  Uiso   1.00
H251   H     0.42481   0.05954   0.56891   0.00000  Uiso   1.00
H252   H     0.25860   0.34709   0.93072   0.00000  Uiso   1.00
H253   H     0.22548   0.38857   0.94656   0.00000  Uiso   1.00
H254   H     0.27056   0.32727   0.00322   0.00000  Uiso   1.00
H255   H     0.23009   0.36463   0.01496   0.00000  Uiso   1.00
H256   H     0.17995   0.32608   0.97297   0.00000  Uiso   1.00
H257   H     0.20150   0.29286   0.01058   0.00000  Uiso   1.00
H258   H     0.22031   0.28780   0.96128   0.00000  Uiso   1.00
H259   H     0.19822   0.04301   0.59809   0.00000  Uiso   1.00
H260   H     0.14140   0.07151   0.05485   0.00000  Uiso   1.00
H261   H     0.14250   0.09651   0.00742   0.00000  Uiso   1.00
H262   H     0.14169   0.14044   0.08743   0.00000  Uiso   1.00
H263   H     0.14847   0.16714   0.04167   0.00000  Uiso   1.00
H264   H     0.07875   0.14063   0.01893   0.00000  Uiso   1.00
H265   H     0.07431   0.17018   0.06354   0.00000  Uiso   1.00
H266   H     0.07174   0.11351   0.06486   0.00000  Uiso   1.00
H267   H     0.15317   0.26985   0.92871   0.00000  Uiso   1.00
H268   H     0.10407   0.24882   0.91681   0.00000  Uiso   1.00
H269   H     0.15652   0.23214   0.99088   0.00000  Uiso   1.00
H270   H     0.22274   0.06165   0.90227   0.00000  Uiso   1.00
H271   H     0.10328   0.21414   0.98621   0.00000  Uiso   1.00
H272   H     0.12136   0.17536   0.92534   0.00000  Uiso   1.00
H273   H     0.15000   0.15805   0.96725   0.00000  Uiso   1.00
H274   H     0.17555   0.19106   0.93142   0.00000  Uiso   1.00
H275   H     0.42669   0.13757   0.05300   0.00000  Uiso   1.00
H276   H     0.39659   0.13967   0.00816   0.00000  Uiso   1.00
H277   H     0.36232   0.14378   0.09189   0.00000  Uiso   1.00
H278   H     0.33121   0.15203   0.04884   0.00000  Uiso   1.00
H279   H     0.34867   0.07999   0.02509   0.00000  Uiso   1.00
H280   H     0.32504   0.07848   0.07274   0.00000  Uiso   1.00
O281   O     0.25000   0.00000   0.25000   0.00000  Uiso   1.00
O282   O     0.25000   0.46539   0.66251   0.00000  Uiso   1.00
O283   O     0.46538   0.25000   0.33749   0.00000  Uiso   1.00
O284   O     0.03461   0.25000   0.66251   0.00000  Uiso   1.00
O285   O     0.00000   0.21539   0.83749   0.00000  Uiso   1.00
O286   O     0.00000   0.28462   0.16251   0.00000  Uiso   1.00
O287   O     0.28461   0.00000   0.83749   0.00000  Uiso   1.00
O288   O     0.21538   0.00000   0.16251   0.00000  Uiso   1.00
O289   O     0.00000   0.28462   0.83749   0.00000  Uiso   1.00
O290   O     0.00000   0.21539   0.16251   0.00000  Uiso   1.00
O291   O     0.21538   0.00000   0.83749   0.00000  Uiso   1.00
O292   O     0.25000   0.00000   0.75000   0.00000  Uiso   1.00
O293   O     0.28461   0.00000   0.16251   0.00000  Uiso   1.00
O294   O     0.20126   0.08332   0.27298   0.00000  Uiso   1.00
O295   O     0.29873   0.41668   0.72702   0.00000  Uiso   1.00
O296   O     0.41668   0.20127   0.27298   0.00000  Uiso   1.00
O297   O     0.08332   0.29874   0.72702   0.00000  Uiso   1.00
O298   O     0.29873   0.41668   0.27298   0.00000  Uiso   1.00
O299   O     0.20126   0.08332   0.72702   0.00000  Uiso   1.00
O300   O     0.08332   0.29874   0.27298   0.00000  Uiso   1.00
O301   O     0.41668   0.20127   0.72702   0.00000  Uiso   1.00
O302   O     0.20126   0.41668   0.72702   0.00000  Uiso   1.00
O303   O    -0.00000   0.25000   0.25000   0.00000  Uiso   1.00
O304   O     0.29873   0.08332   0.27298   0.00000  Uiso   1.00
O305   O     0.41668   0.29874   0.72702   0.00000  Uiso   1.00
O306   O     0.08332   0.20127   0.27298   0.00000  Uiso   1.00
O307   O     0.29873   0.08332   0.72702   0.00000  Uiso   1.00
O308   O     0.20126   0.41668   0.27298   0.00000  Uiso   1.00
O309   O     0.08332   0.20127   0.72702   0.00000  Uiso   1.00
O310   O     0.41668   0.29874   0.27298   0.00000  Uiso   1.00
O311   O     0.45126   0.33332   0.77298   0.00000  Uiso   1.00
O312   O     0.04873   0.16668   0.22702   0.00000  Uiso   1.00
O313   O     0.16668   0.45127   0.77298   0.00000  Uiso   1.00
O314   O    -0.00000   0.25000   0.75000   0.00000  Uiso   1.00
O315   O     0.33332   0.04874   0.22702   0.00000  Uiso   1.00
O316   O     0.04873   0.16668   0.77298   0.00000  Uiso   1.00
O317   O     0.45126   0.33332   0.22702   0.00000  Uiso   1.00
O318   O     0.33332   0.04874   0.77298   0.00000  Uiso   1.00
O319   O     0.16668   0.45127   0.22702   0.00000  Uiso   1.00
O320   O     0.45126   0.16668   0.22702   0.00000  Uiso   1.00
O321   O     0.04873   0.33332   0.77298   0.00000  Uiso   1.00
O322   O     0.16668   0.04874   0.22702   0.00000  Uiso   1.00
O323   O     0.33332   0.45127   0.77298   0.00000  Uiso   1.00
O324   O     0.04873   0.33332   0.22702   0.00000  Uiso   1.00
O325   O     0.25000   0.46539   0.33749   0.00000  Uiso   1.00
O326   O     0.45126   0.16668   0.77298   0.00000  Uiso   1.00
O327   O     0.33332   0.45127   0.22702   0.00000  Uiso   1.00
O328   O     0.16668   0.04874   0.77298   0.00000  Uiso   1.00
O329   O     0.44691   0.14858   0.45908   0.00000  Uiso   1.00
O330   O     0.04024   0.35710   0.53923   0.00000  Uiso   1.00
O331   O     0.35129   0.44737   0.45971   0.00000  Uiso   1.00
O332   O     0.14694   0.05064   0.53976   0.00000  Uiso   1.00
O333   O     0.05146   0.35218   0.45922   0.00000  Uiso   1.00
O334   O     0.45874   0.14305   0.53913   0.00000  Uiso   1.00
O335   O     0.14964   0.05493   0.45967   0.00000  Uiso   1.00
O336   O     0.25000   0.03462   0.66251   0.00000  Uiso   1.00
O337   O     0.35486   0.45441   0.53985   0.00000  Uiso   1.00
O338   O     0.28997   0.39282   0.96077   0.00000  Uiso   1.00
O339   O     0.19717   0.10158   0.04092   0.00000  Uiso   1.00
O340   O     0.10484   0.29572   0.96015   0.00000  Uiso   1.00
O341   O     0.39947   0.19542   0.04032   0.00000  Uiso   1.00
O342   O     0.20910   0.10710   0.96087   0.00000  Uiso   1.00
O343   O     0.30139   0.39780   0.04077   0.00000  Uiso   1.00
O344   O     0.39683   0.19963   0.96020   0.00000  Uiso   1.00
O345   O     0.10138   0.30248   0.04030   0.00000  Uiso   1.00
O346   O     0.03461   0.25000   0.33749   0.00000  Uiso   1.00
O347   O     0.46538   0.25000   0.66251   0.00000  Uiso   1.00
O348   O     0.25000   0.03462   0.33749   0.00000  Uiso   1.00
Zn349  Zn    0.20052   0.00000   0.21730   0.00000  Uiso   1.00
Zn350  Zn    0.04947   0.25000   0.28270   0.00000  Uiso   1.00
Zn351  Zn    0.25000   0.45053   0.71730   0.00000  Uiso   1.00
Zn352  Zn    0.25000   0.04948   0.28270   0.00000  Uiso   1.00
Zn353  Zn    0.04947   0.25000   0.71730   0.00000  Uiso   1.00
Zn354  Zn    0.45052   0.25000   0.28270   0.00000  Uiso   1.00
Zn355  Zn    0.25000   0.04948   0.71730   0.00000  Uiso   1.00
Zn356  Zn    0.25000   0.45053   0.28270   0.00000  Uiso   1.00
Zn357  Zn    0.29947   0.00000   0.78270   0.00000  Uiso   1.00
Zn358  Zn    0.00000   0.20053   0.21730   0.00000  Uiso   1.00
Zn359  Zn    0.00000   0.29948   0.78270   0.00000  Uiso   1.00
Zn360  Zn    0.29947   0.00000   0.21730   0.00000  Uiso   1.00
Zn361  Zn    0.20052   0.00000   0.78270   0.00000  Uiso   1.00
Zn362  Zn    0.00000   0.29948   0.21730   0.00000  Uiso   1.00
Zn363  Zn    0.00000   0.20053   0.78270   0.00000  Uiso   1.00
Zn364  Zn    0.45052   0.25000   0.71730   0.00000  Uiso   1.00
C365   C     0.75000   0.00003   0.35599   0.00000  Uiso   1.00
C366   C     0.83002   0.41995   0.74998   0.00000  Uiso   1.00
C367   C     0.93423   0.20987   0.02018   0.00000  Uiso   1.00
C368   C     0.71984   0.07059   0.98019   0.00000  Uiso   1.00
C369   C     0.78533   0.43188   0.02066   0.00000  Uiso   1.00
C370   C     0.93327   0.21186   0.97921   0.00000  Uiso   1.00
C371   C     0.56667   0.28800   0.02006   0.00000  Uiso   1.00
C372   C     0.90281   0.15103   0.46172   0.00000  Uiso   1.00
C373   C     0.88392   0.11111   0.44416   0.00000  Uiso   1.00
C374   C     0.83646   0.10950   0.44962   0.00000  Uiso   1.00
C375   C     0.50310   0.38078   0.54501   0.00000  Uiso   1.00
C376   C     0.99147   0.40594   0.50837   0.00000  Uiso   1.00
C377   C     0.91998   0.16995   0.24998   0.00000  Uiso   1.00
C378   C     0.95807   0.43865   0.51710   0.00000  Uiso   1.00
C379   C     0.85329   0.40314   0.46273   0.00000  Uiso   1.00
C380   C     0.88858   0.38706   0.43650   0.00000  Uiso   1.00
C381   C     0.89681   0.34028   0.44275   0.00000  Uiso   1.00
C382   C     0.62597   0.01550   0.55639   0.00000  Uiso   1.00
C383   C     0.61566   0.48063   0.52684   0.00000  Uiso   1.00
C384   C     0.59046   0.44593   0.54616   0.00000  Uiso   1.00
C385   C     0.59560   0.35201   0.46223   0.00000  Uiso   1.00
C386   C     0.61285   0.39106   0.44180   0.00000  Uiso   1.00
C387   C     0.66019   0.39509   0.44714   0.00000  Uiso   1.00
C388   C     0.58002   0.33005   0.75002   0.00000  Uiso   1.00
C389   C     0.99451   0.11690   0.54270   0.00000  Uiso   1.00
C390   C     0.99803   0.08703   0.50773   0.00000  Uiso   1.00
C391   C     0.52986   0.05237   0.51500   0.00000  Uiso   1.00
C392   C     0.64872   0.09927   0.46116   0.00000  Uiso   1.00
C393   C     0.60953   0.11471   0.43986   0.00000  Uiso   1.00
C394   C     0.60389   0.16215   0.44392   0.00000  Uiso   1.00
C395   C     0.87288   0.49028   0.55820   0.00000  Uiso   1.00
C396   C     0.88178   0.02705   0.53026   0.00000  Uiso   1.00
C397   C     0.89512   0.06578   0.55310   0.00000  Uiso   1.00
C398   C     0.75289   0.36896   0.95536   0.00000  Uiso   1.00
C399   C     0.83003   0.41996   0.25001   0.00000  Uiso   1.00
C400   C     0.74217   0.34332   0.99195   0.00000  Uiso   1.00
C401   C     0.70886   0.31042   0.98351   0.00000  Uiso   1.00
C402   C     0.65307   0.09921   0.03825   0.00000  Uiso   1.00
C403   C     0.63426   0.13917   0.05582   0.00000  Uiso   1.00
C404   C     0.58679   0.14083   0.05040   0.00000  Uiso   1.00
C405   C     0.62296   0.25991   0.94180   0.00000  Uiso   1.00
C406   C     0.63182   0.22310   0.96970   0.00000  Uiso   1.00
C407   C     0.64570   0.18455   0.94686   0.00000  Uiso   1.00
C408   C     0.89832   0.15108   0.03877   0.00000  Uiso   1.00
C409   C     0.85935   0.13579   0.06050   0.00000  Uiso   1.00
C410   C     0.66997   0.08004   0.74999   0.00000  Uiso   1.00
C411   C     0.85327   0.08842   0.05620   0.00000  Uiso   1.00
C412   C     0.74494   0.13317   0.95737   0.00000  Uiso   1.00
C413   C     0.74848   0.16301   0.99235   0.00000  Uiso   1.00
C414   C     0.78039   0.19762   0.98515   0.00000  Uiso   1.00
C415   C     0.84552   0.39804   0.03773   0.00000  Uiso   1.00
C416   C     0.86282   0.35879   0.05780   0.00000  Uiso   1.00
C417   C     0.91017   0.35490   0.05245   0.00000  Uiso   1.00
C418   C     0.87604   0.23475   0.94335   0.00000  Uiso   1.00
C419   C     0.86593   0.26993   0.97264   0.00000  Uiso   1.00
C420   C     0.84132   0.30481   0.95294   0.00000  Uiso   1.00
C421   C     0.58003   0.33004   0.24999   0.00000  Uiso   1.00
C422   C     0.60348   0.34671   0.03737   0.00000  Uiso   1.00
C423   C     0.63899   0.36262   0.06344   0.00000  Uiso   1.00
C424   C     0.64743   0.40936   0.05714   0.00000  Uiso   1.00
C425   C     0.91997   0.16996   0.75001   0.00000  Uiso   1.00
C426   C     0.66997   0.41995   0.74998   0.00000  Uiso   1.00
C427   C     0.83002   0.08005   0.25002   0.00000  Uiso   1.00
C428   C     0.91997   0.33005   0.75002   0.00000  Uiso   1.00
C429   C     0.74987  -0.00000   0.64410   0.00000  Uiso   1.00
C430   C     0.58002   0.16995   0.24998   0.00000  Uiso   1.00
C431   C     0.83003   0.08004   0.74998   0.00000  Uiso   1.00
C432   C     0.66997   0.41996   0.25001   0.00000  Uiso   1.00
C433   C     0.58003   0.16996   0.75001   0.00000  Uiso   1.00
C434   C     0.91997   0.33004   0.24999   0.00000  Uiso   1.00
C435   C     0.63833   0.38831   0.25001   0.00000  Uiso   1.00
C436   C     0.86167   0.11169   0.74998   0.00000  Uiso   1.00
C437   C     0.61166   0.13830   0.24998   0.00000  Uiso   1.00
C438   C     0.88834   0.36170   0.75002   0.00000  Uiso   1.00
C439   C     0.86166   0.11170   0.25002   0.00000  Uiso   1.00
C440   C     0.50000   0.25003   0.35585   0.00000  Uiso   1.00
C441   C     0.63834   0.38830   0.74998   0.00000  Uiso   1.00
C442   C     0.88833   0.36169   0.24999   0.00000  Uiso   1.00
C443   C     0.61167   0.13831   0.75002   0.00000  Uiso   1.00
C444   C     0.63833   0.11169   0.74999   0.00000  Uiso   1.00
C445   C     0.86167   0.38831   0.25002   0.00000  Uiso   1.00
C446   C     0.61166   0.36170   0.75002   0.00000  Uiso   1.00
C447   C     0.88834   0.13830   0.24997   0.00000  Uiso   1.00
C448   C     0.86166   0.38830   0.74998   0.00000  Uiso   1.00
C449   C     0.63834   0.11170   0.25002   0.00000  Uiso   1.00
C450   C     0.88833   0.13831   0.75001   0.00000  Uiso   1.00
C451   C     0.50001   0.24989   0.64405   0.00000  Uiso   1.00
C452   C     0.61167   0.36169   0.24998   0.00000  Uiso   1.00
C453   C     0.51943   0.28277   0.41812   0.00000  Uiso   1.00
C454   C     0.98457   0.21501   0.58145   0.00000  Uiso   1.00
C455   C     0.71829   0.02122   0.41850   0.00000  Uiso   1.00
C456   C     0.77939   0.47648   0.58165   0.00000  Uiso   1.00
C457   C     0.98062   0.21723   0.41804   0.00000  Uiso   1.00
C458   C     0.51591   0.28442   0.58152   0.00000  Uiso   1.00
C459   C     0.78202   0.47959   0.41858   0.00000  Uiso   1.00
C460   C     0.72033   0.02403   0.58179   0.00000  Uiso   1.00
C461   C     0.73471   0.03505   0.91855   0.00000  Uiso   1.00
C462   C     0.99989   0.25000   0.85590   0.00000  Uiso   1.00
C463   C     0.76936   0.46720   0.08189   0.00000  Uiso   1.00
C464   C     0.97037   0.22597   0.91821   0.00000  Uiso   1.00
C465   C     0.53205   0.27037   0.08142   0.00000  Uiso   1.00
C466   C     0.76572   0.46549   0.91848   0.00000  Uiso   1.00
C467   C     0.73071   0.03283   0.08196   0.00000  Uiso   1.00
C468   C     0.52943   0.27353   0.91834   0.00000  Uiso   1.00
C469   C     0.96822   0.22889   0.08149   0.00000  Uiso   1.00
C470   C     0.50002   0.25002   0.39803   0.00000  Uiso   1.00
C471   C     0.50012   0.24977   0.60166   0.00000  Uiso   1.00
C472   C     0.75004   0.00016   0.39838   0.00000  Uiso   1.00
C473   C     0.50000   0.24998   0.14401   0.00000  Uiso   1.00
C474   C     0.74975   0.00004   0.60187   0.00000  Uiso   1.00
C475   C     0.75010   0.00022   0.89834   0.00000  Uiso   1.00
C476   C     0.75002   0.00000   0.10197   0.00000  Uiso   1.00
C477   C     0.99979   0.24996   0.89813   0.00000  Uiso   1.00
C478   C     0.50003   0.24985   0.10161   0.00000  Uiso   1.00
C479   C     0.98147   0.21619   0.45875   0.00000  Uiso   1.00
C480   C     0.51582   0.28494   0.54071   0.00000  Uiso   1.00
C481   C     0.78302   0.48035   0.45937   0.00000  Uiso   1.00
C482   C     0.71782   0.02143   0.54117   0.00000  Uiso   1.00
C483   C     0.51876   0.28366   0.45884   0.00000  Uiso   1.00
C484   C     0.75001   0.00011   0.85595   0.00000  Uiso   1.00
C485   C     0.98474   0.21452   0.54062   0.00000  Uiso   1.00
C486   C     0.71758   0.02120   0.45928   0.00000  Uiso   1.00
C487   C     0.78254   0.48016   0.54117   0.00000  Uiso   1.00
C488   C     0.76566   0.46499   0.95929   0.00000  Uiso   1.00
C489   C     0.73157   0.03387   0.04125   0.00000  Uiso   1.00
C490   C     0.53256   0.26987   0.95883   0.00000  Uiso   1.00
C491   C     0.96751   0.22893   0.04070   0.00000  Uiso   1.00
C492   C     0.73486   0.03554   0.95938   0.00000  Uiso   1.00
C493   C     0.76868   0.46632   0.04117   0.00000  Uiso   1.00
C494   C     0.96781   0.22865   0.95882   0.00000  Uiso   1.00
C495   C     0.75000   0.49998   0.14415   0.00000  Uiso   1.00
C496   C     0.53304   0.26965   0.04063   0.00000  Uiso   1.00
C497   C     0.50025   0.24983   0.47928   0.00000  Uiso   1.00
C498   C     0.50033   0.24974   0.52020   0.00000  Uiso   1.00
C499   C     0.75029   0.00083   0.47977   0.00000  Uiso   1.00
C500   C     0.75020   0.00080   0.52063   0.00000  Uiso   1.00
C501   C     0.75031   0.00026   0.97980   0.00000  Uiso   1.00
C502   C     0.75024   0.00018   0.02072   0.00000  Uiso   1.00
C503   C     0.50020   0.24926   0.97937   0.00000  Uiso   1.00
C504   C     0.50027   0.24924   0.02022   0.00000  Uiso   1.00
C505   C     0.96443   0.18194   0.47919   0.00000  Uiso   1.00
C506   C     0.66997   0.08005   0.25002   0.00000  Uiso   1.00
C507   C     0.53048   0.32021   0.52001   0.00000  Uiso   1.00
C508   C     0.81663   0.46197   0.47995   0.00000  Uiso   1.00
C509   C     0.68336   0.03832   0.52077   0.00000  Uiso   1.00
C510   C     0.53548   0.31806   0.47935   0.00000  Uiso   1.00
C511   C     0.96960   0.17952   0.51981   0.00000  Uiso   1.00
C512   C     0.68435   0.04035   0.47980   0.00000  Uiso   1.00
C513   C     0.81771   0.46451   0.52090   0.00000  Uiso   1.00
C514   C     0.78026   0.42971   0.98001   0.00000  Uiso   1.00
C515   C     0.71463   0.06817   0.02081   0.00000  Uiso   1.00
C516   C     0.56772   0.28552   0.97910   0.00000  Uiso   1.00
H517   H     0.53390   0.30803   0.40175   0.00000  Uiso   1.00
H518   H     0.78377   0.44191   0.09825   0.00000  Uiso   1.00
H519   H     0.88094   0.07134   0.06781   0.00000  Uiso   1.00
H520   H     0.74105   0.15208   0.93045   0.00000  Uiso   1.00
H521   H     0.77477   0.11524   0.95352   0.00000  Uiso   1.00
H522   H     0.71759   0.17760   0.99854   0.00000  Uiso   1.00
H523   H     0.75862   0.14513   0.01843   0.00000  Uiso   1.00
H524   H     0.81188   0.18352   0.98092   0.00000  Uiso   1.00
H525   H     0.78147   0.21885   0.01079   0.00000  Uiso   1.00
H526   H     0.77160   0.21636   0.95912   0.00000  Uiso   1.00
H527   H     0.85864   0.42641   0.05236   0.00000  Uiso   1.00
H528   H     0.85575   0.39776   0.00671   0.00000  Uiso   1.00
H529   H     0.94829   0.20695   0.90191   0.00000  Uiso   1.00
H530   H     0.85549   0.36022   0.08942   0.00000  Uiso   1.00
H531   H     0.84749   0.33037   0.04551   0.00000  Uiso   1.00
H532   H     0.91813   0.35263   0.02103   0.00000  Uiso   1.00
H533   H     0.92156   0.32605   0.06726   0.00000  Uiso   1.00
H534   H     0.92633   0.38254   0.06529   0.00000  Uiso   1.00
H535   H     0.84623   0.22319   0.93061   0.00000  Uiso   1.00
H536   H     0.89370   0.24804   0.91847   0.00000  Uiso   1.00
H537   H     0.84763   0.25719   0.99745   0.00000  Uiso   1.00
H538   H     0.89530   0.28391   0.98423   0.00000  Uiso   1.00
H539   H     0.85855   0.31695   0.92719   0.00000  Uiso   1.00
H540   H     0.55656   0.28610   0.09775   0.00000  Uiso   1.00
H541   H     0.83732   0.33093   0.97383   0.00000  Uiso   1.00
H542   H     0.81014   0.29295   0.94370   0.00000  Uiso   1.00
H543   H     0.57357   0.36147   0.04718   0.00000  Uiso   1.00
H544   H     0.61007   0.35640   0.00685   0.00000  Uiso   1.00
H545   H     0.63059   0.35718   0.09444   0.00000  Uiso   1.00
H546   H     0.66811   0.34479   0.05707   0.00000  Uiso   1.00
H547   H     0.65742   0.41519   0.02662   0.00000  Uiso   1.00
H548   H     0.67294   0.41985   0.07690   0.00000  Uiso   1.00
H549   H     0.61882   0.42801   0.06352   0.00000  Uiso   1.00
H550   H     0.77764   0.43889   0.90215   0.00000  Uiso   1.00
H551   H     0.71620   0.05805   0.09837   0.00000  Uiso   1.00
H552   H     0.55146   0.29274   0.90220   0.00000  Uiso   1.00
H553   H     0.94370   0.21329   0.09788   0.00000  Uiso   1.00
H554   H     0.89120   0.17874   0.44511   0.00000  Uiso   1.00
H555   H     0.89223   0.15377   0.49255   0.00000  Uiso   1.00
H556   H     0.89132   0.10983   0.41255   0.00000  Uiso   1.00
H557   H     0.97248   0.18847   0.59772   0.00000  Uiso   1.00
H558   H     0.89810   0.08311   0.45829   0.00000  Uiso   1.00
H559   H     0.82845   0.10967   0.48110   0.00000  Uiso   1.00
H560   H     0.82392   0.08018   0.43646   0.00000  Uiso   1.00
H561   H     0.82143   0.13685   0.43519   0.00000  Uiso   1.00
H562   H     0.50914   0.40296   0.56934   0.00000  Uiso   1.00
H563   H     0.97602   0.36107   0.55445   0.00000  Uiso   1.00
H564   H     0.51949   0.42210   0.49646   0.00000  Uiso   1.00
H565   H     0.97912   0.38428   0.48576   0.00000  Uiso   1.00
H566   H     0.92956   0.42287   0.52839   0.00000  Uiso   1.00
H567   H     0.94993   0.45581   0.49001   0.00000  Uiso   1.00
H568   H     0.69380   0.03687   0.40211   0.00000  Uiso   1.00
H569   H     0.96983   0.46165   0.53885   0.00000  Uiso   1.00
H570   H     0.82328   0.38843   0.45312   0.00000  Uiso   1.00
H571   H     0.86005   0.39352   0.49323   0.00000  Uiso   1.00
H572   H     0.88006   0.39255   0.40553   0.00000  Uiso   1.00
H573   H     0.91784   0.40473   0.44274   0.00000  Uiso   1.00
H574   H     0.90685   0.33437   0.47324   0.00000  Uiso   1.00
H575   H     0.92220   0.32966   0.42292   0.00000  Uiso   1.00
H576   H     0.86807   0.32178   0.43644   0.00000  Uiso   1.00
H577   H     0.59624   0.02712   0.56923   0.00000  Uiso   1.00
H578   H     0.64359   0.00189   0.58114   0.00000  Uiso   1.00
H579   H     0.80143   0.45727   0.59779   0.00000  Uiso   1.00
H580   H     0.59772   0.49374   0.50197   0.00000  Uiso   1.00
H581   H     0.64496   0.46638   0.51538   0.00000  Uiso   1.00
H582   H     0.60729   0.43345   0.57200   0.00000  Uiso   1.00
H583   H     0.58638   0.41997   0.52512   0.00000  Uiso   1.00
H584   H     0.55932   0.45808   0.55517   0.00000  Uiso   1.00
H585   H     0.60875   0.32351   0.44785   0.00000  Uiso   1.00
H586   H     0.60583   0.35263   0.49325   0.00000  Uiso   1.00
H587   H     0.60555   0.38926   0.41019   0.00000  Uiso   1.00
H588   H     0.59747   0.41960   0.45380   0.00000  Uiso   1.00
H589   H     0.66812   0.39774   0.47854   0.00000  Uiso   1.00
H590   H     0.96604   0.19205   0.40163   0.00000  Uiso   1.00
H591   H     0.67155   0.42378   0.43204   0.00000  Uiso   1.00
H592   H     0.67640   0.36732   0.43459   0.00000  Uiso   1.00
H593   H     0.99054   0.09802   0.56962   0.00000  Uiso   1.00
H594   H     0.52438   0.13476   0.54657   0.00000  Uiso   1.00
H595   H     0.96712   0.07250   0.50153   0.00000  Uiso   1.00
H596   H     0.50824   0.10487   0.48166   0.00000  Uiso   1.00
H597   H     0.56138   0.06641   0.51919   0.00000  Uiso   1.00
H598   H     0.53088   0.03107   0.48940   0.00000  Uiso   1.00
H599   H     0.52104   0.03371   0.54107   0.00000  Uiso   1.00
H600   H     0.67696   0.11260   0.44658   0.00000  Uiso   1.00
H601   H     0.52797   0.31096   0.59786   0.00000  Uiso   1.00
H602   H     0.64746   0.11078   0.49176   0.00000  Uiso   1.00
H603   H     0.61194   0.10645   0.40848   0.00000  Uiso   1.00
H604   H     0.58146   0.09878   0.45202   0.00000  Uiso   1.00
H605   H     0.59992   0.17087   0.47503   0.00000  Uiso   1.00
H606   H     0.57545   0.17218   0.42774   0.00000  Uiso   1.00
H607   H     0.63148   0.17892   0.43176   0.00000  Uiso   1.00
H608   H     0.90305   0.48042   0.57139   0.00000  Uiso   1.00
H609   H     0.85391   0.00139   0.58313   0.00000  Uiso   1.00
H610   H     0.90679   0.01810   0.50936   0.00000  Uiso   1.00
H611   H     0.85338   0.03575   0.51343   0.00000  Uiso   1.00
H612   H     0.80649   0.46380   0.40226   0.00000  Uiso   1.00
H613   H     0.87045   0.07490   0.57432   0.00000  Uiso   1.00
H614   H     0.89951   0.09223   0.53267   0.00000  Uiso   1.00
H615   H     0.92481   0.05954   0.56891   0.00000  Uiso   1.00
H616   H     0.75860   0.34709   0.93072   0.00000  Uiso   1.00
H617   H     0.72548   0.38857   0.94656   0.00000  Uiso   1.00
H618   H     0.77056   0.32727   0.00322   0.00000  Uiso   1.00
H619   H     0.73009   0.36463   0.01496   0.00000  Uiso   1.00
H620   H     0.67995   0.32608   0.97297   0.00000  Uiso   1.00
H621   H     0.70150   0.29286   0.01058   0.00000  Uiso   1.00
H622   H     0.72031   0.28780   0.96128   0.00000  Uiso   1.00
H623   H     0.69822   0.04301   0.59809   0.00000  Uiso   1.00
H624   H     0.64140   0.07151   0.05485   0.00000  Uiso   1.00
H625   H     0.64250   0.09651   0.00742   0.00000  Uiso   1.00
H626   H     0.64169   0.14044   0.08743   0.00000  Uiso   1.00
H627   H     0.64847   0.16714   0.04167   0.00000  Uiso   1.00
H628   H     0.57875   0.14063   0.01893   0.00000  Uiso   1.00
H629   H     0.57431   0.17018   0.06354   0.00000  Uiso   1.00
H630   H     0.57174   0.11351   0.06486   0.00000  Uiso   1.00
H631   H     0.65317   0.26985   0.92871   0.00000  Uiso   1.00
H632   H     0.60407   0.24882   0.91681   0.00000  Uiso   1.00
H633   H     0.65652   0.23214   0.99088   0.00000  Uiso   1.00
H634   H     0.72274   0.06165   0.90227   0.00000  Uiso   1.00
H635   H     0.60328   0.21414   0.98621   0.00000  Uiso   1.00
H636   H     0.62136   0.17536   0.92534   0.00000  Uiso   1.00
H637   H     0.65000   0.15805   0.96725   0.00000  Uiso   1.00
H638   H     0.67555   0.19106   0.93142   0.00000  Uiso   1.00
H639   H     0.92669   0.13757   0.05300   0.00000  Uiso   1.00
H640   H     0.89659   0.13967   0.00816   0.00000  Uiso   1.00
H641   H     0.86232   0.14378   0.09189   0.00000  Uiso   1.00
H642   H     0.83121   0.15203   0.04884   0.00000  Uiso   1.00
H643   H     0.84867   0.07999   0.02509   0.00000  Uiso   1.00
H644   H     0.82504   0.07848   0.07274   0.00000  Uiso   1.00
O645   O     0.75000   0.00000   0.25000   0.00000  Uiso   1.00
O646   O     0.75000   0.46539   0.66251   0.00000  Uiso   1.00
O647   O     0.96538   0.25000   0.33749   0.00000  Uiso   1.00
O648   O     0.53461   0.25000   0.66251   0.00000  Uiso   1.00
O649   O     0.50000   0.21539   0.83749   0.00000  Uiso   1.00
O650   O     0.50000   0.28462   0.16251   0.00000  Uiso   1.00
O651   O     0.78461   0.00000   0.83749   0.00000  Uiso   1.00
O652   O     0.71538   0.00000   0.16251   0.00000  Uiso   1.00
O653   O     0.50000   0.28462   0.83749   0.00000  Uiso   1.00
O654   O     0.50000   0.21539   0.16251   0.00000  Uiso   1.00
O655   O     0.71538   0.00000   0.83749   0.00000  Uiso   1.00
O656   O     0.75000   0.00000   0.75000   0.00000  Uiso   1.00
O657   O     0.78461   0.00000   0.16251   0.00000  Uiso   1.00
O658   O     0.70126   0.08332   0.27298   0.00000  Uiso   1.00
O659   O     0.79873   0.41668   0.72702   0.00000  Uiso   1.00
O660   O     0.91668   0.20127   0.27298   0.00000  Uiso   1.00
O661   O     0.58332   0.29874   0.72702   0.00000  Uiso   1.00
O662   O     0.79873   0.41668   0.27298   0.00000  Uiso   1.00
O663   O     0.70126   0.08332   0.72702   0.00000  Uiso   1.00
O664   O     0.58332   0.29874   0.27298   0.00000  Uiso   1.00
O665   O     0.91668   0.20127   0.72702   0.00000  Uiso   1.00
O666   O     0.70126   0.41668   0.72702   0.00000  Uiso   1.00
O667   O     0.50000   0.25000   0.25000   0.00000  Uiso   1.00
O668   O     0.79873   0.08332   0.27298   0.00000  Uiso   1.00
O669   O     0.91668   0.29874   0.72702   0.00000  Uiso   1.00
O670   O     0.58332   0.20127   0.27298   0.00000  Uiso   1.00
O671   O     0.79873   0.08332   0.72702   0.00000  Uiso   1.00
O672   O     0.70126   0.41668   0.27298   0.00000  Uiso   1.00
O673   O     0.58332   0.20127   0.72702   0.00000  Uiso   1.00
O674   O     0.91668   0.29874   0.27298   0.00000  Uiso   1.00
O675   O     0.95126   0.33332   0.77298   0.00000  Uiso   1.00
O676   O     0.54873   0.16668   0.22702   0.00000  Uiso   1.00
O677   O     0.66668   0.45127   0.77298   0.00000  Uiso   1.00
O678   O     0.50000   0.25000   0.75000   0.00000  Uiso   1.00
O679   O     0.83332   0.04874   0.22702   0.00000  Uiso   1.00
O680   O     0.54873   0.16668   0.77298   0.00000  Uiso   1.00
O681   O     0.95126   0.33332   0.22702   0.00000  Uiso   1.00
O682   O     0.83332   0.04874   0.77298   0.00000  Uiso   1.00
O683   O     0.66668   0.45127   0.22702   0.00000  Uiso   1.00
O684   O     0.95126   0.16668   0.22702   0.00000  Uiso   1.00
O685   O     0.54873   0.33332   0.77298   0.00000  Uiso   1.00
O686   O     0.66668   0.04874   0.22702   0.00000  Uiso   1.00
O687   O     0.83332   0.45127   0.77298   0.00000  Uiso   1.00
O688   O     0.54873   0.33332   0.22702   0.00000  Uiso   1.00
O689   O     0.75000   0.46539   0.33749   0.00000  Uiso   1.00
O690   O     0.95126   0.16668   0.77298   0.00000  Uiso   1.00
O691   O     0.83332   0.45127   0.22702   0.00000  Uiso   1.00
O692   O     0.66668   0.04874   0.77298   0.00000  Uiso   1.00
O693   O     0.94691   0.14858   0.45908   0.00000  Uiso   1.00
O694   O     0.54024   0.35710   0.53923   0.00000  Uiso   1.00
O695   O     0.85129   0.44737   0.45971   0.00000  Uiso   1.00
O696   O     0.64694   0.05064   0.53976   0.00000  Uiso   1.00
O697   O     0.55146   0.35218   0.45922   0.00000  Uiso   1.00
O698   O     0.95874   0.14305   0.53913   0.00000  Uiso   1.00
O699   O     0.64964   0.05493   0.45967   0.00000  Uiso   1.00
O700   O     0.75000   0.03462   0.66251   0.00000  Uiso   1.00
O701   O     0.85486   0.45441   0.53985   0.00000  Uiso   1.00
O702   O     0.78997   0.39282   0.96077   0.00000  Uiso   1.00
O703   O     0.69717   0.10158   0.04092   0.00000  Uiso   1.00
O704   O     0.60484   0.29572   0.96015   0.00000  Uiso   1.00
O705   O     0.89947   0.19542   0.04032   0.00000  Uiso   1.00
O706   O     0.70910   0.10710   0.96087   0.00000  Uiso   1.00
O707   O     0.80139   0.39780   0.04077   0.00000  Uiso   1.00
O708   O     0.89683   0.19963   0.96020   0.00000  Uiso   1.00
O709   O     0.60138   0.30248   0.04030   0.00000  Uiso   1.00
O710   O     0.53461   0.25000   0.33749   0.00000  Uiso   1.00
O711   O     0.96538   0.25000   0.66251   0.00000  Uiso   1.00
O712   O     0.75000   0.03462   0.33749   0.00000  Uiso   1.00
Zn713  Zn    0.70052   0.00000   0.21730   0.00000  Uiso   1.00
Zn714  Zn    0.54947   0.25000   0.28270   0.00000  Uiso   1.00
Zn715  Zn    0.75000   0.45053   0.71730   0.00000  Uiso   1.00
Zn716  Zn    0.75000   0.04948   0.28270   0.00000  Uiso   1.00
Zn717  Zn    0.54947   0.25000   0.71730   0.00000  Uiso   1.00
Zn718  Zn    0.95052   0.25000   0.28270   0.00000  Uiso   1.00
Zn719  Zn    0.75000   0.04948   0.71730   0.00000  Uiso   1.00
Zn720  Zn    0.75000   0.45053   0.28270   0.00000  Uiso   1.00
Zn721  Zn    0.79947   0.00000   0.78270   0.00000  Uiso   1.00
Zn722  Zn    0.50000   0.20053   0.21730   0.00000  Uiso   1.00
Zn723  Zn    0.50000   0.29948   0.78270   0.00000  Uiso   1.00
Zn724  Zn    0.79947   0.00000   0.21730   0.00000  Uiso   1.00
Zn725  Zn    0.70052   0.00000   0.78270   0.00000  Uiso   1.00
Zn726  Zn    0.50000   0.29948   0.21730   0.00000  Uiso   1.00
Zn727  Zn    0.50000   0.20053   0.78270   0.00000  Uiso   1.00
Zn728  Zn    0.95052   0.25000   0.71730   0.00000  Uiso   1.00
C729   C     0.25000   0.50003   0.35599   0.00000  Uiso   1.00
C730   C     0.33002   0.91995   0.74998   0.00000  Uiso   1.00
C731   C     0.43423   0.70987   0.02018   0.00000  Uiso   1.00
C732   C     0.21984   0.57059   0.98019   0.00000  Uiso   1.00
C733   C     0.28533   0.93188   0.02066   0.00000  Uiso   1.00
C734   C     0.43327   0.71186   0.97921   0.00000  Uiso   1.00
C735   C     0.06667   0.78800   0.02006   0.00000  Uiso   1.00
C736   C     0.40281   0.65103   0.46172   0.00000  Uiso   1.00
C737   C     0.38392   0.61111   0.44416   0.00000  Uiso   1.00
C738   C     0.33646   0.60950   0.44962   0.00000  Uiso   1.00
C739   C     0.00310   0.88078   0.54501   0.00000  Uiso   1.00
C740   C     0.49147   0.90594   0.50837   0.00000  Uiso   1.00
C741   C     0.41998   0.66995   0.24998   0.00000  Uiso   1.00
C742   C     0.45807   0.93865   0.51710   0.00000  Uiso   1.00
C743   C     0.35329   0.90314   0.46273   0.00000  Uiso   1.00
C744   C     0.38858   0.88706   0.43650   0.00000  Uiso   1.00
C745   C     0.39681   0.84028   0.44275   0.00000  Uiso   1.00
C746   C     0.12597   0.51550   0.55639   0.00000  Uiso   1.00
C747   C     0.11566   0.98063   0.52684   0.00000  Uiso   1.00
C748   C     0.09046   0.94593   0.54616   0.00000  Uiso   1.00
C749   C     0.09560   0.85201   0.46223   0.00000  Uiso   1.00
C750   C     0.11285   0.89106   0.44180   0.00000  Uiso   1.00
C751   C     0.16019   0.89509   0.44714   0.00000  Uiso   1.00
C752   C     0.08002   0.83005   0.75002   0.00000  Uiso   1.00
C753   C     0.49451   0.61690   0.54270   0.00000  Uiso   1.00
C754   C     0.49803   0.58703   0.50773   0.00000  Uiso   1.00
C755   C     0.02986   0.55237   0.51500   0.00000  Uiso   1.00
C756   C     0.14872   0.59927   0.46116   0.00000  Uiso   1.00
C757   C     0.10953   0.61471   0.43986   0.00000  Uiso   1.00
C758   C     0.10389   0.66215   0.44392   0.00000  Uiso   1.00
C759   C     0.37288   0.99028   0.55820   0.00000  Uiso   1.00
C760   C     0.38178   0.52705   0.53026   0.00000  Uiso   1.00
C761   C     0.39512   0.56578   0.55310   0.00000  Uiso   1.00
C762   C     0.25289   0.86896   0.95536   0.00000  Uiso   1.00
C763   C     0.33003   0.91996   0.25001   0.00000  Uiso   1.00
C764   C     0.24217   0.84332   0.99195   0.00000  Uiso   1.00
C765   C     0.20886   0.81042   0.98351   0.00000  Uiso   1.00
C766   C     0.15307   0.59921   0.03825   0.00000  Uiso   1.00
C767   C     0.13426   0.63917   0.05582   0.00000  Uiso   1.00
C768   C     0.08679   0.64083   0.05040   0.00000  Uiso   1.00
C769   C     0.12296   0.75991   0.94180   0.00000  Uiso   1.00
C770   C     0.13182   0.72310   0.96970   0.00000  Uiso   1.00
C771   C     0.14570   0.68455   0.94686   0.00000  Uiso   1.00
C772   C     0.39832   0.65108   0.03877   0.00000  Uiso   1.00
C773   C     0.35935   0.63579   0.06050   0.00000  Uiso   1.00
C774   C     0.16997   0.58004   0.74999   0.00000  Uiso   1.00
C775   C     0.35327   0.58842   0.05620   0.00000  Uiso   1.00
C776   C     0.24494   0.63317   0.95737   0.00000  Uiso   1.00
C777   C     0.24848   0.66301   0.99235   0.00000  Uiso   1.00
C778   C     0.28039   0.69762   0.98515   0.00000  Uiso   1.00
C779   C     0.34552   0.89804   0.03773   0.00000  Uiso   1.00
C780   C     0.36282   0.85879   0.05780   0.00000  Uiso   1.00
C781   C     0.41017   0.85490   0.05245   0.00000  Uiso   1.00
C782   C     0.37604   0.73475   0.94335   0.00000  Uiso   1.00
C783   C     0.36593   0.76993   0.97264   0.00000  Uiso   1.00
C784   C     0.34132   0.80481   0.95294   0.00000  Uiso   1.00
C785   C     0.08003   0.83004   0.24999   0.00000  Uiso   1.00
C786   C     0.10348   0.84671   0.03737   0.00000  Uiso   1.00
C787   C     0.13899   0.86262   0.06344   0.00000  Uiso   1.00
C788   C     0.14743   0.90936   0.05714   0.00000  Uiso   1.00
C789   C     0.41997   0.66996   0.75001   0.00000  Uiso   1.00
C790   C     0.16997   0.91995   0.74998   0.00000  Uiso   1.00
C791   C     0.33002   0.58005   0.25002   0.00000  Uiso   1.00
C792   C     0.41997   0.83005   0.75002   0.00000  Uiso   1.00
C793   C     0.24987   0.50000   0.64410   0.00000  Uiso   1.00
C794   C     0.08002   0.66995   0.24998   0.00000  Uiso   1.00
C795   C     0.33003   0.58004   0.74998   0.00000  Uiso   1.00
C796   C     0.16997   0.91996   0.25001   0.00000  Uiso   1.00
C797   C     0.08003   0.66996   0.75001   0.00000  Uiso   1.00
C798   C     0.41997   0.83004   0.24999   0.00000  Uiso   1.00
C799   C     0.13833   0.88831   0.25001   0.00000  Uiso   1.00
C800   C     0.36167   0.61169   0.74998   0.00000  Uiso   1.00
C801   C     0.11166   0.63830   0.24998   0.00000  Uiso   1.00
C802   C     0.38834   0.86170   0.75002   0.00000  Uiso   1.00
C803   C     0.36166   0.61170   0.25002   0.00000  Uiso   1.00
C804   C     0.00000   0.75003   0.35585   0.00000  Uiso   1.00
C805   C     0.13834   0.88830   0.74998   0.00000  Uiso   1.00
C806   C     0.38833   0.86169   0.24999   0.00000  Uiso   1.00
C807   C     0.11167   0.63831   0.75002   0.00000  Uiso   1.00
C808   C     0.13833   0.61169   0.74999   0.00000  Uiso   1.00
C809   C     0.36167   0.88831   0.25002   0.00000  Uiso   1.00
C810   C     0.11166   0.86170   0.75002   0.00000  Uiso   1.00
C811   C     0.38834   0.63830   0.24997   0.00000  Uiso   1.00
C812   C     0.36166   0.88830   0.74998   0.00000  Uiso   1.00
C813   C     0.13834   0.61170   0.25002   0.00000  Uiso   1.00
C814   C     0.38833   0.63831   0.75001   0.00000  Uiso   1.00
C815   C     0.00001   0.74989   0.64405   0.00000  Uiso   1.00
C816   C     0.11167   0.86169   0.24998   0.00000  Uiso   1.00
C817   C     0.01943   0.78277   0.41812   0.00000  Uiso   1.00
C818   C     0.48457   0.71501   0.58145   0.00000  Uiso   1.00
C819   C     0.21829   0.52122   0.41850   0.00000  Uiso   1.00
C820   C     0.27939   0.97648   0.58165   0.00000  Uiso   1.00
C821   C     0.48062   0.71723   0.41804   0.00000  Uiso   1.00
C822   C     0.01591   0.78442   0.58152   0.00000  Uiso   1.00
C823   C     0.28202   0.97959   0.41858   0.00000  Uiso   1.00
C824   C     0.22033   0.52403   0.58179   0.00000  Uiso   1.00
C825   C     0.23471   0.53505   0.91855   0.00000  Uiso   1.00
C826   C     0.49989   0.75000   0.85590   0.00000  Uiso   1.00
C827   C     0.26936   0.96720   0.08189   0.00000  Uiso   1.00
C828   C     0.47037   0.72597   0.91821   0.00000  Uiso   1.00
C829   C     0.03205   0.77037   0.08142   0.00000  Uiso   1.00
C830   C     0.26572   0.96549   0.91848   0.00000  Uiso   1.00
C831   C     0.23071   0.53283   0.08196   0.00000  Uiso   1.00
C832   C     0.02943   0.77353   0.91834   0.00000  Uiso   1.00
C833   C     0.46822   0.72889   0.08149   0.00000  Uiso   1.00
C834   C     0.00002   0.75002   0.39803   0.00000  Uiso   1.00
C835   C     0.00012   0.74977   0.60166   0.00000  Uiso   1.00
C836   C     0.25004   0.50016   0.39838   0.00000  Uiso   1.00
C837   C    -0.00000   0.74998   0.14401   0.00000  Uiso   1.00
C838   C     0.24975   0.50004   0.60187   0.00000  Uiso   1.00
C839   C     0.25010   0.50022   0.89834   0.00000  Uiso   1.00
C840   C     0.25002   0.50000   0.10197   0.00000  Uiso   1.00
C841   C     0.49979   0.74996   0.89813   0.00000  Uiso   1.00
C842   C     0.00003   0.74985   0.10161   0.00000  Uiso   1.00
C843   C     0.48147   0.71619   0.45875   0.00000  Uiso   1.00
C844   C     0.01582   0.78494   0.54071   0.00000  Uiso   1.00
C845   C     0.28302   0.98035   0.45937   0.00000  Uiso   1.00
C846   C     0.21782   0.52143   0.54117   0.00000  Uiso   1.00
C847   C     0.01876   0.78366   0.45884   0.00000  Uiso   1.00
C848   C     0.25001   0.50011   0.85595   0.00000  Uiso   1.00
C849   C     0.48474   0.71452   0.54062   0.00000  Uiso   1.00
C850   C     0.21758   0.52120   0.45928   0.00000  Uiso   1.00
C851   C     0.28254   0.98016   0.54117   0.00000  Uiso   1.00
C852   C     0.26566   0.96499   0.95929   0.00000  Uiso   1.00
C853   C     0.23157   0.53387   0.04125   0.00000  Uiso   1.00
C854   C     0.03256   0.76987   0.95883   0.00000  Uiso   1.00
C855   C     0.46751   0.72893   0.04070   0.00000  Uiso   1.00
C856   C     0.23486   0.53554   0.95938   0.00000  Uiso   1.00
C857   C     0.26868   0.96632   0.04117   0.00000  Uiso   1.00
C858   C     0.46781   0.72865   0.95882   0.00000  Uiso   1.00
C859   C     0.25000   0.99998   0.14415   0.00000  Uiso   1.00
C860   C     0.03304   0.76965   0.04063   0.00000  Uiso   1.00
C861   C     0.00025   0.74983   0.47928   0.00000  Uiso   1.00
C862   C     0.00033   0.74974   0.52020   0.00000  Uiso   1.00
C863   C     0.25029   0.50083   0.47977   0.00000  Uiso   1.00
C864   C     0.25020   0.50080   0.52063   0.00000  Uiso   1.00
C865   C     0.25031   0.50026   0.97980   0.00000  Uiso   1.00
C866   C     0.25024   0.50018   0.02072   0.00000  Uiso   1.00
C867   C     0.00020   0.74926   0.97937   0.00000  Uiso   1.00
C868   C     0.00027   0.74924   0.02022   0.00000  Uiso   1.00
C869   C     0.46443   0.68194   0.47919   0.00000  Uiso   1.00
C870   C     0.16997   0.58005   0.25002   0.00000  Uiso   1.00
C871   C     0.03048   0.82021   0.52001   0.00000  Uiso   1.00
C872   C     0.31663   0.96197   0.47995   0.00000  Uiso   1.00
C873   C     0.18336   0.53832   0.52077   0.00000  Uiso   1.00
C874   C     0.03548   0.81806   0.47935   0.00000  Uiso   1.00
C875   C     0.46960   0.67952   0.51981   0.00000  Uiso   1.00
C876   C     0.18435   0.54035   0.47980   0.00000  Uiso   1.00
C877   C     0.31771   0.96451   0.52090   0.00000  Uiso   1.00
C878   C     0.28026   0.92971   0.98001   0.00000  Uiso   1.00
C879   C     0.21463   0.56817   0.02081   0.00000  Uiso   1.00
C880   C     0.06772   0.78552   0.97910   0.00000  Uiso   1.00
H881   H     0.03390   0.80803   0.40175   0.00000  Uiso   1.00
H882   H     0.28377   0.94191   0.09825   0.00000  Uiso   1.00
H883   H     0.38094   0.57134   0.06781   0.00000  Uiso   1.00
H884   H     0.24105   0.65208   0.93045   0.00000  Uiso   1.00
H885   H     0.27477   0.61524   0.95352   0.00000  Uiso   1.00
H886   H     0.21759   0.67760   0.99854   0.00000  Uiso   1.00
H887   H     0.25862   0.64513   0.01843   0.00000  Uiso   1.00
H888   H     0.31188   0.68352   0.98092   0.00000  Uiso   1.00
H889   H     0.28147   0.71885   0.01079   0.00000  Uiso   1.00
H890   H     0.27160   0.71636   0.95912   0.00000  Uiso   1.00
H891   H     0.35864   0.92641   0.05236   0.00000  Uiso   1.00
H892   H     0.35575   0.89776   0.00671   0.00000  Uiso   1.00
H893   H     0.44829   0.70695   0.90191   0.00000  Uiso   1.00
H894   H     0.35549   0.86022   0.08942   0.00000  Uiso   1.00
H895   H     0.34749   0.83037   0.04551   0.00000  Uiso   1.00
H896   H     0.41813   0.85263   0.02103   0.00000  Uiso   1.00
H897   H     0.42156   0.82605   0.06726   0.00000  Uiso   1.00
H898   H     0.42633   0.88254   0.06529   0.00000  Uiso   1.00
H899   H     0.34623   0.72319   0.93061   0.00000  Uiso   1.00
H900   H     0.39370   0.74804   0.91847   0.00000  Uiso   1.00
H901   H     0.34763   0.75719   0.99745   0.00000  Uiso   1.00
H902   H     0.39530   0.78391   0.98423   0.00000  Uiso   1.00
H903   H     0.35855   0.81695   0.92719   0.00000  Uiso   1.00
H904   H     0.05656   0.78610   0.09775   0.00000  Uiso   1.00
H905   H     0.33732   0.83093   0.97383   0.00000  Uiso   1.00
H906   H     0.31014   0.79295   0.94370   0.00000  Uiso   1.00
H907   H     0.07357   0.86147   0.04718   0.00000  Uiso   1.00
H908   H     0.11007   0.85640   0.00685   0.00000  Uiso   1.00
H909   H     0.13059   0.85718   0.09444   0.00000  Uiso   1.00
H910   H     0.16811   0.84479   0.05707   0.00000  Uiso   1.00
H911   H     0.15742   0.91519   0.02662   0.00000  Uiso   1.00
H912   H     0.17294   0.91985   0.07690   0.00000  Uiso   1.00
H913   H     0.11882   0.92801   0.06352   0.00000  Uiso   1.00
H914   H     0.27764   0.93889   0.90215   0.00000  Uiso   1.00
H915   H     0.21620   0.55805   0.09837   0.00000  Uiso   1.00
H916   H     0.05146   0.79274   0.90220   0.00000  Uiso   1.00
H917   H     0.44370   0.71329   0.09788   0.00000  Uiso   1.00
H918   H     0.39120   0.67874   0.44511   0.00000  Uiso   1.00
H919   H     0.39223   0.65377   0.49255   0.00000  Uiso   1.00
H920   H     0.39132   0.60983   0.41255   0.00000  Uiso   1.00
H921   H     0.47248   0.68847   0.59772   0.00000  Uiso   1.00
H922   H     0.39810   0.58311   0.45829   0.00000  Uiso   1.00
H923   H     0.32845   0.60967   0.48110   0.00000  Uiso   1.00
H924   H     0.32392   0.58018   0.43646   0.00000  Uiso   1.00
H925   H     0.32143   0.63685   0.43519   0.00000  Uiso   1.00
H926   H     0.00914   0.90296   0.56934   0.00000  Uiso   1.00
H927   H     0.47602   0.86107   0.55445   0.00000  Uiso   1.00
H928   H     0.01949   0.92210   0.49646   0.00000  Uiso   1.00
H929   H     0.47912   0.88428   0.48576   0.00000  Uiso   1.00
H930   H     0.42956   0.92287   0.52839   0.00000  Uiso   1.00
H931   H     0.44993   0.95581   0.49001   0.00000  Uiso   1.00
H932   H     0.19380   0.53687   0.40211   0.00000  Uiso   1.00
H933   H     0.46983   0.96165   0.53885   0.00000  Uiso   1.00
H934   H     0.32328   0.88843   0.45312   0.00000  Uiso   1.00
H935   H     0.36005   0.89352   0.49323   0.00000  Uiso   1.00
H936   H     0.38006   0.89255   0.40553   0.00000  Uiso   1.00
H937   H     0.41784   0.90473   0.44274   0.00000  Uiso   1.00
H938   H     0.40685   0.83437   0.47324   0.00000  Uiso   1.00
H939   H     0.42220   0.82966   0.42292   0.00000  Uiso   1.00
H940   H     0.36807   0.82178   0.43644   0.00000  Uiso   1.00
H941   H     0.09624   0.52712   0.56923   0.00000  Uiso   1.00
H942   H     0.14359   0.50189   0.58114   0.00000  Uiso   1.00
H943   H     0.30143   0.95727   0.59779   0.00000  Uiso   1.00
H944   H     0.09772   0.99374   0.50197   0.00000  Uiso   1.00
H945   H     0.14496   0.96638   0.51538   0.00000  Uiso   1.00
H946   H     0.10729   0.93345   0.57200   0.00000  Uiso   1.00
H947   H     0.08638   0.91997   0.52512   0.00000  Uiso   1.00
H948   H     0.05932   0.95808   0.55517   0.00000  Uiso   1.00
H949   H     0.10875   0.82351   0.44785   0.00000  Uiso   1.00
H950   H     0.10583   0.85263   0.49325   0.00000  Uiso   1.00
H951   H     0.10555   0.88926   0.41019   0.00000  Uiso   1.00
H952   H     0.09747   0.91960   0.45380   0.00000  Uiso   1.00
H953   H     0.16812   0.89774   0.47854   0.00000  Uiso   1.00
H954   H     0.46604   0.69205   0.40163   0.00000  Uiso   1.00
H955   H     0.17155   0.92378   0.43204   0.00000  Uiso   1.00
H956   H     0.17640   0.86732   0.43459   0.00000  Uiso   1.00
H957   H     0.49054   0.59802   0.56962   0.00000  Uiso   1.00
H958   H     0.02438   0.63476   0.54657   0.00000  Uiso   1.00
H959   H     0.46712   0.57250   0.50153   0.00000  Uiso   1.00
H960   H     0.00824   0.60487   0.48166   0.00000  Uiso   1.00
H961   H     0.06138   0.56641   0.51919   0.00000  Uiso   1.00
H962   H     0.03088   0.53107   0.48940   0.00000  Uiso   1.00
H963   H     0.02104   0.53371   0.54107   0.00000  Uiso   1.00
H964   H     0.17696   0.61260   0.44658   0.00000  Uiso   1.00
H965   H     0.02797   0.81096   0.59786   0.00000  Uiso   1.00
H966   H     0.14746   0.61078   0.49176   0.00000  Uiso   1.00
H967   H     0.11194   0.60645   0.40848   0.00000  Uiso   1.00
H968   H     0.08146   0.59878   0.45202   0.00000  Uiso   1.00
H969   H     0.09992   0.67087   0.47503   0.00000  Uiso   1.00
H970   H     0.07545   0.67218   0.42774   0.00000  Uiso   1.00
H971   H     0.13148   0.67892   0.43176   0.00000  Uiso   1.00
H972   H     0.40305   0.98042   0.57139   0.00000  Uiso   1.00
H973   H     0.35391   0.50139   0.58313   0.00000  Uiso   1.00
H974   H     0.40679   0.51810   0.50936   0.00000  Uiso   1.00
H975   H     0.35338   0.53575   0.51343   0.00000  Uiso   1.00
H976   H     0.30649   0.96380   0.40226   0.00000  Uiso   1.00
H977   H     0.37045   0.57490   0.57432   0.00000  Uiso   1.00
H978   H     0.39951   0.59223   0.53267   0.00000  Uiso   1.00
H979   H     0.42481   0.55954   0.56891   0.00000  Uiso   1.00
H980   H     0.25860   0.84709   0.93072   0.00000  Uiso   1.00
H981   H     0.22548   0.88857   0.94656   0.00000  Uiso   1.00
H982   H     0.27056   0.82727   0.00322   0.00000  Uiso   1.00
H983   H     0.23009   0.86463   0.01496   0.00000  Uiso   1.00
H984   H     0.17995   0.82608   0.97297   0.00000  Uiso   1.00
H985   H     0.20150   0.79286   0.01058   0.00000  Uiso   1.00
H986   H     0.22031   0.78780   0.96128   0.00000  Uiso   1.00
H987   H     0.19822   0.54301   0.59809   0.00000  Uiso   1.00
H988   H     0.14140   0.57151   0.05485   0.00000  Uiso   1.00
H989   H     0.14250   0.59651   0.00742   0.00000  Uiso   1.00
H990   H     0.14169   0.64044   0.08743   0.00000  Uiso   1.00
H991   H     0.14847   0.66714   0.04167   0.00000  Uiso   1.00
H992   H     0.07875   0.64063   0.01893   0.00000  Uiso   1.00
H993   H     0.07431   0.67018   0.06354   0.00000  Uiso   1.00
H994   H     0.07174   0.61351   0.06486   0.00000  Uiso   1.00
H995   H     0.15317   0.76985   0.92871   0.00000  Uiso   1.00
H996   H     0.10407   0.74882   0.91681   0.00000  Uiso   1.00
H997   H     0.15652   0.73214   0.99088   0.00000  Uiso   1.00
H998   H     0.22274   0.56165   0.90227   0.00000  Uiso   1.00
H999   H     0.10328   0.71414   0.98621   0.00000  Uiso   1.00
H1000  H     0.12136   0.67536   0.92534   0.00000  Uiso   1.00
H1001  H     0.15000   0.65805   0.96725   0.00000  Uiso   1.00
H1002  H     0.17555   0.69106   0.93142   0.00000  Uiso   1.00
H1003  H     0.42669   0.63757   0.05300   0.00000  Uiso   1.00
H1004  H     0.39659   0.63967   0.00816   0.00000  Uiso   1.00
H1005  H     0.36232   0.64378   0.09189   0.00000  Uiso   1.00
H1006  H     0.33121   0.65203   0.04884   0.00000  Uiso   1.00
H1007  H     0.34867   0.57999   0.02509   0.00000  Uiso   1.00
H1008  H     0.32504   0.57848   0.07274   0.00000  Uiso   1.00
O1009  O     0.25000   0.50000   0.25000   0.00000  Uiso   1.00
O1010  O     0.25000   0.96539   0.66251   0.00000  Uiso   1.00
O1011  O     0.46538   0.75000   0.33749   0.00000  Uiso   1.00
O1012  O     0.03461   0.75000   0.66251   0.00000  Uiso   1.00
O1013  O     0.00000   0.71539   0.83749   0.00000  Uiso   1.00
O1014  O     0.00000   0.78462   0.16251   0.00000  Uiso   1.00
O1015  O     0.28461   0.50000   0.83749   0.00000  Uiso   1.00
O1016  O     0.21538   0.50000   0.16251   0.00000  Uiso   1.00
O1017  O     0.00000   0.78462   0.83749   0.00000  Uiso   1.00
O1018  O     0.00000   0.71539   0.16251   0.00000  Uiso   1.00
O1019  O     0.21538   0.50000   0.83749   0.00000  Uiso   1.00
O1020  O     0.25000   0.50000   0.75000   0.00000  Uiso   1.00
O1021  O     0.28461   0.50000   0.16251   0.00000  Uiso   1.00
O1022  O     0.20126   0.58332   0.27298   0.00000  Uiso   1.00
O1023  O     0.29873   0.91668   0.72702   0.00000  Uiso   1.00
O1024  O     0.41668   0.70127   0.27298   0.00000  Uiso   1.00
O1025  O     0.08332   0.79874   0.72702   0.00000  Uiso   1.00
O1026  O     0.29873   0.91668   0.27298   0.00000  Uiso   1.00
O1027  O     0.20126   0.58332   0.72702   0.00000  Uiso   1.00
O1028  O     0.08332   0.79874   0.27298   0.00000  Uiso   1.00
O1029  O     0.41668   0.70127   0.72702   0.00000  Uiso   1.00
O1030  O     0.20126   0.91668   0.72702   0.00000  Uiso   1.00
O1031  O    -0.00000   0.75000   0.25000   0.00000  Uiso   1.00
O1032  O     0.29873   0.58332   0.27298   0.00000  Uiso   1.00
O1033  O     0.41668   0.79874   0.72702   0.00000  Uiso   1.00
O1034  O     0.08332   0.70127   0.27298   0.00000  Uiso   1.00
O1035  O     0.29873   0.58332   0.72702   0.00000  Uiso   1.00
O1036  O     0.20126   0.91668   0.27298   0.00000  Uiso   1.00
O1037  O     0.08332   0.70127   0.72702   0.00000  Uiso   1.00
O1038  O     0.41668   0.79874   0.27298   0.00000  Uiso   1.00
O1039  O     0.45126   0.83332   0.77298   0.00000  Uiso   1.00
O1040  O     0.04873   0.66668   0.22702   0.00000  Uiso   1.00
O1041  O     0.16668   0.95127   0.77298   0.00000  Uiso   1.00
O1042  O    -0.00000   0.75000   0.75000   0.00000  Uiso   1.00
O1043  O     0.33332   0.54874   0.22702   0.00000  Uiso   1.00
O1044  O     0.04873   0.66668   0.77298   0.00000  Uiso   1.00
O1045  O     0.45126   0.83332   0.22702   0.00000  Uiso   1.00
O1046  O     0.33332   0.54874   0.77298   0.00000  Uiso   1.00
O1047  O     0.16668   0.95127   0.22702   0.00000  Uiso   1.00
O1048  O     0.45126   0.66668   0.22702   0.00000  Uiso   1.00
O1049  O     0.04873   0.83332   0.77298   0.00000  Uiso   1.00
O1050  O     0.16668   0.54874   0.22702   0.00000  Uiso   1.00
O1051  O     0.33332   0.95127   0.77298   0.00000  Uiso   1.00
O1052  O     0.04873   0.83332   0.22702   0.00000  Uiso   1.00
O1053  O     0.25000   0.96539   0.33749   0.00000  Uiso   1.00
O1054  O     0.45126   0.66668   0.77298   0.00000  Uiso   1.00
O1055  O     0.33332   0.95127   0.22702   0.00000  Uiso   1.00
O1056  O     0.16668   0.54874   0.77298   0.00000  Uiso   1.00
O1057  O     0.44691   0.64858   0.45908   0.00000  Uiso   1.00
O1058  O     0.04024   0.85710   0.53923   0.00000  Uiso   1.00
O1059  O     0.35129   0.94737   0.45971   0.00000  Uiso   1.00
O1060  O     0.14694   0.55064   0.53976   0.00000  Uiso   1.00
O1061  O     0.05146   0.85218   0.45922   0.00000  Uiso   1.00
O1062  O     0.45874   0.64305   0.53913   0.00000  Uiso   1.00
O1063  O     0.14964   0.55493   0.45967   0.00000  Uiso   1.00
O1064  O     0.25000   0.53462   0.66251   0.00000  Uiso   1.00
O1065  O     0.35486   0.95441   0.53985   0.00000  Uiso   1.00
O1066  O     0.28997   0.89282   0.96077   0.00000  Uiso   1.00
O1067  O     0.19717   0.60158   0.04092   0.00000  Uiso   1.00
O1068  O     0.10484   0.79572   0.96015   0.00000  Uiso   1.00
O1069  O     0.39947   0.69542   0.04032   0.00000  Uiso   1.00
O1070  O     0.20910   0.60710   0.96087   0.00000  Uiso   1.00
O1071  O     0.30139   0.89780   0.04077   0.00000  Uiso   1.00
O1072  O     0.39683   0.69963   0.96020   0.00000  Uiso   1.00
O1073  O     0.10138   0.80248   0.04030   0.00000  Uiso   1.00
O1074  O     0.03461   0.75000   0.33749   0.00000  Uiso   1.00
O1075  O     0.46538   0.75000   0.66251   0.00000  Uiso   1.00
O1076  O     0.25000   0.53462   0.33749   0.00000  Uiso   1.00
Zn1077 Zn    0.20052   0.50000   0.21730   0.00000  Uiso   1.00
Zn1078 Zn    0.04947   0.75000   0.28270   0.00000  Uiso   1.00
Zn1079 Zn    0.25000   0.95053   0.71730   0.00000  Uiso   1.00
Zn1080 Zn    0.25000   0.54948   0.28270   0.00000  Uiso   1.00
Zn1081 Zn    0.04947   0.75000   0.71730   0.00000  Uiso   1.00
Zn1082 Zn    0.45052   0.75000   0.28270   0.00000  Uiso   1.00
Zn1083 Zn    0.25000   0.54948   0.71730   0.00000  Uiso   1.00
Zn1084 Zn    0.25000   0.95053   0.28270   0.00000  Uiso   1.00
Zn1085 Zn    0.29947   0.50000   0.78270   0.00000  Uiso   1.00
Zn1086 Zn    0.00000   0.70053   0.21730   0.00000  Uiso   1.00
Zn1087 Zn    0.00000   0.79948   0.78270   0.00000  Uiso   1.00
Zn1088 Zn    0.29947   0.50000   0.21730   0.00000  Uiso   1.00
Zn1089 Zn    0.20052   0.50000   0.78270   0.00000  Uiso   1.00
Zn1090 Zn    0.00000   0.79948   0.21730   0.00000  Uiso   1.00
Zn1091 Zn    0.00000   0.70053   0.78270   0.00000  Uiso   1.00
Zn1092 Zn    0.45052   0.75000   0.71730   0.00000  Uiso   1.00
C1093  C     0.75000   0.50003   0.35599   0.00000  Uiso   1.00
C1094  C     0.83002   0.91995   0.74998   0.00000  Uiso   1.00
C1095  C     0.93423   0.70987   0.02018   0.00000  Uiso   1.00
C1096  C     0.71984   0.57059   0.98019   0.00000  Uiso   1.00
C1097  C     0.78533   0.93188   0.02066   0.00000  Uiso   1.00
C1098  C     0.93327   0.71186   0.97921   0.00000  Uiso   1.00
C1099  C     0.56667   0.78800   0.02006   0.00000  Uiso   1.00
C1100  C     0.90281   0.65103   0.46172   0.00000  Uiso   1.00
C1101  C     0.88392   0.61111   0.44416   0.00000  Uiso   1.00
C1102  C     0.83646   0.60950   0.44962   0.00000  Uiso   1.00
C1103  C     0.50310   0.88078   0.54501   0.00000  Uiso   1.00
C1104  C     0.99147   0.90594   0.50837   0.00000  Uiso   1.00
C1105  C     0.91998   0.66995   0.24998   0.00000  Uiso   1.00
C1106  C     0.95807   0.93865   0.51710   0.00000  Uiso   1.00
C1107  C     0.85329   0.90314   0.46273   0.00000  Uiso   1.00
C1108  C     0.88858   0.88706   0.43650   0.00000  Uiso   1.00
C1109  C     0.89681   0.84028   0.44275   0.00000  Uiso   1.00
C1110  C     0.62597   0.51550   0.55639   0.00000  Uiso   1.00
C1111  C     0.61566   0.98063   0.52684   0.00000  Uiso   1.00
C1112  C     0.59046   0.94593   0.54616   0.00000  Uiso   1.00
C1113  C     0.59560   0.85201   0.46223   0.00000  Uiso   1.00
C1114  C     0.61285   0.89106   0.44180   0.00000  Uiso   1.00
C1115  C     0.66019   0.89509   0.44714   0.00000  Uiso   1.00
C1116  C     0.58002   0.83005   0.75002   0.00000  Uiso   1.00
C1117  C     0.99451   0.61690   0.54270   0.00000  Uiso   1.00
C1118  C     0.99803   0.58703   0.50773   0.00000  Uiso   1.00
C1119  C     0.52986   0.55237   0.51500   0.00000  Uiso   1.00
C1120  C     0.64872   0.59927   0.46116   0.00000  Uiso   1.00
C1121  C     0.60953   0.61471   0.43986   0.00000  Uiso   1.00
C1122  C     0.60389   0.66215   0.44392   0.00000  Uiso   1.00
C1123  C     0.87288   0.99028   0.55820   0.00000  Uiso   1.00
C1124  C     0.88178   0.52705   0.53026   0.00000  Uiso   1.00
C1125  C     0.89512   0.56578   0.55310   0.00000  Uiso   1.00
C1126  C     0.75289   0.86896   0.95536   0.00000  Uiso   1.00
C1127  C     0.83003   0.91996   0.25001   0.00000  Uiso   1.00
C1128  C     0.74217   0.84332   0.99195   0.00000  Uiso   1.00
C1129  C     0.70886   0.81042   0.98351   0.00000  Uiso   1.00
C1130  C     0.65307   0.59921   0.03825   0.00000  Uiso   1.00
C1131  C     0.63426   0.63917   0.05582   0.00000  Uiso   1.00
C1132  C     0.58679   0.64083   0.05040   0.00000  Uiso   1.00
C1133  C     0.62296   0.75991   0.94180   0.00000  Uiso   1.00
C1134  C     0.63182   0.72310   0.96970   0.00000  Uiso   1.00
C1135  C     0.64570   0.68455   0.94686   0.00000  Uiso   1.00
C1136  C     0.89832   0.65108   0.03877   0.00000  Uiso   1.00
C1137  C     0.85935   0.63579   0.06050   0.00000  Uiso   1.00
C1138  C     0.66997   0.58004   0.74999   0.00000  Uiso   1.00
C1139  C     0.85327   0.58842   0.05620   0.00000  Uiso   1.00
C1140  C     0.74494   0.63317   0.95737   0.00000  Uiso   1.00
C1141  C     0.74848   0.66301   0.99235   0.00000  Uiso   1.00
C1142  C     0.78039   0.69762   0.98515   0.00000  Uiso   1.00
C1143  C     0.84552   0.89804   0.03773   0.00000  Uiso   1.00
C1144  C     0.86282   0.85879   0.05780   0.00000  Uiso   1.00
C1145  C     0.91017   0.85490   0.05245   0.00000  Uiso   1.00
C1146  C     0.87604   0.73475   0.94335   0.00000  Uiso   1.00
C1147  C     0.86593   0.76993   0.97264   0.00000  Uiso   1.00
C1148  C     0.84132   0.80481   0.95294   0.00000  Uiso   1.00
C1149  C     0.58003   0.83004   0.24999   0.00000  Uiso   1.00
C1150  C     0.60348   0.84671   0.03737   0.00000  Uiso   1.00
C1151  C     0.63899   0.86262   0.06344   0.00000  Uiso   1.00
C1152  C     0.64743   0.90936   0.05714   0.00000  Uiso   1.00
C1153  C     0.91997   0.66996   0.75001   0.00000  Uiso   1.00
C1154  C     0.66997   0.91995   0.74998   0.00000  Uiso   1.00
C1155  C     0.83002   0.58005   0.25002   0.00000  Uiso   1.00
C1156  C     0.91997   0.83005   0.75002   0.00000  Uiso   1.00
C1157  C     0.74987   0.50000   0.64410   0.00000  Uiso   1.00
C1158  C     0.58002   0.66995   0.24998   0.00000  Uiso   1.00
C1159  C     0.83003   0.58004   0.74998   0.00000  Uiso   1.00
C1160  C     0.66997   0.91996   0.25001   0.00000  Uiso   1.00
C1161  C     0.58003   0.66996   0.75001   0.00000  Uiso   1.00
C1162  C     0.91997   0.83004   0.24999   0.00000  Uiso   1.00
C1163  C     0.63833   0.88831   0.25001   0.00000  Uiso   1.00
C1164  C     0.86167   0.61169   0.74998   0.00000  Uiso   1.00
C1165  C     0.61166   0.63830   0.24998   0.00000  Uiso   1.00
C1166  C     0.88834   0.86170   0.75002   0.00000  Uiso   1.00
C1167  C     0.86166   0.61170   0.25002   0.00000  Uiso   1.00
C1168  C     0.50000   0.75003   0.35585   0.00000  Uiso   1.00
C1169  C     0.63834   0.88830   0.74998   0.00000  Uiso   1.00
C1170  C     0.88833   0.86169   0.24999   0.00000  Uiso   1.00
C1171  C     0.61167   0.63831   0.75002   0.00000  Uiso   1.00
C1172  C     0.63833   0.61169   0.74999   0.00000  Uiso   1.00
C1173  C     0.86167   0.88831   0.25002   0.00000  Uiso   1.00
C1174  C     0.61166   0.86170   0.75002   0.00000  Uiso   1.00
C1175  C     0.88834   0.63830   0.24997   0.00000  Uiso   1.00
C1176  C     0.86166   0.88830   0.74998   0.00000  Uiso   1.00
C1177  C     0.63834   0.61170   0.25002   0.00000  Uiso   1.00
C1178  C     0.88833   0.63831   0.75001   0.00000  Uiso   1.00
C1179  C     0.50001   0.74989   0.64405   0.00000  Uiso   1.00
C1180  C     0.61167   0.86169   0.24998   0.00000  Uiso   1.00
C1181  C     0.51943   0.78277   0.41812   0.00000  Uiso   1.00
C1182  C     0.98457   0.71501   0.58145   0.00000  Uiso   1.00
C1183  C     0.71829   0.52122   0.41850   0.00000  Uiso   1.00
C1184  C     0.77939   0.97648   0.58165   0.00000  Uiso   1.00
C1185  C     0.98062   0.71723   0.41804   0.00000  Uiso   1.00
C1186  C     0.51591   0.78442   0.58152   0.00000  Uiso   1.00
C1187  C     0.78202   0.97959   0.41858   0.00000  Uiso   1.00
C1188  C     0.72033   0.52403   0.58179   0.00000  Uiso   1.00
C1189  C     0.73471   0.53505   0.91855   0.00000  Uiso   1.00
C1190  C     0.99989   0.75000   0.85590   0.00000  Uiso   1.00
C1191  C     0.76936   0.96720   0.08189   0.00000  Uiso   1.00
C1192  C     0.97037   0.72597   0.91821   0.00000  Uiso   1.00
C1193  C     0.53205   0.77037   0.08142   0.00000  Uiso   1.00
C1194  C     0.76572   0.96549   0.91848   0.00000  Uiso   1.00
C1195  C     0.73071   0.53283   0.08196   0.00000  Uiso   1.00
C1196  C     0.52943   0.77353   0.91834   0.00000  Uiso   1.00
C1197  C     0.96822   0.72889   0.08149   0.00000  Uiso   1.00
C1198  C     0.50002   0.75002   0.39803   0.00000  Uiso   1.00
C1199  C     0.50012   0.74977   0.60166   0.00000  Uiso   1.00
C1200  C     0.75004   0.50016   0.39838   0.00000  Uiso   1.00
C1201  C     0.50000   0.74998   0.14401   0.00000  Uiso   1.00
C1202  C     0.74975   0.50004   0.60187   0.00000  Uiso   1.00
C1203  C     0.75010   0.50022   0.89834   0.00000  Uiso   1.00
C1204  C     0.75002   0.50000   0.10197   0.00000  Uiso   1.00
C1205  C     0.99979   0.74996   0.89813   0.00000  Uiso   1.00
C1206  C     0.50003   0.74985   0.10161   0.00000  Uiso   1.00
C1207  C     0.98147   0.71619   0.45875   0.00000  Uiso   1.00
C1208  C     0.51582   0.78494   0.54071   0.00000  Uiso   1.00
C1209  C     0.78302   0.98035   0.45937   0.00000  Uiso   1.00
C1210  C     0.71782   0.52143   0.54117   0.00000  Uiso   1.00
C1211  C     0.51876   0.78366   0.45884   0.00000  Uiso   1.00
C1212  C     0.75001   0.50011   0.85595   0.00000  Uiso   1.00
C1213  C     0.98474   0.71452   0.54062   0.00000  Uiso   1.00
C1214  C     0.71758   0.52120   0.45928   0.00000  Uiso   1.00
C1215  C     0.78254   0.98016   0.54117   0.00000  Uiso   1.00
C1216  C     0.76566   0.96499   0.95929   0.00000  Uiso   1.00
C1217  C     0.73157   0.53387   0.04125   0.00000  Uiso   1.00
C1218  C     0.53256   0.76987   0.95883   0.00000  Uiso   1.00
C1219  C     0.96751   0.72893   0.04070   0.00000  Uiso   1.00
C1220  C     0.73486   0.53554   0.95938   0.00000  Uiso   1.00
C1221  C     0.76868   0.96632   0.04117   0.00000  Uiso   1.00
C1222  C     0.96781   0.72865   0.95882   0.00000  Uiso   1.00
C1223  C     0.75000   0.99998   0.14415   0.00000  Uiso   1.00
C1224  C     0.53304   0.76965   0.04063   0.00000  Uiso   1.00
C1225  C     0.50025   0.74983   0.47928   0.00000  Uiso   1.00
C1226  C     0.50033   0.74974   0.52020   0.00000  Uiso   1.00
C1227  C     0.75029   0.50083   0.47977   0.00000  Uiso   1.00
C1228  C     0.75020   0.50080   0.52063   0.00000  Uiso   1.00
C1229  C     0.75031   0.50026   0.97980   0.00000  Uiso   1.00
C1230  C     0.75024   0.50018   0.02072   0.00000  Uiso   1.00
C1231  C     0.50020   0.74926   0.97937   0.00000  Uiso   1.00
C1232  C     0.50027   0.74924   0.02022   0.00000  Uiso   1.00
C1233  C     0.96443   0.68194   0.47919   0.00000  Uiso   1.00
C1234  C     0.66997   0.58005   0.25002   0.00000  Uiso   1.00
C1235  C     0.53048   0.82021   0.52001   0.00000  Uiso   1.00
C1236  C     0.81663   0.96197   0.47995   0.00000  Uiso   1.00
C1237  C     0.68336   0.53832   0.52077   0.00000  Uiso   1.00
C1238  C     0.53548   0.81806   0.47935   0.00000  Uiso   1.00
C1239  C     0.96960   0.67952   0.51981   0.00000  Uiso   1.00
C1240  C     0.68435   0.54035   0.47980   0.00000  Uiso   1.00
C1241  C     0.81771   0.96451   0.52090   0.00000  Uiso   1.00
C1242  C     0.78026   0.92971   0.98001   0.00000  Uiso   1.00
C1243  C     0.71463   0.56817   0.02081   0.00000  Uiso   1.00
C1244  C     0.56772   0.78552   0.97910   0.00000  Uiso   1.00
H1245  H     0.53390   0.80803   0.40175   0.00000  Uiso   1.00
H1246  H     0.78377   0.94191   0.09825   0.00000  Uiso   1.00
H1247  H     0.88094   0.57134   0.06781   0.00000  Uiso   1.00
H1248  H     0.74105   0.65208   0.93045   0.00000  Uiso   1.00
H1249  H     0.77477   0.61524   0.95352   0.00000  Uiso   1.00
H1250  H     0.71759   0.67760   0.99854   0.00000  Uiso   1.00
H1251  H     0.75862   0.64513   0.01843   0.00000  Uiso   1.00
H1252  H     0.81188   0.68352   0.98092   0.00000  Uiso   1.00
H1253  H     0.78147   0.71885   0.01079   0.00000  Uiso   1.00
H1254  H     0.77160   0.71636   0.95912   0.00000  Uiso   1.00
H1255  H     0.85864   0.92641   0.05236   0.00000  Uiso   1.00
H1256  H     0.85575   0.89776   0.00671   0.00000  Uiso   1.00
H1257  H     0.94829   0.70695   0.90191   0.00000  Uiso   1.00
H1258  H     0.85549   0.86022   0.08942   0.00000  Uiso   1.00
H1259  H     0.84749   0.83037   0.04551   0.00000  Uiso   1.00
H1260  H     0.91813   0.85263   0.02103   0.00000  Uiso   1.00
H1261  H     0.92156   0.82605   0.06726   0.00000  Uiso   1.00
H1262  H     0.92633   0.88254   0.06529   0.00000  Uiso   1.00
H1263  H     0.84623   0.72319   0.93061   0.00000  Uiso   1.00
H1264  H     0.89370   0.74804   0.91847   0.00000  Uiso   1.00
H1265  H     0.84763   0.75719   0.99745   0.00000  Uiso   1.00
H1266  H     0.89530   0.78391   0.98423   0.00000  Uiso   1.00
H1267  H     0.85855   0.81695   0.92719   0.00000  Uiso   1.00
H1268  H     0.55656   0.78610   0.09775   0.00000  Uiso   1.00
H1269  H     0.83732   0.83093   0.97383   0.00000  Uiso   1.00
H1270  H     0.81014   0.79295   0.94370   0.00000  Uiso   1.00
H1271  H     0.57357   0.86147   0.04718   0.00000  Uiso   1.00
H1272  H     0.61007   0.85640   0.00685   0.00000  Uiso   1.00
H1273  H     0.63059   0.85718   0.09444   0.00000  Uiso   1.00
H1274  H     0.66811   0.84479   0.05707   0.00000  Uiso   1.00
H1275  H     0.65742   0.91519   0.02662   0.00000  Uiso   1.00
H1276  H     0.67294   0.91985   0.07690   0.00000  Uiso   1.00
H1277  H     0.61882   0.92801   0.06352   0.00000  Uiso   1.00
H1278  H     0.77764   0.93889   0.90215   0.00000  Uiso   1.00
H1279  H     0.71620   0.55805   0.09837   0.00000  Uiso   1.00
H1280  H     0.55146   0.79274   0.90220   0.00000  Uiso   1.00
H1281  H     0.94370   0.71329   0.09788   0.00000  Uiso   1.00
H1282  H     0.89120   0.67874   0.44511   0.00000  Uiso   1.00
H1283  H     0.89223   0.65377   0.49255   0.00000  Uiso   1.00
H1284  H     0.89132   0.60983   0.41255   0.00000  Uiso   1.00
H1285  H     0.97248   0.68847   0.59772   0.00000  Uiso   1.00
H1286  H     0.89810   0.58311   0.45829   0.00000  Uiso   1.00
H1287  H     0.82845   0.60967   0.48110   0.00000  Uiso   1.00
H1288  H     0.82392   0.58018   0.43646   0.00000  Uiso   1.00
H1289  H     0.82143   0.63685   0.43519   0.00000  Uiso   1.00
H1290  H     0.50914   0.90296   0.56934   0.00000  Uiso   1.00
H1291  H     0.97602   0.86107   0.55445   0.00000  Uiso   1.00
H1292  H     0.51949   0.92210   0.49646   0.00000  Uiso   1.00
H1293  H     0.97912   0.88428   0.48576   0.00000  Uiso   1.00
H1294  H     0.92956   0.92287   0.52839   0.00000  Uiso   1.00
H1295  H     0.94993   0.95581   0.49001   0.00000  Uiso   1.00
H1296  H     0.69380   0.53687   0.40211   0.00000  Uiso   1.00
H1297  H     0.96983   0.96165   0.53885   0.00000  Uiso   1.00
H1298  H     0.82328   0.88843   0.45312   0.00000  Uiso   1.00
H1299  H     0.86005   0.89352   0.49323   0.00000  Uiso   1.00
H1300  H     0.88006   0.89255   0.40553   0.00000  Uiso   1.00
H1301  H     0.91784   0.90473   0.44274   0.00000  Uiso   1.00
H1302  H     0.90685   0.83437   0.47324   0.00000  Uiso   1.00
H1303  H     0.92220   0.82966   0.42292   0.00000  Uiso   1.00
H1304  H     0.86807   0.82178   0.43644   0.00000  Uiso   1.00
H1305  H     0.59624   0.52712   0.56923   0.00000  Uiso   1.00
H1306  H     0.64359   0.50189   0.58114   0.00000  Uiso   1.00
H1307  H     0.80143   0.95727   0.59779   0.00000  Uiso   1.00
H1308  H     0.59772   0.99374   0.50197   0.00000  Uiso   1.00
H1309  H     0.64496   0.96638   0.51538   0.00000  Uiso   1.00
H1310  H     0.60729   0.93345   0.57200   0.00000  Uiso   1.00
H1311  H     0.58638   0.91997   0.52512   0.00000  Uiso   1.00
H1312  H     0.55932   0.95808   0.55517   0.00000  Uiso   1.00
H1313  H     0.60875   0.82351   0.44785   0.00000  Uiso   1.00
H1314  H     0.60583   0.85263   0.49325   0.00000  Uiso   1.00
H1315  H     0.60555   0.88926   0.41019   0.00000  Uiso   1.00
H1316  H     0.59747   0.91960   0.45380   0.00000  Uiso   1.00
H1317  H     0.66812   0.89774   0.47854   0.00000  Uiso   1.00
H1318  H     0.96604   0.69205   0.40163   0.00000  Uiso   1.00
H1319  H     0.67155   0.92378   0.43204   0.00000  Uiso   1.00
H1320  H     0.67640   0.86732   0.43459   0.00000  Uiso   1.00
H1321  H     0.99054   0.59802   0.56962   0.00000  Uiso   1.00
H1322  H     0.52438   0.63476   0.54657   0.00000  Uiso   1.00
H1323  H     0.96712   0.57250   0.50153   0.00000  Uiso   1.00
H1324  H     0.50824   0.60487   0.48166   0.00000  Uiso   1.00
H1325  H     0.56138   0.56641   0.51919   0.00000  Uiso   1.00
H1326  H     0.53088   0.53107   0.48940   0.00000  Uiso   1.00
H1327  H     0.52104   0.53371   0.54107   0.00000  Uiso   1.00
H1328  H     0.67696   0.61260   0.44658   0.00000  Uiso   1.00
H1329  H     0.52797   0.81096   0.59786   0.00000  Uiso   1.00
H1330  H     0.64746   0.61078   0.49176   0.00000  Uiso   1.00
H1331  H     0.61194   0.60645   0.40848   0.00000  Uiso   1.00
H1332  H     0.58146   0.59878   0.45202   0.00000  Uiso   1.00
H1333  H     0.59992   0.67087   0.47503   0.00000  Uiso   1.00
H1334  H     0.57545   0.67218   0.42774   0.00000  Uiso   1.00
H1335  H     0.63148   0.67892   0.43176   0.00000  Uiso   1.00
H1336  H     0.90305   0.98042   0.57139   0.00000  Uiso   1.00
H1337  H     0.85391   0.50139   0.58313   0.00000  Uiso   1.00
H1338  H     0.90679   0.51810   0.50936   0.00000  Uiso   1.00
H1339  H     0.85338   0.53575   0.51343   0.00000  Uiso   1.00
H1340  H     0.80649   0.96380   0.40226   0.00000  Uiso   1.00
H1341  H     0.87045   0.57490   0.57432   0.00000  Uiso   1.00
H1342  H     0.89951   0.59223   0.53267   0.00000  Uiso   1.00
H1343  H     0.92481   0.55954   0.56891   0.00000  Uiso   1.00
H1344  H     0.75860   0.84709   0.93072   0.00000  Uiso   1.00
H1345  H     0.72548   0.88857   0.94656   0.00000  Uiso   1.00
H1346  H     0.77056   0.82727   0.00322   0.00000  Uiso   1.00
H1347  H     0.73009   0.86463   0.01496   0.00000  Uiso   1.00
H1348  H     0.67995   0.82608   0.97297   0.00000  Uiso   1.00
H1349  H     0.70150   0.79286   0.01058   0.00000  Uiso   1.00
H1350  H     0.72031   0.78780   0.96128   0.00000  Uiso   1.00
H1351  H     0.69822   0.54301   0.59809   0.00000  Uiso   1.00
H1352  H     0.64140   0.57151   0.05485   0.00000  Uiso   1.00
H1353  H     0.64250   0.59651   0.00742   0.00000  Uiso   1.00
H1354  H     0.64169   0.64044   0.08743   0.00000  Uiso   1.00
H1355  H     0.64847   0.66714   0.04167   0.00000  Uiso   1.00
H1356  H     0.57875   0.64063   0.01893   0.00000  Uiso   1.00
H1357  H     0.57431   0.67018   0.06354   0.00000  Uiso   1.00
H1358  H     0.57174   0.61351   0.06486   0.00000  Uiso   1.00
H1359  H     0.65317   0.76985   0.92871   0.00000  Uiso   1.00
H1360  H     0.60407   0.74882   0.91681   0.00000  Uiso   1.00
H1361  H     0.65652   0.73214   0.99088   0.00000  Uiso   1.00
H1362  H     0.72274   0.56165   0.90227   0.00000  Uiso   1.00
H1363  H     0.60328   0.71414   0.98621   0.00000  Uiso   1.00
H1364  H     0.62136   0.67536   0.92534   0.00000  Uiso   1.00
H1365  H     0.65000   0.65805   0.96725   0.00000  Uiso   1.00
H1366  H     0.67555   0.69106   0.93142   0.00000  Uiso   1.00
H1367  H     0.92669   0.63757   0.05300   0.00000  Uiso   1.00
H1368  H     0.89659   0.63967   0.00816   0.00000  Uiso   1.00
H1369  H     0.86232   0.64378   0.09189   0.00000  Uiso   1.00
H1370  H     0.83121   0.65203   0.04884   0.00000  Uiso   1.00
H1371  H     0.84867   0.57999   0.02509   0.00000  Uiso   1.00
H1372  H     0.82504   0.57848   0.07274   0.00000  Uiso   1.00
O1373  O     0.75000   0.50000   0.25000   0.00000  Uiso   1.00
O1374  O     0.75000   0.96539   0.66251   0.00000  Uiso   1.00
O1375  O     0.96538   0.75000   0.33749   0.00000  Uiso   1.00
O1376  O     0.53461   0.75000   0.66251   0.00000  Uiso   1.00
O1377  O     0.50000   0.71539   0.83749   0.00000  Uiso   1.00
O1378  O     0.50000   0.78462   0.16251   0.00000  Uiso   1.00
O1379  O     0.78461   0.50000   0.83749   0.00000  Uiso   1.00
O1380  O     0.71538   0.50000   0.16251   0.00000  Uiso   1.00
O1381  O     0.50000   0.78462   0.83749   0.00000  Uiso   1.00
O1382  O     0.50000   0.71539   0.16251   0.00000  Uiso   1.00
O1383  O     0.71538   0.50000   0.83749   0.00000  Uiso   1.00
O1384  O     0.75000   0.50000   0.75000   0.00000  Uiso   1.00
O1385  O     0.78461   0.50000   0.16251   0.00000  Uiso   1.00
O1386  O     0.70126   0.58332   0.27298   0.00000  Uiso   1.00
O1387  O     0.79873   0.91668   0.72702   0.00000  Uiso   1.00
O1388  O     0.91668   0.70127   0.27298   0.00000  Uiso   1.00
O1389  O     0.58332   0.79874   0.72702   0.00000  Uiso   1.00
O1390  O     0.79873   0.91668   0.27298   0.00000  Uiso   1.00
O1391  O     0.70126   0.58332   0.72702   0.00000  Uiso   1.00
O1392  O     0.58332   0.79874   0.27298   0.00000  Uiso   1.00
O1393  O     0.91668   0.70127   0.72702   0.00000  Uiso   1.00
O1394  O     0.70126   0.91668   0.72702   0.00000  Uiso   1.00
O1395  O     0.50000   0.75000   0.25000   0.00000  Uiso   1.00
O1396  O     0.79873   0.58332   0.27298   0.00000  Uiso   1.00
O1397  O     0.91668   0.79874   0.72702   0.00000  Uiso   1.00
O1398  O     0.58332   0.70127   0.27298   0.00000  Uiso   1.00
O1399  O     0.79873   0.58332   0.72702   0.00000  Uiso   1.00
O1400  O     0.70126   0.91668   0.27298   0.00000  Uiso   1.00
O1401  O     0.58332   0.70127   0.72702   0.00000  Uiso   1.00
O1402  O     0.91668   0.79874   0.27298   0.00000  Uiso   1.00
O1403  O     0.95126   0.83332   0.77298   0.00000  Uiso   1.00
O1404  O     0.54873   0.66668   0.22702   0.00000  Uiso   1.00
O1405  O     0.66668   0.95127   0.77298   0.00000  Uiso   1.00
O1406  O     0.50000   0.75000   0.75000   0.00000  Uiso   1.00
O1407  O     0.83332   0.54874   0.22702   0.00000  Uiso   1.00
O1408  O     0.54873   0.66668   0.77298   0.00000  Uiso   1.00
O1409  O     0.95126   0.83332   0.22702   0.00000  Uiso   1.00
O1410  O     0.83332   0.54874   0.77298   0.00000  Uiso   1.00
O1411  O     0.66668   0.95127   0.22702   0.00000  Uiso   1.00
O1412  O     0.95126   0.66668   0.22702   0.00000  Uiso   1.00
O1413  O     0.54873   0.83332   0.77298   0.00000  Uiso   1.00
O1414  O     0.66668   0.54874   0.22702   0.00000  Uiso   1.00
O1415  O     0.83332   0.95127   0.77298   0.00000  Uiso   1.00
O1416  O     0.54873   0.83332   0.22702   0.00000  Uiso   1.00
O1417  O     0.75000   0.96539   0.33749   0.00000  Uiso   1.00
O1418  O     0.95126   0.66668   0.77298   0.00000  Uiso   1.00
O1419  O     0.83332   0.95127   0.22702   0.00000  Uiso   1.00
O1420  O     0.66668   0.54874   0.77298   0.00000  Uiso   1.00
O1421  O     0.94691   0.64858   0.45908   0.00000  Uiso   1.00
O1422  O     0.54024   0.85710   0.53923   0.00000  Uiso   1.00
O1423  O     0.85129   0.94737   0.45971   0.00000  Uiso   1.00
O1424  O     0.64694   0.55064   0.53976   0.00000  Uiso   1.00
O1425  O     0.55146   0.85218   0.45922   0.00000  Uiso   1.00
O1426  O     0.95874   0.64305   0.53913   0.00000  Uiso   1.00
O1427  O     0.64964   0.55493   0.45967   0.00000  Uiso   1.00
O1428  O     0.75000   0.53462   0.66251   0.00000  Uiso   1.00
O1429  O     0.85486   0.95441   0.53985   0.00000  Uiso   1.00
O1430  O     0.78997   0.89282   0.96077   0.00000  Uiso   1.00
O1431  O     0.69717   0.60158   0.04092   0.00000  Uiso   1.00
O1432  O     0.60484   0.79572   0.96015   0.00000  Uiso   1.00
O1433  O     0.89947   0.69542   0.04032   0.00000  Uiso   1.00
O1434  O     0.70910   0.60710   0.96087   0.00000  Uiso   1.00
O1435  O     0.80139   0.89780   0.04077   0.00000  Uiso   1.00
O1436  O     0.89683   0.69963   0.96020   0.00000  Uiso   1.00
O1437  O     0.60138   0.80248   0.04030   0.00000  Uiso   1.00
O1438  O     0.53461   0.75000   0.33749   0.00000  Uiso   1.00
O1439  O     0.96538   0.75000   0.66251   0.00000  Uiso   1.00
O1440  O     0.75000   0.53462   0.33749   0.00000  Uiso   1.00
Zn1441 Zn    0.70052   0.50000   0.21730   0.00000  Uiso   1.00
Zn1442 Zn    0.54947   0.75000   0.28270   0.00000  Uiso   1.00
Zn1443 Zn    0.75000   0.95053   0.71730   0.00000  Uiso   1.00
Zn1444 Zn    0.75000   0.54948   0.28270   0.00000  Uiso   1.00
Zn1445 Zn    0.54947   0.75000   0.71730   0.00000  Uiso   1.00
Zn1446 Zn    0.95052   0.75000   0.28270   0.00000  Uiso   1.00
Zn1447 Zn    0.75000   0.54948   0.71730   0.00000  Uiso   1.00
Zn1448 Zn    0.75000   0.95053   0.28270   0.00000  Uiso   1.00
Zn1449 Zn    0.79947   0.50000   0.78270   0.00000  Uiso   1.00
Zn1450 Zn    0.50000   0.70053   0.21730   0.00000  Uiso   1.00
Zn1451 Zn    0.50000   0.79948   0.78270   0.00000  Uiso   1.00
Zn1452 Zn    0.79947   0.50000   0.21730   0.00000  Uiso   1.00
Zn1453 Zn    0.70052   0.50000   0.78270   0.00000  Uiso   1.00
Zn1454 Zn    0.50000   0.79948   0.21730   0.00000  Uiso   1.00
Zn1455 Zn    0.50000   0.70053   0.78270   0.00000  Uiso   1.00
Zn1456 Zn    0.95052   0.75000   0.71730   0.00000  Uiso   1.00
loop_
_geom_bond_atom_site_label_1
_geom_bond_atom_site_label_2
_geom_bond_distance
_geom_bond_site_symmetry_2
_ccdc_geom_bond_type
C1     O348    1.271   .     A
C1     C108    1.456   .     S
C1     O1053   1.272   1_545 S
C2     O295    1.276   .     A
C2     O323    1.276   .     A
C2     C84     1.426   .     S
C3     O341    1.386   .     S
C3     C127    1.411   .     A
C3     C6      1.409   1_554 S
C4     C128    1.408   .     A
C4     O342    1.382   .     S
C4     C151    1.407   1_556 S
C5     O343    1.385   .     S
C5     C129    1.406   .     A
C5     C150    1.407   1_554 S
C6     C130    1.411   .     A
C6     O344    1.389   .     S
C6     C3      1.409   1_556 S
C7     C132    1.411   .     A
C7     O345    1.386   .     S
C7     C152    1.409   1_554 S
C8     H190    1.114   .     S
C8     O329    1.412   .     S
C8     H191    1.114   .     S
C8     C9      1.530   .     S
C9     C10     1.527   .     S
C9     H194    1.111   .     S
C9     H192    1.112   .     S
C10    H196    1.111   .     S
C10    H197    1.111   .     S
C10    H195    1.111   .     S
C11    H198    1.110   .     S
C11    O330    1.418   .     S
C11    C376    1.537   1_455 S
C11    H563    1.116   1_455 S
C12    H201    1.110   .     S
C12    C14     1.519   .     S
C12    C375    1.537   .     S
C12    H564    1.109   .     S
C13    O320    1.276   .     A
C13    O296    1.276   .     A
C13    C83     1.426   .     S
C14    H202    1.109   .     S
C14    H205    1.111   .     S
C14    H203    1.110   .     S
C15    H206    1.116   .     S
C15    H207    1.113   .     S
C15    O331    1.413   .     S
C15    C16     1.530   .     S
C16    H209    1.110   .     S
C16    C17     1.527   .     S
C16    H208    1.112   .     S
C17    H210    1.111   .     S
C17    H212    1.111   .     S
C17    H211    1.111   .     S
C18    O332    1.423   .     S
C18    H214    1.108   .     S
C18    H213    1.110   .     S
C18    C747    1.539   1_545 S
C19    C20     1.519   .     S
C19    H217    1.111   .     S
C19    H216    1.110   .     S
C19    C746    1.539   .     S
C20    H219    1.105   .     S
C20    H218    1.111   .     S
C20    H220    1.110   .     S
C21    H221    1.115   .     S
C21    C22     1.530   .     S
C21    H222    1.114   .     S
C21    O333    1.412   .     S
C22    C23     1.527   .     S
C22    H224    1.111   .     S
C22    H223    1.112   .     S
C23    H225    1.111   .     S
C23    H228    1.111   .     S
C23    H227    1.111   .     S
C24    O297    1.276   .     A
C24    O321    1.276   .     A
C24    C82     1.426   .     S
C25    C26     1.535   .     S
C25    H229    1.110   .     S
C25    O334    1.418   .     S
C25    H594    1.117   .     S
C26    H231    1.110   .     S
C26    C391    1.520   .     S
C26    H596    1.109   .     S
C27    H234    1.110   .     S
C27    H235    1.111   .     S
C27    H233    1.110   .     S
C27    C390    1.520   1_455 S
C28    C29     1.530   .     S
C28    O335    1.412   .     S
C28    H236    1.115   .     S
C28    H238    1.113   .     S
C29    C30     1.527   .     S
C29    H240    1.111   .     S
C29    H239    1.112   .     S
C30    H241    1.111   .     S
C30    H242    1.111   .     S
C30    H243    1.111   .     S
C31    O337    1.425   .     S
C31    H244    1.109   .     S
C31    C760    1.540   .     S
C31    H973    1.106   .     S
C32    H247    1.110   .     S
C32    C33     1.522   .     S
C32    H246    1.110   .     S
C32    C759    1.540   1_545 S
C33    H250    1.105   .     S
C33    H249    1.111   .     S
C33    H251    1.110   .     S
C34    H253    1.116   .     S
C34    C36     1.537   .     S
C34    O338    1.418   .     S
C34    H252    1.110   .     S
C35    O298    1.277   .     A
C35    O327    1.276   .     A
C35    C81     1.426   .     S
C36    C37     1.520   .     S
C36    H254    1.110   1_556 S
C36    H255    1.110   1_556 S
C37    H256    1.109   .     S
C37    H258    1.111   .     S
C37    H257    1.110   1_556 S
C38    H260    1.114   .     S
C38    C39     1.530   .     S
C38    H261    1.114   .     S
C38    O339    1.412   .     S
C39    C40     1.527   .     S
C39    H262    1.112   .     S
C39    H263    1.111   .     S
C40    H265    1.111   .     S
C40    H266    1.111   .     S
C40    H264    1.111   .     S
C41    H267    1.109   .     S
C41    C42     1.540   .     S
C41    H268    1.106   .     S
C41    O340    1.425   .     S
C42    C43     1.522   .     S
C42    H271    1.110   .     S
C42    H269    1.110   .     S
C43    H274    1.110   .     S
C43    H272    1.111   .     S
C43    H273    1.105   .     S
C44    H276    1.113   .     S
C44    C45     1.530   .     S
C44    H275    1.115   .     S
C44    O341    1.412   .     S
C45    C47     1.527   .     S
C45    H277    1.112   .     S
C45    H278    1.111   .     S
C46    C80     1.426   .     S
C46    O299    1.277   .     A
C46    O328    1.276   .     A
C47    H280    1.111   .     S
C47    H279    1.111   .     S
C47    H155    1.111   .     S
C48    O342    1.418   .     S
C48    H156    1.110   .     S
C48    C49     1.535   .     S
C48    H157    1.117   .     S
C49    C50     1.520   .     S
C49    H158    1.110   .     S
C49    H159    1.109   1_556 S
C50    H160    1.110   .     S
C50    H162    1.111   .     S
C50    H161    1.110   1_556 S
C51    C52     1.530   .     S
C51    H164    1.114   .     S
C51    O343    1.412   .     S
C51    H163    1.115   .     S
C52    C53     1.527   .     S
C52    H167    1.111   .     S
C52    H166    1.112   .     S
C53    H170    1.111   .     S
C53    H168    1.111   .     S
C53    H169    1.111   .     S
C54    H172    1.107   .     S
C54    C55     1.539   .     S
C54    O344    1.423   .     S
C54    H171    1.110   .     S
C55    H173    1.110   .     S
C55    C56     1.519   .     S
C55    H174    1.111   .     S
C56    H178    1.110   .     S
C56    H177    1.105   .     S
C56    H175    1.111   .     S
C57    O300    1.276   .     A
C57    O324    1.277   .     A
C57    C88     1.426   .     S
C58    H180    1.113   .     S
C58    O345    1.413   .     S
C58    C59     1.530   .     S
C58    H179    1.116   .     S
C59    C60     1.527   .     S
C59    H182    1.110   .     S
C59    H181    1.112   .     S
C60    H184    1.111   .     S
C60    H185    1.111   .     S
C60    H183    1.111   .     S
C61    O301    1.276   .     A
C61    C86     1.426   .     S
C61    O326    1.277   .     A
C62    C77     1.426   .     S
C62    O302    1.276   .     A
C62    O313    1.276   .     A
C63    O315    1.276   .     A
C63    O304    1.276   .     A
C63    C75     1.426   .     S
C64    O311    1.276   .     A
C64    O305    1.276   .     A
C64    C74     1.426   .     S
C65    O1010   1.270   1_545 A
C65    C110    1.450   .     S
C65    O336    1.270   .     S
C66    O306    1.276   .     A
C66    O312    1.276   .     A
C66    C73     1.426   .     S
C67    O318    1.276   .     A
C67    O307    1.277   .     A
C67    C72     1.426   .     S
C68    C71     1.426   .     S
C68    O308    1.277   .     A
C68    O319    1.276   .     A
C69    O316    1.277   .     A
C69    C79     1.426   .     S
C69    O309    1.276   .     A
C70    C78     1.426   .     S
C70    O310    1.276   .     A
C70    O317    1.277   .     A
C71    C88     1.200   .     T
C72    C86     1.200   .     T
C73    C85     1.200   .     T
C74    C84     1.200   .     T
C75    C83     1.200   .     T
C76    O346    1.272   .     A
C76    C106    1.449   .     S
C76    O647    1.272   1_455 S
C77    C82     1.200   .     T
C78    C81     1.200   .     T
C79    C80     1.200   .     T
C85    C142    1.426   .     S
C87    C107    1.455   .     S
C87    O284    1.273   .     A
C87    O711    1.274   1_455 S
C89    C106    1.395   .     A
C89    C119    1.399   .     A
C89    H153    1.084   .     S
C90    H193    1.084   .     S
C90    C121    1.402   .     A
C90    C471    1.397   .     S
C91    H204    1.084   .     S
C91    C122    1.401   .     A
C91    C108    1.397   .     A
C92    C123    1.399   .     A
C92    H215    1.084   .     S
C92    C838    1.392   .     S
C93    C115    1.399   .     A
C93    H226    1.084   .     S
C93    C470    1.394   .     S
C94    C107    1.396   .     A
C94    H237    1.084   .     S
C94    C116    1.402   .     A
C95    C117    1.401   .     A
C95    H248    1.084   .     S
C95    C836    1.397   .     S
C96    H259    1.084   .     S
C96    C110    1.393   .     A
C96    C118    1.400   .     A
C97    H270    1.084   .     S
C97    C128    1.402   .     A
C97    C111    1.397   .     A
C98    C113    1.450   .     S
C98    O649    1.270   .     S
C98    O653    1.270   .     S
C99    C129    1.399   .     A
C99    H154    1.084   .     S
C99    C840    1.395   .     S
C100   C130    1.400   .     A
C100   H165    1.084   .     S
C100   C113    1.393   .     A
C101   C132    1.401   .     A
C101   C114    1.397   .     A
C101   H176    1.084   .     S
C102   H186    1.084   .     S
C102   C124    1.402   .     A
C102   C839    1.396   .     S
C103   H187    1.084   .     S
C103   C112    1.394   .     A
C103   C125    1.399   .     A
C104   H188    1.084   .     S
C104   C126    1.399   .     A
C104   C477    1.392   1_455 S
C105   H189    1.084   .     S
C105   C127    1.401   .     A
C105   C478    1.397   .     S
C106   C457    1.394   1_455 S
C107   C454    1.397   1_455 S
C108   C823    1.397   1_545 S
C109   C114    1.456   .     S
C109   O286    1.272   .     S
C109   O290    1.271   .     S
C110   C820    1.392   1_545 S
C111   C120    1.456   .     S
C111   C830    1.396   1_545 S
C112   C827    1.395   1_545 S
C112   C859    1.449   1_545 S
C113   C468    1.392   .     S
C114   C469    1.397   1_455 S
C115   C141    1.406   .     A
C115   C497    1.415   .     S
C116   C134    1.412   .     A
C116   C143    1.409   .     A
C117   C144    1.411   .     A
C117   C863    1.416   .     S
C118   C136    1.413   .     A
C118   C145    1.411   .     A
C119   C146    1.406   .     A
C119   C133    1.415   .     A
C120   O287    1.273   .     A
C120   O291    1.274   .     A
C121   C147    1.408   .     A
C121   C498    1.413   .     S
C122   C148    1.411   .     A
C122   C135    1.416   .     A
C123   C149    1.411   .     A
C123   C864    1.412   .     S
C124   C150    1.409   .     A
C124   C865    1.412   .     S
C125   C138    1.415   .     A
C125   C151    1.406   .     A
C126   C152    1.411   .     A
C126   C139    1.412   .     A
C127   C504    1.416   .     S
C128   C137    1.413   .     A
C129   C866    1.415   .     S
C130   C503    1.413   .     S
C131   C840    1.449   .     S
C131   O1016   1.272   .     S
C131   O1021   1.272   .     S
C132   C140    1.416   .     A
C133   C134    1.405   .     A
C133   C479    1.415   1_455 S
C134   C485    1.413   1_455 S
C135   C136    1.403   .     A
C135   C845    1.416   1_545 S
C136   C851    1.412   1_545 S
C137   C852    1.412   1_545 S
C137   C138    1.405   1_556 S
C138   C857    1.415   1_545 S
C138   C137    1.405   1_554 S
C139   C494    1.413   1_455 S
C139   C140    1.403   1_556 S
C140   C491    1.416   1_455 S
C140   C139    1.403   1_554 S
C141   C147    1.407   .     A
C141   O329    1.384   .     S
C142   O294    1.276   .     A
C142   O322    1.276   .     A
C143   C146    1.407   .     A
C143   O330    1.382   .     S
C144   O331    1.386   .     S
C144   C149    1.409   .     A
C145   C148    1.409   .     A
C145   O332    1.389   .     S
C146   O333    1.385   .     S
C147   O334    1.382   .     S
C148   O335    1.386   .     S
C149   O337    1.390   .     S
C150   O338    1.382   .     S
C150   C5      1.407   1_556 S
C151   O339    1.384   .     S
C151   C4      1.407   1_554 S
C152   O340    1.390   .     S
C152   C7      1.409   1_556 S
H159   C49     1.109   1_554 S
H161   C50     1.110   1_554 S
H199   C375    1.116   .     S
H200   C376    1.109   1_455 S
H230   C389    1.117   1_455 S
H232   C390    1.109   1_455 S
H245   C759    1.106   1_545 S
H254   C36     1.110   1_554 S
H255   C36     1.110   1_554 S
H257   C37     1.110   1_554 S
O281   Zn352   1.933   .     S
O281   Zn349   1.937   .     S
O281   Zn360   1.937   .     S
O281   Zn1084  1.935   1_545 S
O282   C793    1.270   .     A
O282   Zn351   1.940   .     S
O283   Zn354   1.940   .     S
O283   C440    1.272   .     S
O284   Zn353   1.940   .     S
O285   Zn363   1.940   .     S
O285   C462    1.270   1_455 S
O286   Zn362   1.940   .     S
O287   Zn357   1.940   .     S
O288   Zn349   1.940   .     S
O288   C859    1.272   1_545 S
O289   Zn359   1.940   .     S
O289   C462    1.270   1_455 S
O290   Zn358   1.940   .     S
O291   Zn361   1.940   .     S
O292   Zn361   1.937   .     S
O292   Zn357   1.937   .     S
O292   Zn355   1.935   .     S
O292   Zn1079  1.933   1_545 S
O293   Zn360   1.940   .     S
O293   C859    1.272   1_545 S
O294   Zn352   1.921   .     S
O295   Zn351   1.921   .     S
O296   Zn354   1.919   .     S
O297   Zn353   1.919   .     S
O298   Zn356   1.921   .     S
O299   Zn355   1.921   .     S
O300   Zn350   1.919   .     S
O301   Zn364   1.919   .     S
O302   Zn351   1.921   .     S
O303   Zn718   1.937   1_455 S
O303   Zn350   1.937   .     S
O303   Zn358   1.933   .     S
O303   Zn362   1.935   .     S
O304   Zn352   1.921   .     S
O305   Zn364   1.919   .     S
O306   Zn350   1.919   .     S
O307   Zn355   1.920   .     S
O308   Zn356   1.920   .     S
O309   Zn353   1.919   .     S
O310   Zn354   1.919   .     S
O311   Zn723   1.921   .     S
O312   Zn358   1.921   .     S
O313   Zn1089  1.919   .     S
O314   Zn728   1.937   1_455 S
O314   Zn353   1.937   .     S
O314   Zn359   1.933   .     S
O314   Zn363   1.935   .     S
O315   Zn360   1.919   .     S
O316   Zn363   1.921   .     S
O317   Zn726   1.921   .     S
O318   Zn357   1.919   .     S
O319   Zn1077  1.919   .     S
O320   Zn722   1.921   .     S
O321   Zn359   1.921   .     S
O322   Zn349   1.919   .     S
O323   Zn1085  1.919   .     S
O324   Zn362   1.920   .     S
O325   Zn356   1.940   .     S
O325   C729    1.272   .     S
O326   Zn727   1.920   .     S
O327   Zn1088  1.919   .     S
O328   Zn361   1.919   .     S
O336   Zn355   1.940   .     S
O346   Zn350   1.940   .     S
O347   Zn364   1.940   .     S
O347   C451    1.274   .     S
O348   Zn352   1.940   .     S
Zn349  O1047   1.919   1_545 S
Zn351  O1020   1.933   .     S
Zn354  O667    1.937   .     S
Zn356  O1009   1.935   .     S
Zn357  O1051   1.919   1_545 S
Zn358  O684    1.921   1_455 S
Zn359  O675    1.921   1_455 S
Zn360  O1055   1.919   1_545 S
Zn361  O1041   1.919   1_545 S
Zn362  O681    1.921   1_455 S
Zn363  O690    1.920   1_455 S
Zn364  O678    1.937   .     S
C365   O712    1.271   .     A
C365   C472    1.456   .     S
C365   O1417   1.272   1_545 S
C366   O659    1.276   .     A
C366   O687    1.276   .     A
C366   C448    1.426   .     S
C367   O705    1.386   .     S
C367   C491    1.411   .     A
C367   C370    1.409   1_554 S
C368   C492    1.408   .     A
C368   O706    1.382   .     S
C368   C515    1.407   1_556 S
C369   O707    1.385   .     S
C369   C493    1.406   .     A
C369   C514    1.407   1_554 S
C370   C494    1.411   .     A
C370   O708    1.389   .     S
C370   C367    1.409   1_556 S
C371   C496    1.411   .     A
C371   O709    1.386   .     S
C371   C516    1.409   1_554 S
C372   H554    1.114   .     S
C372   O693    1.412   .     S
C372   H555    1.114   .     S
C372   C373    1.530   .     S
C373   C374    1.527   .     S
C373   H558    1.111   .     S
C373   H556    1.112   .     S
C374   H560    1.111   .     S
C374   H561    1.111   .     S
C374   H559    1.111   .     S
C375   H562    1.110   .     S
C375   O694    1.418   .     S
C376   H565    1.110   .     S
C376   C378    1.519   .     S
C376   C11     1.537   1_655 S
C376   H200    1.109   1_655 S
C377   O684    1.276   .     A
C377   O660    1.276   .     A
C377   C447    1.426   .     S
C378   H566    1.109   .     S
C378   H569    1.111   .     S
C378   H567    1.110   .     S
C379   H570    1.116   .     S
C379   H571    1.113   .     S
C379   O695    1.413   .     S
C379   C380    1.530   .     S
C380   H573    1.110   .     S
C380   C381    1.527   .     S
C380   H572    1.112   .     S
C381   H574    1.111   .     S
C381   H576    1.111   .     S
C381   H575    1.111   .     S
C382   O696    1.423   .     S
C382   H578    1.108   .     S
C382   H577    1.110   .     S
C382   C1111   1.539   1_545 S
C383   C384    1.519   .     S
C383   H581    1.111   .     S
C383   H580    1.110   .     S
C383   C1110   1.539   .     S
C384   H583    1.105   .     S
C384   H582    1.111   .     S
C384   H584    1.110   .     S
C385   H585    1.115   .     S
C385   C386    1.530   .     S
C385   H586    1.114   .     S
C385   O697    1.412   .     S
C386   C387    1.527   .     S
C386   H588    1.111   .     S
C386   H587    1.112   .     S
C387   H589    1.111   .     S
C387   H592    1.111   .     S
C387   H591    1.111   .     S
C388   O661    1.276   .     A
C388   O685    1.276   .     A
C388   C446    1.426   .     S
C389   C390    1.535   .     S
C389   H593    1.110   .     S
C389   O698    1.418   .     S
C389   H230    1.117   1_655 S
C390   H595    1.110   .     S
C390   C27     1.520   1_655 S
C390   H232    1.109   1_655 S
C391   H598    1.110   .     S
C391   H599    1.111   .     S
C391   H597    1.110   .     S
C392   C393    1.530   .     S
C392   O699    1.412   .     S
C392   H600    1.115   .     S
C392   H602    1.113   .     S
C393   C394    1.527   .     S
C393   H604    1.111   .     S
C393   H603    1.112   .     S
C394   H605    1.111   .     S
C394   H606    1.111   .     S
C394   H607    1.111   .     S
C395   O701    1.425   .     S
C395   H608    1.109   .     S
C395   C1124   1.540   .     S
C395   H1337   1.106   .     S
C396   H611    1.110   .     S
C396   C397    1.522   .     S
C396   H610    1.110   .     S
C396   C1123   1.540   1_545 S
C397   H614    1.105   .     S
C397   H613    1.111   .     S
C397   H615    1.110   .     S
C398   H617    1.116   .     S
C398   C400    1.537   .     S
C398   O702    1.418   .     S
C398   H616    1.110   .     S
C399   O662    1.277   .     A
C399   O691    1.276   .     A
C399   C445    1.426   .     S
C400   C401    1.520   .     S
C400   H618    1.110   1_556 S
C400   H619    1.110   1_556 S
C401   H620    1.109   .     S
C401   H622    1.111   .     S
C401   H621    1.110   1_556 S
C402   H624    1.114   .     S
C402   C403    1.530   .     S
C402   H625    1.114   .     S
C402   O703    1.412   .     S
C403   C404    1.527   .     S
C403   H626    1.112   .     S
C403   H627    1.111   .     S
C404   H629    1.111   .     S
C404   H630    1.111   .     S
C404   H628    1.111   .     S
C405   H631    1.109   .     S
C405   C406    1.540   .     S
C405   H632    1.106   .     S
C405   O704    1.425   .     S
C406   C407    1.522   .     S
C406   H635    1.110   .     S
C406   H633    1.110   .     S
C407   H638    1.110   .     S
C407   H636    1.111   .     S
C407   H637    1.105   .     S
C408   H640    1.113   .     S
C408   C409    1.530   .     S
C408   H639    1.115   .     S
C408   O705    1.412   .     S
C409   C411    1.527   .     S
C409   H641    1.112   .     S
C409   H642    1.111   .     S
C410   C444    1.426   .     S
C410   O663    1.277   .     A
C410   O692    1.276   .     A
C411   H644    1.111   .     S
C411   H643    1.111   .     S
C411   H519    1.111   .     S
C412   O706    1.418   .     S
C412   H520    1.110   .     S
C412   C413    1.535   .     S
C412   H521    1.117   .     S
C413   C414    1.520   .     S
C413   H522    1.110   .     S
C413   H523    1.109   1_556 S
C414   H524    1.110   .     S
C414   H526    1.111   .     S
C414   H525    1.110   1_556 S
C415   C416    1.530   .     S
C415   H528    1.114   .     S
C415   O707    1.412   .     S
C415   H527    1.115   .     S
C416   C417    1.527   .     S
C416   H531    1.111   .     S
C416   H530    1.112   .     S
C417   H534    1.111   .     S
C417   H532    1.111   .     S
C417   H533    1.111   .     S
C418   H536    1.107   .     S
C418   C419    1.539   .     S
C418   O708    1.423   .     S
C418   H535    1.110   .     S
C419   H537    1.110   .     S
C419   C420    1.519   .     S
C419   H538    1.111   .     S
C420   H542    1.110   .     S
C420   H541    1.105   .     S
C420   H539    1.111   .     S
C421   O664    1.276   .     A
C421   O688    1.277   .     A
C421   C452    1.426   .     S
C422   H544    1.113   .     S
C422   O709    1.413   .     S
C422   C423    1.530   .     S
C422   H543    1.116   .     S
C423   C424    1.527   .     S
C423   H546    1.110   .     S
C423   H545    1.112   .     S
C424   H548    1.111   .     S
C424   H549    1.111   .     S
C424   H547    1.111   .     S
C425   O665    1.276   .     A
C425   C450    1.426   .     S
C425   O690    1.277   .     A
C426   C441    1.426   .     S
C426   O666    1.276   .     A
C426   O677    1.276   .     A
C427   O679    1.276   .     A
C427   O668    1.276   .     A
C427   C439    1.426   .     S
C428   O675    1.276   .     A
C428   O669    1.276   .     A
C428   C438    1.426   .     S
C429   O1374   1.270   1_545 A
C429   C474    1.450   .     S
C429   O700    1.270   .     S
C430   O670    1.276   .     A
C430   O676    1.276   .     A
C430   C437    1.426   .     S
C431   O682    1.276   .     A
C431   O671    1.277   .     A
C431   C436    1.426   .     S
C432   C435    1.426   .     S
C432   O672    1.277   .     A
C432   O683    1.276   .     A
C433   O680    1.277   .     A
C433   C443    1.426   .     S
C433   O673    1.276   .     A
C434   C442    1.426   .     S
C434   O674    1.276   .     A
C434   O681    1.277   .     A
C435   C452    1.200   .     T
C436   C450    1.200   .     T
C437   C449    1.200   .     T
C438   C448    1.200   .     T
C439   C447    1.200   .     T
C440   O710    1.272   .     A
C440   C470    1.449   .     S
C441   C446    1.200   .     T
C442   C445    1.200   .     T
C443   C444    1.200   .     T
C449   C506    1.426   .     S
C451   C471    1.455   .     S
C451   O648    1.273   .     A
C453   C470    1.395   .     A
C453   C483    1.399   .     A
C453   H517    1.084   .     S
C454   H557    1.084   .     S
C454   C485    1.402   .     A
C454   C107    1.397   1_655 S
C455   H568    1.084   .     S
C455   C486    1.401   .     A
C455   C472    1.397   .     A
C456   C487    1.399   .     A
C456   H579    1.084   .     S
C456   C1202   1.392   .     S
C457   C479    1.399   .     A
C457   H590    1.084   .     S
C457   C106    1.394   1_655 S
C458   C471    1.396   .     A
C458   H601    1.084   .     S
C458   C480    1.402   .     A
C459   C481    1.401   .     A
C459   H612    1.084   .     S
C459   C1200   1.397   .     S
C460   H623    1.084   .     S
C460   C474    1.393   .     A
C460   C482    1.400   .     A
C461   H634    1.084   .     S
C461   C492    1.402   .     A
C461   C475    1.397   .     A
C462   C477    1.450   .     S
C462   O285    1.270   1_655 S
C462   O289    1.270   1_655 S
C463   C493    1.399   .     A
C463   H518    1.084   .     S
C463   C1204   1.395   .     S
C464   C494    1.400   .     A
C464   H529    1.084   .     S
C464   C477    1.393   .     A
C465   C496    1.401   .     A
C465   C478    1.397   .     A
C465   H540    1.084   .     S
C466   H550    1.084   .     S
C466   C488    1.402   .     A
C466   C1203   1.396   .     S
C467   H551    1.084   .     S
C467   C476    1.394   .     A
C467   C489    1.399   .     A
C468   H552    1.084   .     S
C468   C490    1.399   .     A
C469   H553    1.084   .     S
C469   C491    1.401   .     A
C469   C114    1.397   1_655 S
C472   C1187   1.397   1_545 S
C473   C478    1.456   .     S
C473   O650    1.272   .     S
C473   O654    1.271   .     S
C474   C1184   1.392   1_545 S
C475   C484    1.456   .     S
C475   C1194   1.396   1_545 S
C476   C1191   1.395   1_545 S
C476   C1223   1.449   1_545 S
C477   C104    1.392   1_655 S
C479   C505    1.406   .     A
C479   C133    1.415   1_655 S
C480   C498    1.412   .     A
C480   C507    1.409   .     A
C481   C508    1.411   .     A
C481   C1227   1.416   .     S
C482   C500    1.413   .     A
C482   C509    1.411   .     A
C483   C510    1.406   .     A
C483   C497    1.415   .     A
C484   O651    1.273   .     A
C484   O655    1.274   .     A
C485   C511    1.408   .     A
C485   C134    1.413   1_655 S
C486   C512    1.411   .     A
C486   C499    1.416   .     A
C487   C513    1.411   .     A
C487   C1228   1.412   .     S
C488   C514    1.409   .     A
C488   C1229   1.412   .     S
C489   C502    1.415   .     A
C489   C515    1.406   .     A
C490   C516    1.411   .     A
C490   C503    1.412   .     A
C491   C140    1.416   1_655 S
C492   C501    1.413   .     A
C493   C1230   1.415   .     S
C494   C139    1.413   1_655 S
C495   C1204   1.449   .     S
C495   O1380   1.272   .     S
C495   O1385   1.272   .     S
C496   C504    1.416   .     A
C497   C498    1.405   .     A
C499   C500    1.403   .     A
C499   C1209   1.416   1_545 S
C500   C1215   1.412   1_545 S
C501   C1216   1.412   1_545 S
C501   C502    1.405   1_556 S
C502   C1221   1.415   1_545 S
C502   C501    1.405   1_554 S
C503   C504    1.403   1_556 S
C504   C503    1.403   1_554 S
C505   C511    1.407   .     A
C505   O693    1.384   .     S
C506   O658    1.276   .     A
C506   O686    1.276   .     A
C507   C510    1.407   .     A
C507   O694    1.382   .     S
C508   O695    1.386   .     S
C508   C513    1.409   .     A
C509   C512    1.409   .     A
C509   O696    1.389   .     S
C510   O697    1.385   .     S
C511   O698    1.382   .     S
C512   O699    1.386   .     S
C513   O701    1.390   .     S
C514   O702    1.382   .     S
C514   C369    1.407   1_556 S
C515   O703    1.384   .     S
C515   C368    1.407   1_554 S
C516   O704    1.390   .     S
C516   C371    1.409   1_556 S
H523   C413    1.109   1_554 S
H525   C414    1.110   1_554 S
H563   C11     1.116   1_655 S
H609   C1123   1.106   1_545 S
H618   C400    1.110   1_554 S
H619   C400    1.110   1_554 S
H621   C401    1.110   1_554 S
O645   Zn716   1.933   .     S
O645   Zn713   1.937   .     S
O645   Zn724   1.937   .     S
O645   Zn1448  1.935   1_545 S
O646   C1157   1.270   .     A
O646   Zn715   1.940   .     S
O647   Zn718   1.940   .     S
O647   C76     1.272   1_655 S
O648   Zn717   1.940   .     S
O649   Zn727   1.940   .     S
O650   Zn726   1.940   .     S
O651   Zn721   1.940   .     S
O652   Zn713   1.940   .     S
O652   C1223   1.272   1_545 S
O653   Zn723   1.940   .     S
O654   Zn722   1.940   .     S
O655   Zn725   1.940   .     S
O656   Zn725   1.937   .     S
O656   Zn721   1.937   .     S
O656   Zn719   1.935   .     S
O656   Zn1443  1.933   1_545 S
O657   Zn724   1.940   .     S
O657   C1223   1.272   1_545 S
O658   Zn716   1.921   .     S
O659   Zn715   1.921   .     S
O660   Zn718   1.919   .     S
O661   Zn717   1.919   .     S
O662   Zn720   1.921   .     S
O663   Zn719   1.921   .     S
O664   Zn714   1.919   .     S
O665   Zn728   1.919   .     S
O666   Zn715   1.921   .     S
O667   Zn714   1.937   .     S
O667   Zn722   1.933   .     S
O667   Zn726   1.935   .     S
O668   Zn716   1.921   .     S
O669   Zn728   1.919   .     S
O670   Zn714   1.919   .     S
O671   Zn719   1.920   .     S
O672   Zn720   1.920   .     S
O673   Zn717   1.919   .     S
O674   Zn718   1.919   .     S
O675   Zn359   1.921   1_655 S
O676   Zn722   1.921   .     S
O677   Zn1453  1.919   .     S
O678   Zn717   1.937   .     S
O678   Zn723   1.933   .     S
O678   Zn727   1.935   .     S
O679   Zn724   1.919   .     S
O680   Zn727   1.921   .     S
O681   Zn362   1.921   1_655 S
O682   Zn721   1.919   .     S
O683   Zn1441  1.919   .     S
O684   Zn358   1.921   1_655 S
O685   Zn723   1.921   .     S
O686   Zn713   1.919   .     S
O687   Zn1449  1.919   .     S
O688   Zn726   1.920   .     S
O689   Zn720   1.940   .     S
O689   C1093   1.272   .     S
O690   Zn363   1.920   1_655 S
O691   Zn1452  1.919   .     S
O692   Zn725   1.919   .     S
O700   Zn719   1.940   .     S
O710   Zn714   1.940   .     S
O711   Zn728   1.940   .     S
O711   C87     1.274   1_655 S
O712   Zn716   1.940   .     S
Zn713  O1411   1.919   1_545 S
Zn715  O1384   1.933   .     S
Zn718  O303    1.937   1_655 S
Zn720  O1373   1.935   .     S
Zn721  O1415   1.919   1_545 S
Zn724  O1419   1.919   1_545 S
Zn725  O1405   1.919   1_545 S
Zn728  O314    1.937   1_655 S
C729   O1076   1.271   .     A
C729   C836    1.456   .     S
C730   O1023   1.276   .     A
C730   O1051   1.276   .     A
C730   C812    1.426   .     S
C731   O1069   1.386   .     S
C731   C855    1.411   .     A
C731   C734    1.409   1_554 S
C732   C856    1.408   .     A
C732   O1070   1.382   .     S
C732   C879    1.407   1_556 S
C733   O1071   1.385   .     S
C733   C857    1.406   .     A
C733   C878    1.407   1_554 S
C734   C858    1.411   .     A
C734   O1072   1.389   .     S
C734   C731    1.409   1_556 S
C735   C860    1.411   .     A
C735   O1073   1.386   .     S
C735   C880    1.409   1_554 S
C736   H918    1.114   .     S
C736   O1057   1.412   .     S
C736   H919    1.114   .     S
C736   C737    1.530   .     S
C737   C738    1.527   .     S
C737   H922    1.111   .     S
C737   H920    1.112   .     S
C738   H924    1.111   .     S
C738   H925    1.111   .     S
C738   H923    1.111   .     S
C739   H926    1.110   .     S
C739   O1058   1.418   .     S
C739   C1104   1.537   1_455 S
C739   H1291   1.116   1_455 S
C740   H929    1.110   .     S
C740   C742    1.519   .     S
C740   C1103   1.537   .     S
C740   H1292   1.109   .     S
C741   O1048   1.276   .     A
C741   O1024   1.276   .     A
C741   C811    1.426   .     S
C742   H930    1.109   .     S
C742   H933    1.111   .     S
C742   H931    1.110   .     S
C743   H934    1.116   .     S
C743   H935    1.113   .     S
C743   O1059   1.413   .     S
C743   C744    1.530   .     S
C744   H937    1.110   .     S
C744   C745    1.527   .     S
C744   H936    1.112   .     S
C745   H938    1.111   .     S
C745   H940    1.111   .     S
C745   H939    1.111   .     S
C746   O1060   1.423   .     S
C746   H942    1.108   .     S
C746   H941    1.110   .     S
C747   C748    1.519   .     S
C747   H945    1.111   .     S
C747   H944    1.110   .     S
C747   C18     1.539   1_565 S
C748   H947    1.105   .     S
C748   H946    1.111   .     S
C748   H948    1.110   .     S
C749   H949    1.115   .     S
C749   C750    1.530   .     S
C749   H950    1.114   .     S
C749   O1061   1.412   .     S
C750   C751    1.527   .     S
C750   H952    1.111   .     S
C750   H951    1.112   .     S
C751   H953    1.111   .     S
C751   H956    1.111   .     S
C751   H955    1.111   .     S
C752   O1025   1.276   .     A
C752   O1049   1.276   .     A
C752   C810    1.426   .     S
C753   C754    1.535   .     S
C753   H957    1.110   .     S
C753   O1062   1.418   .     S
C753   H1322   1.117   .     S
C754   H959    1.110   .     S
C754   C1119   1.520   .     S
C754   H1324   1.109   .     S
C755   H962    1.110   .     S
C755   H963    1.111   .     S
C755   H961    1.110   .     S
C755   C1118   1.520   1_455 S
C756   C757    1.530   .     S
C756   O1063   1.412   .     S
C756   H964    1.115   .     S
C756   H966    1.113   .     S
C757   C758    1.527   .     S
C757   H968    1.111   .     S
C757   H967    1.112   .     S
C758   H969    1.111   .     S
C758   H970    1.111   .     S
C758   H971    1.111   .     S
C759   O1065   1.425   .     S
C759   H972    1.109   .     S
C759   C32     1.540   1_565 S
C759   H245    1.106   1_565 S
C760   H975    1.110   .     S
C760   C761    1.522   .     S
C760   H974    1.110   .     S
C761   H978    1.105   .     S
C761   H977    1.111   .     S
C761   H979    1.110   .     S
C762   H981    1.116   .     S
C762   C764    1.537   .     S
C762   O1066   1.418   .     S
C762   H980    1.110   .     S
C763   O1026   1.277   .     A
C763   O1055   1.276   .     A
C763   C809    1.426   .     S
C764   C765    1.520   .     S
C764   H982    1.110   1_556 S
C764   H983    1.110   1_556 S
C765   H984    1.109   .     S
C765   H986    1.111   .     S
C765   H985    1.110   1_556 S
C766   H988    1.114   .     S
C766   C767    1.530   .     S
C766   H989    1.114   .     S
C766   O1067   1.412   .     S
C767   C768    1.527   .     S
C767   H990    1.112   .     S
C767   H991    1.111   .     S
C768   H993    1.111   .     S
C768   H994    1.111   .     S
C768   H992    1.111   .     S
C769   H995    1.109   .     S
C769   C770    1.540   .     S
C769   H996    1.106   .     S
C769   O1068   1.425   .     S
C770   C771    1.522   .     S
C770   H999    1.110   .     S
C770   H997    1.110   .     S
C771   H1002   1.110   .     S
C771   H1000   1.111   .     S
C771   H1001   1.105   .     S
C772   H1004   1.113   .     S
C772   C773    1.530   .     S
C772   H1003   1.115   .     S
C772   O1069   1.412   .     S
C773   C775    1.527   .     S
C773   H1005   1.112   .     S
C773   H1006   1.111   .     S
C774   C808    1.426   .     S
C774   O1027   1.277   .     A
C774   O1056   1.276   .     A
C775   H1008   1.111   .     S
C775   H1007   1.111   .     S
C775   H883    1.111   .     S
C776   O1070   1.418   .     S
C776   H884    1.110   .     S
C776   C777    1.535   .     S
C776   H885    1.117   .     S
C777   C778    1.520   .     S
C777   H886    1.110   .     S
C777   H887    1.109   1_556 S
C778   H888    1.110   .     S
C778   H890    1.111   .     S
C778   H889    1.110   1_556 S
C779   C780    1.530   .     S
C779   H892    1.114   .     S
C779   O1071   1.412   .     S
C779   H891    1.115   .     S
C780   C781    1.527   .     S
C780   H895    1.111   .     S
C780   H894    1.112   .     S
C781   H898    1.111   .     S
C781   H896    1.111   .     S
C781   H897    1.111   .     S
C782   H900    1.107   .     S
C782   C783    1.539   .     S
C782   O1072   1.423   .     S
C782   H899    1.110   .     S
C783   H901    1.110   .     S
C783   C784    1.519   .     S
C783   H902    1.111   .     S
C784   H906    1.110   .     S
C784   H905    1.105   .     S
C784   H903    1.111   .     S
C785   O1028   1.276   .     A
C785   O1052   1.277   .     A
C785   C816    1.426   .     S
C786   H908    1.113   .     S
C786   O1073   1.413   .     S
C786   C787    1.530   .     S
C786   H907    1.116   .     S
C787   C788    1.527   .     S
C787   H910    1.110   .     S
C787   H909    1.112   .     S
C788   H912    1.111   .     S
C788   H913    1.111   .     S
C788   H911    1.111   .     S
C789   O1029   1.276   .     A
C789   C814    1.426   .     S
C789   O1054   1.277   .     A
C790   C805    1.426   .     S
C790   O1030   1.276   .     A
C790   O1041   1.276   .     A
C791   O1043   1.276   .     A
C791   O1032   1.276   .     A
C791   C803    1.426   .     S
C792   O1039   1.276   .     A
C792   O1033   1.276   .     A
C792   C802    1.426   .     S
C793   C838    1.450   .     S
C793   O1064   1.270   .     S
C794   O1034   1.276   .     A
C794   O1040   1.276   .     A
C794   C801    1.426   .     S
C795   O1046   1.276   .     A
C795   O1035   1.277   .     A
C795   C800    1.426   .     S
C796   C799    1.426   .     S
C796   O1036   1.277   .     A
C796   O1047   1.276   .     A
C797   O1044   1.277   .     A
C797   C807    1.426   .     S
C797   O1037   1.276   .     A
C798   C806    1.426   .     S
C798   O1038   1.276   .     A
C798   O1045   1.277   .     A
C799   C816    1.200   .     T
C800   C814    1.200   .     T
C801   C813    1.200   .     T
C802   C812    1.200   .     T
C803   C811    1.200   .     T
C804   O1074   1.272   .     A
C804   C834    1.449   .     S
C804   O1375   1.272   1_455 S
C805   C810    1.200   .     T
C806   C809    1.200   .     T
C807   C808    1.200   .     T
C813   C870    1.426   .     S
C815   C835    1.455   .     S
C815   O1012   1.273   .     A
C815   O1439   1.274   1_455 S
C817   C834    1.395   .     A
C817   C847    1.399   .     A
C817   H881    1.084   .     S
C818   H921    1.084   .     S
C818   C849    1.402   .     A
C818   C1199   1.397   .     S
C819   H932    1.084   .     S
C819   C850    1.401   .     A
C819   C836    1.397   .     A
C820   C851    1.399   .     A
C820   H943    1.084   .     S
C820   C110    1.392   1_565 S
C821   C843    1.399   .     A
C821   H954    1.084   .     S
C821   C1198   1.394   .     S
C822   C835    1.396   .     A
C822   H965    1.084   .     S
C822   C844    1.402   .     A
C823   C845    1.401   .     A
C823   H976    1.084   .     S
C823   C108    1.397   1_565 S
C824   H987    1.084   .     S
C824   C838    1.393   .     A
C824   C846    1.400   .     A
C825   H998    1.084   .     S
C825   C856    1.402   .     A
C825   C839    1.397   .     A
C826   C841    1.450   .     S
C826   O1377   1.270   .     S
C826   O1381   1.270   .     S
C827   C857    1.399   .     A
C827   H882    1.084   .     S
C827   C112    1.395   1_565 S
C828   C858    1.400   .     A
C828   H893    1.084   .     S
C828   C841    1.393   .     A
C829   C860    1.401   .     A
C829   C842    1.397   .     A
C829   H904    1.084   .     S
C830   H914    1.084   .     S
C830   C852    1.402   .     A
C830   C111    1.396   1_565 S
C831   H915    1.084   .     S
C831   C840    1.394   .     A
C831   C853    1.399   .     A
C832   H916    1.084   .     S
C832   C854    1.399   .     A
C832   C1205   1.392   1_455 S
C833   H917    1.084   .     S
C833   C855    1.401   .     A
C833   C1206   1.397   .     S
C834   C1185   1.394   1_455 S
C835   C1182   1.397   1_455 S
C837   C842    1.456   .     S
C837   O1014   1.272   .     S
C837   O1018   1.271   .     S
C839   C848    1.456   .     S
C841   C1196   1.392   .     S
C842   C1197   1.397   1_455 S
C843   C869    1.406   .     A
C843   C1225   1.415   .     S
C844   C862    1.412   .     A
C844   C871    1.409   .     A
C845   C872    1.411   .     A
C845   C135    1.416   1_565 S
C846   C864    1.413   .     A
C846   C873    1.411   .     A
C847   C874    1.406   .     A
C847   C861    1.415   .     A
C848   O1015   1.273   .     A
C848   O1019   1.274   .     A
C849   C875    1.408   .     A
C849   C1226   1.413   .     S
C850   C876    1.411   .     A
C850   C863    1.416   .     A
C851   C877    1.411   .     A
C851   C136    1.412   1_565 S
C852   C878    1.409   .     A
C852   C137    1.412   1_565 S
C853   C866    1.415   .     A
C853   C879    1.406   .     A
C854   C880    1.411   .     A
C854   C867    1.412   .     A
C855   C1232   1.416   .     S
C856   C865    1.413   .     A
C857   C138    1.415   1_565 S
C858   C1231   1.413   .     S
C859   C112    1.449   1_565 S
C859   O288    1.272   1_565 S
C859   O293    1.272   1_565 S
C860   C868    1.416   .     A
C861   C862    1.405   .     A
C861   C1207   1.415   1_455 S
C862   C1213   1.413   1_455 S
C863   C864    1.403   .     A
C865   C866    1.405   1_556 S
C866   C865    1.405   1_554 S
C867   C1222   1.413   1_455 S
C867   C868    1.403   1_556 S
C868   C1219   1.416   1_455 S
C868   C867    1.403   1_554 S
C869   C875    1.407   .     A
C869   O1057   1.384   .     S
C870   O1022   1.276   .     A
C870   O1050   1.276   .     A
C871   C874    1.407   .     A
C871   O1058   1.382   .     S
C872   O1059   1.386   .     S
C872   C877    1.409   .     A
C873   C876    1.409   .     A
C873   O1060   1.389   .     S
C874   O1061   1.385   .     S
C875   O1062   1.382   .     S
C876   O1063   1.386   .     S
C877   O1065   1.390   .     S
C878   O1066   1.382   .     S
C878   C733    1.407   1_556 S
C879   O1067   1.384   .     S
C879   C732    1.407   1_554 S
C880   O1068   1.390   .     S
C880   C735    1.409   1_556 S
H887   C777    1.109   1_554 S
H889   C778    1.110   1_554 S
H927   C1103   1.116   .     S
H928   C1104   1.109   1_455 S
H958   C1117   1.117   1_455 S
H960   C1118   1.109   1_455 S
H982   C764    1.110   1_554 S
H983   C764    1.110   1_554 S
H985   C765    1.110   1_554 S
O1009  Zn1080  1.933   .     S
O1009  Zn1077  1.937   .     S
O1009  Zn1088  1.937   .     S
O1010  C65     1.270   1_565 A
O1010  Zn1079  1.940   .     S
O1011  Zn1082  1.940   .     S
O1011  C1168   1.272   .     S
O1012  Zn1081  1.940   .     S
O1013  Zn1091  1.940   .     S
O1013  C1190   1.270   1_455 S
O1014  Zn1090  1.940   .     S
O1015  Zn1085  1.940   .     S
O1016  Zn1077  1.940   .     S
O1017  Zn1087  1.940   .     S
O1017  C1190   1.270   1_455 S
O1018  Zn1086  1.940   .     S
O1019  Zn1089  1.940   .     S
O1020  Zn1089  1.937   .     S
O1020  Zn1085  1.937   .     S
O1020  Zn1083  1.935   .     S
O1021  Zn1088  1.940   .     S
O1022  Zn1080  1.921   .     S
O1023  Zn1079  1.921   .     S
O1024  Zn1082  1.919   .     S
O1025  Zn1081  1.919   .     S
O1026  Zn1084  1.921   .     S
O1027  Zn1083  1.921   .     S
O1028  Zn1078  1.919   .     S
O1029  Zn1092  1.919   .     S
O1030  Zn1079  1.921   .     S
O1031  Zn1446  1.937   1_455 S
O1031  Zn1078  1.937   .     S
O1031  Zn1086  1.933   .     S
O1031  Zn1090  1.935   .     S
O1032  Zn1080  1.921   .     S
O1033  Zn1092  1.919   .     S
O1034  Zn1078  1.919   .     S
O1035  Zn1083  1.920   .     S
O1036  Zn1084  1.920   .     S
O1037  Zn1081  1.919   .     S
O1038  Zn1082  1.919   .     S
O1039  Zn1451  1.921   .     S
O1040  Zn1086  1.921   .     S
O1041  Zn361   1.919   1_565 S
O1042  Zn1456  1.937   1_455 S
O1042  Zn1081  1.937   .     S
O1042  Zn1087  1.933   .     S
O1042  Zn1091  1.935   .     S
O1043  Zn1088  1.919   .     S
O1044  Zn1091  1.921   .     S
O1045  Zn1454  1.921   .     S
O1046  Zn1085  1.919   .     S
O1047  Zn349   1.919   1_565 S
O1048  Zn1450  1.921   .     S
O1049  Zn1087  1.921   .     S
O1050  Zn1077  1.919   .     S
O1051  Zn357   1.919   1_565 S
O1052  Zn1090  1.920   .     S
O1053  Zn1084  1.940   .     S
O1053  C1      1.272   1_565 S
O1054  Zn1455  1.920   .     S
O1055  Zn360   1.919   1_565 S
O1056  Zn1089  1.919   .     S
O1064  Zn1083  1.940   .     S
O1074  Zn1078  1.940   .     S
O1075  Zn1092  1.940   .     S
O1075  C1179   1.274   .     S
O1076  Zn1080  1.940   .     S
Zn1079 O292    1.933   1_565 S
Zn1082 O1395   1.937   .     S
Zn1084 O281    1.935   1_565 S
Zn1086 O1412   1.921   1_455 S
Zn1087 O1403   1.921   1_455 S
Zn1090 O1409   1.921   1_455 S
Zn1091 O1418   1.920   1_455 S
Zn1092 O1406   1.937   .     S
C1093  O1440   1.271   .     A
C1093  C1200   1.456   .     S
C1094  O1387   1.276   .     A
C1094  O1415   1.276   .     A
C1094  C1176   1.426   .     S
C1095  O1433   1.386   .     S
C1095  C1219   1.411   .     A
C1095  C1098   1.409   1_554 S
C1096  C1220   1.408   .     A
C1096  O1434   1.382   .     S
C1096  C1243   1.407   1_556 S
C1097  O1435   1.385   .     S
C1097  C1221   1.406   .     A
C1097  C1242   1.407   1_554 S
C1098  C1222   1.411   .     A
C1098  O1436   1.389   .     S
C1098  C1095   1.409   1_556 S
C1099  C1224   1.411   .     A
C1099  O1437   1.386   .     S
C1099  C1244   1.409   1_554 S
C1100  H1282   1.114   .     S
C1100  O1421   1.412   .     S
C1100  H1283   1.114   .     S
C1100  C1101   1.530   .     S
C1101  C1102   1.527   .     S
C1101  H1286   1.111   .     S
C1101  H1284   1.112   .     S
C1102  H1288   1.111   .     S
C1102  H1289   1.111   .     S
C1102  H1287   1.111   .     S
C1103  H1290   1.110   .     S
C1103  O1422   1.418   .     S
C1104  H1293   1.110   .     S
C1104  C1106   1.519   .     S
C1104  C739    1.537   1_655 S
C1104  H928    1.109   1_655 S
C1105  O1412   1.276   .     A
C1105  O1388   1.276   .     A
C1105  C1175   1.426   .     S
C1106  H1294   1.109   .     S
C1106  H1297   1.111   .     S
C1106  H1295   1.110   .     S
C1107  H1298   1.116   .     S
C1107  H1299   1.113   .     S
C1107  O1423   1.413   .     S
C1107  C1108   1.530   .     S
C1108  H1301   1.110   .     S
C1108  C1109   1.527   .     S
C1108  H1300   1.112   .     S
C1109  H1302   1.111   .     S
C1109  H1304   1.111   .     S
C1109  H1303   1.111   .     S
C1110  O1424   1.423   .     S
C1110  H1306   1.108   .     S
C1110  H1305   1.110   .     S
C1111  C1112   1.519   .     S
C1111  H1309   1.111   .     S
C1111  H1308   1.110   .     S
C1111  C382    1.539   1_565 S
C1112  H1311   1.105   .     S
C1112  H1310   1.111   .     S
C1112  H1312   1.110   .     S
C1113  H1313   1.115   .     S
C1113  C1114   1.530   .     S
C1113  H1314   1.114   .     S
C1113  O1425   1.412   .     S
C1114  C1115   1.527   .     S
C1114  H1316   1.111   .     S
C1114  H1315   1.112   .     S
C1115  H1317   1.111   .     S
C1115  H1320   1.111   .     S
C1115  H1319   1.111   .     S
C1116  O1389   1.276   .     A
C1116  O1413   1.276   .     A
C1116  C1174   1.426   .     S
C1117  C1118   1.535   .     S
C1117  H1321   1.110   .     S
C1117  O1426   1.418   .     S
C1117  H958    1.117   1_655 S
C1118  H1323   1.110   .     S
C1118  C755    1.520   1_655 S
C1118  H960    1.109   1_655 S
C1119  H1326   1.110   .     S
C1119  H1327   1.111   .     S
C1119  H1325   1.110   .     S
C1120  C1121   1.530   .     S
C1120  O1427   1.412   .     S
C1120  H1328   1.115   .     S
C1120  H1330   1.113   .     S
C1121  C1122   1.527   .     S
C1121  H1332   1.111   .     S
C1121  H1331   1.112   .     S
C1122  H1333   1.111   .     S
C1122  H1334   1.111   .     S
C1122  H1335   1.111   .     S
C1123  O1429   1.425   .     S
C1123  H1336   1.109   .     S
C1123  C396    1.540   1_565 S
C1123  H609    1.106   1_565 S
C1124  H1339   1.110   .     S
C1124  C1125   1.522   .     S
C1124  H1338   1.110   .     S
C1125  H1342   1.105   .     S
C1125  H1341   1.111   .     S
C1125  H1343   1.110   .     S
C1126  H1345   1.116   .     S
C1126  C1128   1.537   .     S
C1126  O1430   1.418   .     S
C1126  H1344   1.110   .     S
C1127  O1390   1.277   .     A
C1127  O1419   1.276   .     A
C1127  C1173   1.426   .     S
C1128  C1129   1.520   .     S
C1128  H1346   1.110   1_556 S
C1128  H1347   1.110   1_556 S
C1129  H1348   1.109   .     S
C1129  H1350   1.111   .     S
C1129  H1349   1.110   1_556 S
C1130  H1352   1.114   .     S
C1130  C1131   1.530   .     S
C1130  H1353   1.114   .     S
C1130  O1431   1.412   .     S
C1131  C1132   1.527   .     S
C1131  H1354   1.112   .     S
C1131  H1355   1.111   .     S
C1132  H1357   1.111   .     S
C1132  H1358   1.111   .     S
C1132  H1356   1.111   .     S
C1133  H1359   1.109   .     S
C1133  C1134   1.540   .     S
C1133  H1360   1.106   .     S
C1133  O1432   1.425   .     S
C1134  C1135   1.522   .     S
C1134  H1363   1.110   .     S
C1134  H1361   1.110   .     S
C1135  H1366   1.110   .     S
C1135  H1364   1.111   .     S
C1135  H1365   1.105   .     S
C1136  H1368   1.113   .     S
C1136  C1137   1.530   .     S
C1136  H1367   1.115   .     S
C1136  O1433   1.412   .     S
C1137  C1139   1.527   .     S
C1137  H1369   1.112   .     S
C1137  H1370   1.111   .     S
C1138  C1172   1.426   .     S
C1138  O1391   1.277   .     A
C1138  O1420   1.276   .     A
C1139  H1372   1.111   .     S
C1139  H1371   1.111   .     S
C1139  H1247   1.111   .     S
C1140  O1434   1.418   .     S
C1140  H1248   1.110   .     S
C1140  C1141   1.535   .     S
C1140  H1249   1.117   .     S
C1141  C1142   1.520   .     S
C1141  H1250   1.110   .     S
C1141  H1251   1.109   1_556 S
C1142  H1252   1.110   .     S
C1142  H1254   1.111   .     S
C1142  H1253   1.110   1_556 S
C1143  C1144   1.530   .     S
C1143  H1256   1.114   .     S
C1143  O1435   1.412   .     S
C1143  H1255   1.115   .     S
C1144  C1145   1.527   .     S
C1144  H1259   1.111   .     S
C1144  H1258   1.112   .     S
C1145  H1262   1.111   .     S
C1145  H1260   1.111   .     S
C1145  H1261   1.111   .     S
C1146  H1264   1.107   .     S
C1146  C1147   1.539   .     S
C1146  O1436   1.423   .     S
C1146  H1263   1.110   .     S
C1147  H1265   1.110   .     S
C1147  C1148   1.519   .     S
C1147  H1266   1.111   .     S
C1148  H1270   1.110   .     S
C1148  H1269   1.105   .     S
C1148  H1267   1.111   .     S
C1149  O1392   1.276   .     A
C1149  O1416   1.277   .     A
C1149  C1180   1.426   .     S
C1150  H1272   1.113   .     S
C1150  O1437   1.413   .     S
C1150  C1151   1.530   .     S
C1150  H1271   1.116   .     S
C1151  C1152   1.527   .     S
C1151  H1274   1.110   .     S
C1151  H1273   1.112   .     S
C1152  H1276   1.111   .     S
C1152  H1277   1.111   .     S
C1152  H1275   1.111   .     S
C1153  O1393   1.276   .     A
C1153  C1178   1.426   .     S
C1153  O1418   1.277   .     A
C1154  C1169   1.426   .     S
C1154  O1394   1.276   .     A
C1154  O1405   1.276   .     A
C1155  O1407   1.276   .     A
C1155  O1396   1.276   .     A
C1155  C1167   1.426   .     S
C1156  O1403   1.276   .     A
C1156  O1397   1.276   .     A
C1156  C1166   1.426   .     S
C1157  C1202   1.450   .     S
C1157  O1428   1.270   .     S
C1158  O1398   1.276   .     A
C1158  O1404   1.276   .     A
C1158  C1165   1.426   .     S
C1159  O1410   1.276   .     A
C1159  O1399   1.277   .     A
C1159  C1164   1.426   .     S
C1160  C1163   1.426   .     S
C1160  O1400   1.277   .     A
C1160  O1411   1.276   .     A
C1161  O1408   1.277   .     A
C1161  C1171   1.426   .     S
C1161  O1401   1.276   .     A
C1162  C1170   1.426   .     S
C1162  O1402   1.276   .     A
C1162  O1409   1.277   .     A
C1163  C1180   1.200   .     T
C1164  C1178   1.200   .     T
C1165  C1177   1.200   .     T
C1166  C1176   1.200   .     T
C1167  C1175   1.200   .     T
C1168  O1438   1.272   .     A
C1168  C1198   1.449   .     S
C1169  C1174   1.200   .     T
C1170  C1173   1.200   .     T
C1171  C1172   1.200   .     T
C1177  C1234   1.426   .     S
C1179  C1199   1.455   .     S
C1179  O1376   1.273   .     A
C1181  C1198   1.395   .     A
C1181  C1211   1.399   .     A
C1181  H1245   1.084   .     S
C1182  H1285   1.084   .     S
C1182  C1213   1.402   .     A
C1182  C835    1.397   1_655 S
C1183  H1296   1.084   .     S
C1183  C1214   1.401   .     A
C1183  C1200   1.397   .     A
C1184  C1215   1.399   .     A
C1184  H1307   1.084   .     S
C1184  C474    1.392   1_565 S
C1185  C1207   1.399   .     A
C1185  H1318   1.084   .     S
C1185  C834    1.394   1_655 S
C1186  C1199   1.396   .     A
C1186  H1329   1.084   .     S
C1186  C1208   1.402   .     A
C1187  C1209   1.401   .     A
C1187  H1340   1.084   .     S
C1187  C472    1.397   1_565 S
C1188  H1351   1.084   .     S
C1188  C1202   1.393   .     A
C1188  C1210   1.400   .     A
C1189  H1362   1.084   .     S
C1189  C1220   1.402   .     A
C1189  C1203   1.397   .     A
C1190  C1205   1.450   .     S
C1190  O1013   1.270   1_655 S
C1190  O1017   1.270   1_655 S
C1191  C1221   1.399   .     A
C1191  H1246   1.084   .     S
C1191  C476    1.395   1_565 S
C1192  C1222   1.400   .     A
C1192  H1257   1.084   .     S
C1192  C1205   1.393   .     A
C1193  C1224   1.401   .     A
C1193  C1206   1.397   .     A
C1193  H1268   1.084   .     S
C1194  H1278   1.084   .     S
C1194  C1216   1.402   .     A
C1194  C475    1.396   1_565 S
C1195  H1279   1.084   .     S
C1195  C1204   1.394   .     A
C1195  C1217   1.399   .     A
C1196  H1280   1.084   .     S
C1196  C1218   1.399   .     A
C1197  H1281   1.084   .     S
C1197  C1219   1.401   .     A
C1197  C842    1.397   1_655 S
C1201  C1206   1.456   .     S
C1201  O1378   1.272   .     S
C1201  O1382   1.271   .     S
C1203  C1212   1.456   .     S
C1205  C832    1.392   1_655 S
C1207  C1233   1.406   .     A
C1207  C861    1.415   1_655 S
C1208  C1226   1.412   .     A
C1208  C1235   1.409   .     A
C1209  C1236   1.411   .     A
C1209  C499    1.416   1_565 S
C1210  C1228   1.413   .     A
C1210  C1237   1.411   .     A
C1211  C1238   1.406   .     A
C1211  C1225   1.415   .     A
C1212  O1379   1.273   .     A
C1212  O1383   1.274   .     A
C1213  C1239   1.408   .     A
C1213  C862    1.413   1_655 S
C1214  C1240   1.411   .     A
C1214  C1227   1.416   .     A
C1215  C1241   1.411   .     A
C1215  C500    1.412   1_565 S
C1216  C1242   1.409   .     A
C1216  C501    1.412   1_565 S
C1217  C1230   1.415   .     A
C1217  C1243   1.406   .     A
C1218  C1244   1.411   .     A
C1218  C1231   1.412   .     A
C1219  C868    1.416   1_655 S
C1220  C1229   1.413   .     A
C1221  C502    1.415   1_565 S
C1222  C867    1.413   1_655 S
C1223  C476    1.449   1_565 S
C1223  O652    1.272   1_565 S
C1223  O657    1.272   1_565 S
C1224  C1232   1.416   .     A
C1225  C1226   1.405   .     A
C1227  C1228   1.403   .     A
C1229  C1230   1.405   1_556 S
C1230  C1229   1.405   1_554 S
C1231  C1232   1.403   1_556 S
C1232  C1231   1.403   1_554 S
C1233  C1239   1.407   .     A
C1233  O1421   1.384   .     S
C1234  O1386   1.276   .     A
C1234  O1414   1.276   .     A
C1235  C1238   1.407   .     A
C1235  O1422   1.382   .     S
C1236  O1423   1.386   .     S
C1236  C1241   1.409   .     A
C1237  C1240   1.409   .     A
C1237  O1424   1.389   .     S
C1238  O1425   1.385   .     S
C1239  O1426   1.382   .     S
C1240  O1427   1.386   .     S
C1241  O1429   1.390   .     S
C1242  O1430   1.382   .     S
C1242  C1097   1.407   1_556 S
C1243  O1431   1.384   .     S
C1243  C1096   1.407   1_554 S
C1244  O1432   1.390   .     S
C1244  C1099   1.409   1_556 S
H1251  C1141   1.109   1_554 S
H1253  C1142   1.110   1_554 S
H1291  C739    1.116   1_655 S
H1346  C1128   1.110   1_554 S
H1347  C1128   1.110   1_554 S
H1349  C1129   1.110   1_554 S
O1373  Zn1444  1.933   .     S
O1373  Zn1441  1.937   .     S
O1373  Zn1452  1.937   .     S
O1374  C429    1.270   1_565 A
O1374  Zn1443  1.940   .     S
O1375  Zn1446  1.940   .     S
O1375  C804    1.272   1_655 S
O1376  Zn1445  1.940   .     S
O1377  Zn1455  1.940   .     S
O1378  Zn1454  1.940   .     S
O1379  Zn1449  1.940   .     S
O1380  Zn1441  1.940   .     S
O1381  Zn1451  1.940   .     S
O1382  Zn1450  1.940   .     S
O1383  Zn1453  1.940   .     S
O1384  Zn1453  1.937   .     S
O1384  Zn1449  1.937   .     S
O1384  Zn1447  1.935   .     S
O1385  Zn1452  1.940   .     S
O1386  Zn1444  1.921   .     S
O1387  Zn1443  1.921   .     S
O1388  Zn1446  1.919   .     S
O1389  Zn1445  1.919   .     S
O1390  Zn1448  1.921   .     S
O1391  Zn1447  1.921   .     S
O1392  Zn1442  1.919   .     S
O1393  Zn1456  1.919   .     S
O1394  Zn1443  1.921   .     S
O1395  Zn1442  1.937   .     S
O1395  Zn1450  1.933   .     S
O1395  Zn1454  1.935   .     S
O1396  Zn1444  1.921   .     S
O1397  Zn1456  1.919   .     S
O1398  Zn1442  1.919   .     S
O1399  Zn1447  1.920   .     S
O1400  Zn1448  1.920   .     S
O1401  Zn1445  1.919   .     S
O1402  Zn1446  1.919   .     S
O1403  Zn1087  1.921   1_655 S
O1404  Zn1450  1.921   .     S
O1405  Zn725   1.919   1_565 S
O1406  Zn1445  1.937   .     S
O1406  Zn1451  1.933   .     S
O1406  Zn1455  1.935   .     S
O1407  Zn1452  1.919   .     S
O1408  Zn1455  1.921   .     S
O1409  Zn1090  1.921   1_655 S
O1410  Zn1449  1.919   .     S
O1411  Zn713   1.919   1_565 S
O1412  Zn1086  1.921   1_655 S
O1413  Zn1451  1.921   .     S
O1414  Zn1441  1.919   .     S
O1415  Zn721   1.919   1_565 S
O1416  Zn1454  1.920   .     S
O1417  Zn1448  1.940   .     S
O1417  C365    1.272   1_565 S
O1418  Zn1091  1.920   1_655 S
O1419  Zn724   1.919   1_565 S
O1420  Zn1453  1.919   .     S
O1428  Zn1447  1.940   .     S
O1438  Zn1442  1.940   .     S
O1439  Zn1456  1.940   .     S
O1439  C815    1.274   1_655 S
O1440  Zn1444  1.940   .     S
Zn1443 O656    1.933   1_565 S
Zn1446 O1031   1.937   1_655 S
Zn1448 O645    1.935   1_565 S
Zn1456 O1042   1.937   1_655 S
