data_str_m3_o1_o18_pcu_sym.72
_audit_creation_date              2020-01-03
_audit_creation_method            'Materials Studio'
_symmetry_space_group_name_H-M    'P1'
_symmetry_Int_Tables_number       1
_symmetry_cell_setting            triclinic
loop_
_symmetry_equiv_pos_as_xyz
  x,y,z
_cell_length_a                    29.5480
_cell_length_b                    32.1380
_cell_length_c                    31.0013
_cell_angle_alpha                 90.2515
_cell_angle_beta                  68.0127
_cell_angle_gamma                 90.1425
loop_
_atom_site_label
_atom_site_type_symbol
_atom_site_fract_x
_atom_site_fract_y
_atom_site_fract_z
_atom_site_U_iso_or_equiv
_atom_site_adp_type
_atom_site_occupancy
C1     C     0.16666   0.24670   0.25015   0.00000  Uiso   1.00
C2     C     0.12251   0.31196   0.26056   0.00000  Uiso   1.00
C3     C     0.16658   0.04249   0.25014   0.00000  Uiso   1.00
C4     C     0.16662   0.29085   0.25037   0.00000  Uiso   1.00
C5     C     0.31996   0.13955   0.22258   0.00000  Uiso   1.00
C6     C     0.01359   0.19413   0.27706   0.00000  Uiso   1.00
C7     C     0.03484   0.13872   0.22304   0.00000  Uiso   1.00
C8     C     0.29796   0.19411   0.27787   0.00000  Uiso   1.00
C9     C     0.13626   0.16608   0.33800   0.00000  Uiso   1.00
C10    C     0.19710   0.16593   0.16203   0.00000  Uiso   1.00
C11    C     0.11818   0.15888   0.38801   0.00000  Uiso   1.00
C12    C     0.16662   0.08663   0.25000   0.00000  Uiso   1.00
C13    C     0.21621   0.16223   0.11151   0.00000  Uiso   1.00
C14    C     0.06139   0.12668   0.45764   0.00000  Uiso   1.00
C15    C     0.28049   0.17037   0.03606   0.00000  Uiso   1.00
C16    C     0.07279   0.14034   0.41208   0.00000  Uiso   1.00
C17    C     0.26491   0.17132   0.08436   0.00000  Uiso   1.00
C18    C     0.15126   0.16430   0.40979   0.00000  Uiso   1.00
C19    C     0.18413   0.14987   0.09044   0.00000  Uiso   1.00
C20    C     0.14261   0.14730   0.45342   0.00000  Uiso   1.00
C21    C     0.19891   0.14831   0.04214   0.00000  Uiso   1.00
C22    C     0.09599   0.13016   0.47857   0.00000  Uiso   1.00
C23    C     0.11858   0.12163   0.04515   0.00000  Uiso   1.00
C24    C     0.24757   0.15999   0.01478   0.00000  Uiso   1.00
C25    C     0.17890   0.14804   0.47288   0.00000  Uiso   1.00
C26    C     0.16534   0.13900   0.02063   0.00000  Uiso   1.00
C27    C     0.05320   0.07211   0.19207   0.00000  Uiso   1.00
C28    C     0.27165   0.24190   0.34013   0.00000  Uiso   1.00
C29    C     0.22840   0.15700   0.44596   0.00000  Uiso   1.00
C30    C     0.08485   0.11662   0.02401   0.00000  Uiso   1.00
C31    C     0.26228   0.16238   0.46668   0.00000  Uiso   1.00
C32    C     0.21068   0.31209   0.24027   0.00000  Uiso   1.00
C33    C     0.12249   0.02126   0.26050   0.00000  Uiso   1.00
C34    C     0.21068   0.02138   0.24008   0.00000  Uiso   1.00
H35    H     0.04957   0.10296   0.04364   0.00000  Uiso   1.00
H36    H     0.24211   0.15900   0.40852   0.00000  Uiso   1.00
H37    H     0.24503   0.29589   0.23213   0.00000  Uiso   1.00
H38    H     0.08813   0.03746   0.26886   0.00000  Uiso   1.00
H39    H     0.30975   0.11895   0.20009   0.00000  Uiso   1.00
H40    H     0.02515   0.21596   0.29747   0.00000  Uiso   1.00
H41    H     0.24505   0.03767   0.23178   0.00000  Uiso   1.00
H42    H     0.08814   0.29566   0.26885   0.00000  Uiso   1.00
H43    H     0.03593   0.07070   0.16585   0.00000  Uiso   1.00
H44    H     0.02757   0.06103   0.22661   0.00000  Uiso   1.00
H45    H     0.08461   0.05036   0.18037   0.00000  Uiso   1.00
H46    H     0.29961   0.17017   0.44513   0.00000  Uiso   1.00
H47    H     0.29991   0.26638   0.32582   0.00000  Uiso   1.00
H48    H     0.28214   0.21937   0.36187   0.00000  Uiso   1.00
H49    H     0.23784   0.25763   0.36325   0.00000  Uiso   1.00
H50    H     0.14676   0.14380   0.11245   0.00000  Uiso   1.00
H51    H     0.18429   0.18152   0.39161   0.00000  Uiso   1.00
H52    H     0.29031   0.18054   0.10035   0.00000  Uiso   1.00
H53    H     0.04701   0.13527   0.39530   0.00000  Uiso   1.00
H54    H     0.02615   0.11245   0.47603   0.00000  Uiso   1.00
H55    H     0.31769   0.17930   0.01544   0.00000  Uiso   1.00
H56    H     0.10762   0.11032   0.08031   0.00000  Uiso   1.00
N57    N     0.04759   0.16668   0.25001   0.00000  Uiso   1.00
N58    N     0.28574   0.16666   0.24999   0.00000  Uiso   1.00
O59    O     0.12846   0.22775   0.25001   0.00000  Uiso   1.00
O60    O     0.26177   0.22188   0.30405   0.00000  Uiso   1.00
O61    O     0.20488   0.10558   0.25000   0.00000  Uiso   1.00
O62    O     0.20490   0.22774   0.25000   0.00000  Uiso   1.00
O63    O     0.12843   0.10559   0.25000   0.00000  Uiso   1.00
O64    O     0.10661   0.16667   0.31613   0.00000  Uiso   1.00
O65    O     0.22672   0.16666   0.18388   0.00000  Uiso   1.00
O66    O     0.18305   0.16666   0.31612   0.00000  Uiso   1.00
O67    O     0.15028   0.16667   0.18388   0.00000  Uiso   1.00
O68    O     0.07102   0.11255   0.19422   0.00000  Uiso   1.00
Zn69   Zn    0.11562   0.16667   0.25000   0.00000  Uiso   1.00
Zn70   Zn    0.21771   0.16666   0.25000   0.00000  Uiso   1.00
C71    C     0.50000   0.24670   0.25015   0.00000  Uiso   1.00
C72    C     0.45584   0.31196   0.26056   0.00000  Uiso   1.00
C73    C     0.49992   0.04249   0.25014   0.00000  Uiso   1.00
C74    C     0.49995   0.29085   0.25037   0.00000  Uiso   1.00
C75    C     0.65329   0.13955   0.22258   0.00000  Uiso   1.00
C76    C     0.34692   0.19413   0.27706   0.00000  Uiso   1.00
C77    C     0.36818   0.13872   0.22304   0.00000  Uiso   1.00
C78    C     0.63129   0.19411   0.27787   0.00000  Uiso   1.00
C79    C     0.46960   0.16608   0.33800   0.00000  Uiso   1.00
C80    C     0.53043   0.16593   0.16203   0.00000  Uiso   1.00
C81    C     0.45152   0.15888   0.38801   0.00000  Uiso   1.00
C82    C     0.49996   0.08663   0.25000   0.00000  Uiso   1.00
C83    C     0.54955   0.16223   0.11151   0.00000  Uiso   1.00
C84    C     0.39472   0.12668   0.45764   0.00000  Uiso   1.00
C85    C     0.61382   0.17037   0.03606   0.00000  Uiso   1.00
C86    C     0.40612   0.14034   0.41208   0.00000  Uiso   1.00
C87    C     0.59824   0.17132   0.08436   0.00000  Uiso   1.00
C88    C     0.48459   0.16430   0.40979   0.00000  Uiso   1.00
C89    C     0.51747   0.14987   0.09044   0.00000  Uiso   1.00
C90    C     0.47594   0.14730   0.45342   0.00000  Uiso   1.00
C91    C     0.53224   0.14831   0.04214   0.00000  Uiso   1.00
C92    C     0.42933   0.13016   0.47857   0.00000  Uiso   1.00
C93    C     0.45191   0.12163   0.04515   0.00000  Uiso   1.00
C94    C     0.58091   0.15999   0.01478   0.00000  Uiso   1.00
C95    C     0.51223   0.14804   0.47288   0.00000  Uiso   1.00
C96    C     0.49867   0.13900   0.02063   0.00000  Uiso   1.00
C97    C     0.38653   0.07211   0.19207   0.00000  Uiso   1.00
C98    C     0.60498   0.24190   0.34013   0.00000  Uiso   1.00
C99    C     0.56173   0.15700   0.44596   0.00000  Uiso   1.00
C100   C     0.41818   0.11662   0.02401   0.00000  Uiso   1.00
C101   C     0.59561   0.16238   0.46668   0.00000  Uiso   1.00
C102   C     0.54401   0.31209   0.24027   0.00000  Uiso   1.00
C103   C     0.45582   0.02126   0.26050   0.00000  Uiso   1.00
C104   C     0.54401   0.02138   0.24008   0.00000  Uiso   1.00
H105   H     0.38290   0.10296   0.04364   0.00000  Uiso   1.00
H106   H     0.57544   0.15900   0.40852   0.00000  Uiso   1.00
H107   H     0.57837   0.29589   0.23213   0.00000  Uiso   1.00
H108   H     0.42146   0.03746   0.26886   0.00000  Uiso   1.00
H109   H     0.64308   0.11895   0.20009   0.00000  Uiso   1.00
H110   H     0.35848   0.21596   0.29747   0.00000  Uiso   1.00
H111   H     0.57839   0.03767   0.23178   0.00000  Uiso   1.00
H112   H     0.42147   0.29566   0.26885   0.00000  Uiso   1.00
H113   H     0.36926   0.07070   0.16585   0.00000  Uiso   1.00
H114   H     0.36090   0.06103   0.22661   0.00000  Uiso   1.00
H115   H     0.41794   0.05036   0.18037   0.00000  Uiso   1.00
H116   H     0.63294   0.17017   0.44513   0.00000  Uiso   1.00
H117   H     0.63324   0.26638   0.32582   0.00000  Uiso   1.00
H118   H     0.61547   0.21937   0.36187   0.00000  Uiso   1.00
H119   H     0.57117   0.25763   0.36325   0.00000  Uiso   1.00
H120   H     0.48009   0.14380   0.11245   0.00000  Uiso   1.00
H121   H     0.51762   0.18152   0.39161   0.00000  Uiso   1.00
H122   H     0.62364   0.18054   0.10035   0.00000  Uiso   1.00
H123   H     0.38035   0.13527   0.39530   0.00000  Uiso   1.00
H124   H     0.35948   0.11245   0.47603   0.00000  Uiso   1.00
H125   H     0.65102   0.17930   0.01544   0.00000  Uiso   1.00
H126   H     0.44095   0.11032   0.08031   0.00000  Uiso   1.00
N127   N     0.38093   0.16668   0.25001   0.00000  Uiso   1.00
N128   N     0.61907   0.16666   0.24999   0.00000  Uiso   1.00
O129   O     0.46179   0.22775   0.25001   0.00000  Uiso   1.00
O130   O     0.59510   0.22188   0.30405   0.00000  Uiso   1.00
O131   O     0.53821   0.10558   0.25000   0.00000  Uiso   1.00
O132   O     0.53823   0.22774   0.25000   0.00000  Uiso   1.00
O133   O     0.46177   0.10559   0.25000   0.00000  Uiso   1.00
O134   O     0.43994   0.16667   0.31613   0.00000  Uiso   1.00
O135   O     0.56006   0.16666   0.18388   0.00000  Uiso   1.00
O136   O     0.51639   0.16666   0.31612   0.00000  Uiso   1.00
O137   O     0.48361   0.16667   0.18388   0.00000  Uiso   1.00
O138   O     0.40435   0.11255   0.19422   0.00000  Uiso   1.00
Zn139  Zn    0.44896   0.16667   0.25000   0.00000  Uiso   1.00
Zn140  Zn    0.55104   0.16666   0.25000   0.00000  Uiso   1.00
C141   C     0.83333   0.24670   0.25015   0.00000  Uiso   1.00
C142   C     0.78918   0.31196   0.26056   0.00000  Uiso   1.00
C143   C     0.83325   0.04249   0.25014   0.00000  Uiso   1.00
C144   C     0.83329   0.29085   0.25037   0.00000  Uiso   1.00
C145   C     0.98662   0.13955   0.22258   0.00000  Uiso   1.00
C146   C     0.68025   0.19413   0.27706   0.00000  Uiso   1.00
C147   C     0.70151   0.13872   0.22304   0.00000  Uiso   1.00
C148   C     0.96462   0.19411   0.27787   0.00000  Uiso   1.00
C149   C     0.80293   0.16608   0.33800   0.00000  Uiso   1.00
C150   C     0.86377   0.16593   0.16203   0.00000  Uiso   1.00
C151   C     0.78485   0.15888   0.38801   0.00000  Uiso   1.00
C152   C     0.83329   0.08663   0.25000   0.00000  Uiso   1.00
C153   C     0.88288   0.16223   0.11151   0.00000  Uiso   1.00
C154   C     0.72805   0.12668   0.45764   0.00000  Uiso   1.00
C155   C     0.94716   0.17037   0.03606   0.00000  Uiso   1.00
C156   C     0.73946   0.14034   0.41208   0.00000  Uiso   1.00
C157   C     0.93157   0.17132   0.08436   0.00000  Uiso   1.00
C158   C     0.81792   0.16430   0.40979   0.00000  Uiso   1.00
C159   C     0.85080   0.14987   0.09044   0.00000  Uiso   1.00
C160   C     0.80927   0.14730   0.45342   0.00000  Uiso   1.00
C161   C     0.86558   0.14831   0.04214   0.00000  Uiso   1.00
C162   C     0.76266   0.13016   0.47857   0.00000  Uiso   1.00
C163   C     0.78524   0.12163   0.04515   0.00000  Uiso   1.00
C164   C     0.91424   0.15999   0.01478   0.00000  Uiso   1.00
C165   C     0.84556   0.14804   0.47288   0.00000  Uiso   1.00
C166   C     0.83200   0.13900   0.02063   0.00000  Uiso   1.00
C167   C     0.71987   0.07211   0.19207   0.00000  Uiso   1.00
C168   C     0.93832   0.24190   0.34013   0.00000  Uiso   1.00
C169   C     0.89507   0.15700   0.44596   0.00000  Uiso   1.00
C170   C     0.75152   0.11662   0.02401   0.00000  Uiso   1.00
C171   C     0.92894   0.16238   0.46668   0.00000  Uiso   1.00
C172   C     0.87735   0.31209   0.24027   0.00000  Uiso   1.00
C173   C     0.78916   0.02126   0.26050   0.00000  Uiso   1.00
C174   C     0.87734   0.02138   0.24008   0.00000  Uiso   1.00
H175   H     0.71623   0.10296   0.04364   0.00000  Uiso   1.00
H176   H     0.90878   0.15900   0.40852   0.00000  Uiso   1.00
H177   H     0.91170   0.29589   0.23213   0.00000  Uiso   1.00
H178   H     0.75479   0.03746   0.26886   0.00000  Uiso   1.00
H179   H     0.97642   0.11895   0.20009   0.00000  Uiso   1.00
H180   H     0.69182   0.21596   0.29747   0.00000  Uiso   1.00
H181   H     0.91172   0.03767   0.23178   0.00000  Uiso   1.00
H182   H     0.75481   0.29566   0.26885   0.00000  Uiso   1.00
H183   H     0.70260   0.07070   0.16585   0.00000  Uiso   1.00
H184   H     0.69423   0.06103   0.22661   0.00000  Uiso   1.00
H185   H     0.75128   0.05036   0.18037   0.00000  Uiso   1.00
H186   H     0.96628   0.17017   0.44513   0.00000  Uiso   1.00
H187   H     0.96657   0.26638   0.32582   0.00000  Uiso   1.00
H188   H     0.94881   0.21937   0.36187   0.00000  Uiso   1.00
H189   H     0.90450   0.25763   0.36325   0.00000  Uiso   1.00
H190   H     0.81342   0.14380   0.11245   0.00000  Uiso   1.00
H191   H     0.85096   0.18152   0.39161   0.00000  Uiso   1.00
H192   H     0.95697   0.18054   0.10035   0.00000  Uiso   1.00
H193   H     0.71368   0.13527   0.39530   0.00000  Uiso   1.00
H194   H     0.69282   0.11245   0.47603   0.00000  Uiso   1.00
H195   H     0.98435   0.17930   0.01544   0.00000  Uiso   1.00
H196   H     0.77428   0.11032   0.08031   0.00000  Uiso   1.00
N197   N     0.71426   0.16668   0.25001   0.00000  Uiso   1.00
N198   N     0.95241   0.16666   0.24999   0.00000  Uiso   1.00
O199   O     0.79512   0.22775   0.25001   0.00000  Uiso   1.00
O200   O     0.92844   0.22188   0.30405   0.00000  Uiso   1.00
O201   O     0.87154   0.10558   0.25000   0.00000  Uiso   1.00
O202   O     0.87157   0.22774   0.25000   0.00000  Uiso   1.00
O203   O     0.79510   0.10559   0.25000   0.00000  Uiso   1.00
O204   O     0.77328   0.16667   0.31613   0.00000  Uiso   1.00
O205   O     0.89339   0.16666   0.18388   0.00000  Uiso   1.00
O206   O     0.84972   0.16666   0.31612   0.00000  Uiso   1.00
O207   O     0.81695   0.16667   0.18388   0.00000  Uiso   1.00
O208   O     0.73769   0.11255   0.19422   0.00000  Uiso   1.00
Zn209  Zn    0.78229   0.16667   0.25000   0.00000  Uiso   1.00
Zn210  Zn    0.88438   0.16666   0.25000   0.00000  Uiso   1.00
C211   C     0.16666   0.58003   0.25015   0.00000  Uiso   1.00
C212   C     0.12251   0.64529   0.26056   0.00000  Uiso   1.00
C213   C     0.16658   0.37582   0.25014   0.00000  Uiso   1.00
C214   C     0.16662   0.62419   0.25037   0.00000  Uiso   1.00
C215   C     0.31996   0.47288   0.22258   0.00000  Uiso   1.00
C216   C     0.01359   0.52746   0.27706   0.00000  Uiso   1.00
C217   C     0.03484   0.47205   0.22304   0.00000  Uiso   1.00
C218   C     0.29796   0.52744   0.27787   0.00000  Uiso   1.00
C219   C     0.13626   0.49942   0.33800   0.00000  Uiso   1.00
C220   C     0.19710   0.49926   0.16203   0.00000  Uiso   1.00
C221   C     0.11818   0.49221   0.38801   0.00000  Uiso   1.00
C222   C     0.16662   0.41997   0.25000   0.00000  Uiso   1.00
C223   C     0.21621   0.49556   0.11151   0.00000  Uiso   1.00
C224   C     0.06139   0.46001   0.45764   0.00000  Uiso   1.00
C225   C     0.28049   0.50371   0.03606   0.00000  Uiso   1.00
C226   C     0.07279   0.47368   0.41208   0.00000  Uiso   1.00
C227   C     0.26491   0.50465   0.08436   0.00000  Uiso   1.00
C228   C     0.15126   0.49763   0.40979   0.00000  Uiso   1.00
C229   C     0.18413   0.48320   0.09044   0.00000  Uiso   1.00
C230   C     0.14261   0.48063   0.45342   0.00000  Uiso   1.00
C231   C     0.19891   0.48165   0.04214   0.00000  Uiso   1.00
C232   C     0.09599   0.46350   0.47857   0.00000  Uiso   1.00
C233   C     0.11858   0.45496   0.04515   0.00000  Uiso   1.00
C234   C     0.24757   0.49332   0.01478   0.00000  Uiso   1.00
C235   C     0.17890   0.48138   0.47288   0.00000  Uiso   1.00
C236   C     0.16534   0.47233   0.02063   0.00000  Uiso   1.00
C237   C     0.05320   0.40545   0.19207   0.00000  Uiso   1.00
C238   C     0.27165   0.57524   0.34013   0.00000  Uiso   1.00
C239   C     0.22840   0.49033   0.44596   0.00000  Uiso   1.00
C240   C     0.08485   0.44995   0.02401   0.00000  Uiso   1.00
C241   C     0.26228   0.49572   0.46668   0.00000  Uiso   1.00
C242   C     0.21068   0.64542   0.24027   0.00000  Uiso   1.00
C243   C     0.12249   0.35459   0.26050   0.00000  Uiso   1.00
C244   C     0.21068   0.35471   0.24008   0.00000  Uiso   1.00
H245   H     0.04957   0.43629   0.04364   0.00000  Uiso   1.00
H246   H     0.24211   0.49233   0.40852   0.00000  Uiso   1.00
H247   H     0.24503   0.62923   0.23213   0.00000  Uiso   1.00
H248   H     0.08813   0.37080   0.26886   0.00000  Uiso   1.00
H249   H     0.30975   0.45228   0.20009   0.00000  Uiso   1.00
H250   H     0.02515   0.54929   0.29747   0.00000  Uiso   1.00
H251   H     0.24505   0.37101   0.23178   0.00000  Uiso   1.00
H252   H     0.08814   0.62900   0.26885   0.00000  Uiso   1.00
H253   H     0.03593   0.40403   0.16585   0.00000  Uiso   1.00
H254   H     0.02757   0.39436   0.22661   0.00000  Uiso   1.00
H255   H     0.08461   0.38370   0.18037   0.00000  Uiso   1.00
H256   H     0.29961   0.50351   0.44513   0.00000  Uiso   1.00
H257   H     0.29991   0.59971   0.32582   0.00000  Uiso   1.00
H258   H     0.28214   0.55270   0.36187   0.00000  Uiso   1.00
H259   H     0.23784   0.59096   0.36325   0.00000  Uiso   1.00
H260   H     0.14676   0.47713   0.11245   0.00000  Uiso   1.00
H261   H     0.18429   0.51485   0.39161   0.00000  Uiso   1.00
H262   H     0.29031   0.51388   0.10035   0.00000  Uiso   1.00
H263   H     0.04701   0.46860   0.39530   0.00000  Uiso   1.00
H264   H     0.02615   0.44578   0.47603   0.00000  Uiso   1.00
H265   H     0.31769   0.51264   0.01544   0.00000  Uiso   1.00
H266   H     0.10762   0.44365   0.08031   0.00000  Uiso   1.00
N267   N     0.04759   0.50001   0.25001   0.00000  Uiso   1.00
N268   N     0.28574   0.49999   0.24999   0.00000  Uiso   1.00
O269   O     0.12846   0.56108   0.25001   0.00000  Uiso   1.00
O270   O     0.26177   0.55521   0.30405   0.00000  Uiso   1.00
O271   O     0.20488   0.43892   0.25000   0.00000  Uiso   1.00
O272   O     0.20490   0.56107   0.25000   0.00000  Uiso   1.00
O273   O     0.12843   0.43893   0.25000   0.00000  Uiso   1.00
O274   O     0.10661   0.50001   0.31613   0.00000  Uiso   1.00
O275   O     0.22672   0.49999   0.18388   0.00000  Uiso   1.00
O276   O     0.18305   0.50000   0.31612   0.00000  Uiso   1.00
O277   O     0.15028   0.50000   0.18388   0.00000  Uiso   1.00
O278   O     0.07102   0.44588   0.19422   0.00000  Uiso   1.00
Zn279  Zn    0.11562   0.50001   0.25000   0.00000  Uiso   1.00
Zn280  Zn    0.21771   0.49999   0.25000   0.00000  Uiso   1.00
C281   C     0.50000   0.58003   0.25015   0.00000  Uiso   1.00
C282   C     0.45584   0.64529   0.26056   0.00000  Uiso   1.00
C283   C     0.49992   0.37582   0.25014   0.00000  Uiso   1.00
C284   C     0.49995   0.62419   0.25037   0.00000  Uiso   1.00
C285   C     0.65329   0.47288   0.22258   0.00000  Uiso   1.00
C286   C     0.34692   0.52746   0.27706   0.00000  Uiso   1.00
C287   C     0.36818   0.47205   0.22304   0.00000  Uiso   1.00
C288   C     0.63129   0.52744   0.27787   0.00000  Uiso   1.00
C289   C     0.46960   0.49942   0.33800   0.00000  Uiso   1.00
C290   C     0.53043   0.49926   0.16203   0.00000  Uiso   1.00
C291   C     0.45152   0.49221   0.38801   0.00000  Uiso   1.00
C292   C     0.49996   0.41997   0.25000   0.00000  Uiso   1.00
C293   C     0.54955   0.49556   0.11151   0.00000  Uiso   1.00
C294   C     0.39472   0.46001   0.45764   0.00000  Uiso   1.00
C295   C     0.61382   0.50371   0.03606   0.00000  Uiso   1.00
C296   C     0.40612   0.47368   0.41208   0.00000  Uiso   1.00
C297   C     0.59824   0.50465   0.08436   0.00000  Uiso   1.00
C298   C     0.48459   0.49763   0.40979   0.00000  Uiso   1.00
C299   C     0.51747   0.48320   0.09044   0.00000  Uiso   1.00
C300   C     0.47594   0.48063   0.45342   0.00000  Uiso   1.00
C301   C     0.53224   0.48165   0.04214   0.00000  Uiso   1.00
C302   C     0.42933   0.46350   0.47857   0.00000  Uiso   1.00
C303   C     0.45191   0.45496   0.04515   0.00000  Uiso   1.00
C304   C     0.58091   0.49332   0.01478   0.00000  Uiso   1.00
C305   C     0.51223   0.48138   0.47288   0.00000  Uiso   1.00
C306   C     0.49867   0.47233   0.02063   0.00000  Uiso   1.00
C307   C     0.38653   0.40545   0.19207   0.00000  Uiso   1.00
C308   C     0.60498   0.57524   0.34013   0.00000  Uiso   1.00
C309   C     0.56173   0.49033   0.44596   0.00000  Uiso   1.00
C310   C     0.41818   0.44995   0.02401   0.00000  Uiso   1.00
C311   C     0.59561   0.49572   0.46668   0.00000  Uiso   1.00
C312   C     0.54401   0.64542   0.24027   0.00000  Uiso   1.00
C313   C     0.45582   0.35459   0.26050   0.00000  Uiso   1.00
C314   C     0.54401   0.35471   0.24008   0.00000  Uiso   1.00
H315   H     0.38290   0.43629   0.04364   0.00000  Uiso   1.00
H316   H     0.57544   0.49233   0.40852   0.00000  Uiso   1.00
H317   H     0.57837   0.62923   0.23213   0.00000  Uiso   1.00
H318   H     0.42146   0.37080   0.26886   0.00000  Uiso   1.00
H319   H     0.64308   0.45228   0.20009   0.00000  Uiso   1.00
H320   H     0.35848   0.54929   0.29747   0.00000  Uiso   1.00
H321   H     0.57839   0.37101   0.23178   0.00000  Uiso   1.00
H322   H     0.42147   0.62900   0.26885   0.00000  Uiso   1.00
H323   H     0.36926   0.40403   0.16585   0.00000  Uiso   1.00
H324   H     0.36090   0.39436   0.22661   0.00000  Uiso   1.00
H325   H     0.41794   0.38370   0.18037   0.00000  Uiso   1.00
H326   H     0.63294   0.50351   0.44513   0.00000  Uiso   1.00
H327   H     0.63324   0.59971   0.32582   0.00000  Uiso   1.00
H328   H     0.61547   0.55270   0.36187   0.00000  Uiso   1.00
H329   H     0.57117   0.59096   0.36325   0.00000  Uiso   1.00
H330   H     0.48009   0.47713   0.11245   0.00000  Uiso   1.00
H331   H     0.51762   0.51485   0.39161   0.00000  Uiso   1.00
H332   H     0.62364   0.51388   0.10035   0.00000  Uiso   1.00
H333   H     0.38035   0.46860   0.39530   0.00000  Uiso   1.00
H334   H     0.35948   0.44578   0.47603   0.00000  Uiso   1.00
H335   H     0.65102   0.51264   0.01544   0.00000  Uiso   1.00
H336   H     0.44095   0.44365   0.08031   0.00000  Uiso   1.00
N337   N     0.38093   0.50001   0.25001   0.00000  Uiso   1.00
N338   N     0.61907   0.49999   0.24999   0.00000  Uiso   1.00
O339   O     0.46179   0.56108   0.25001   0.00000  Uiso   1.00
O340   O     0.59510   0.55521   0.30405   0.00000  Uiso   1.00
O341   O     0.53821   0.43892   0.25000   0.00000  Uiso   1.00
O342   O     0.53823   0.56107   0.25000   0.00000  Uiso   1.00
O343   O     0.46177   0.43893   0.25000   0.00000  Uiso   1.00
O344   O     0.43994   0.50001   0.31613   0.00000  Uiso   1.00
O345   O     0.56006   0.49999   0.18388   0.00000  Uiso   1.00
O346   O     0.51639   0.50000   0.31612   0.00000  Uiso   1.00
O347   O     0.48361   0.50000   0.18388   0.00000  Uiso   1.00
O348   O     0.40435   0.44588   0.19422   0.00000  Uiso   1.00
Zn349  Zn    0.44896   0.50001   0.25000   0.00000  Uiso   1.00
Zn350  Zn    0.55104   0.49999   0.25000   0.00000  Uiso   1.00
C351   C     0.83333   0.58003   0.25015   0.00000  Uiso   1.00
C352   C     0.78918   0.64529   0.26056   0.00000  Uiso   1.00
C353   C     0.83325   0.37582   0.25014   0.00000  Uiso   1.00
C354   C     0.83329   0.62419   0.25037   0.00000  Uiso   1.00
C355   C     0.98662   0.47288   0.22258   0.00000  Uiso   1.00
C356   C     0.68025   0.52746   0.27706   0.00000  Uiso   1.00
C357   C     0.70151   0.47205   0.22304   0.00000  Uiso   1.00
C358   C     0.96462   0.52744   0.27787   0.00000  Uiso   1.00
C359   C     0.80293   0.49942   0.33800   0.00000  Uiso   1.00
C360   C     0.86377   0.49926   0.16203   0.00000  Uiso   1.00
C361   C     0.78485   0.49221   0.38801   0.00000  Uiso   1.00
C362   C     0.83329   0.41997   0.25000   0.00000  Uiso   1.00
C363   C     0.88288   0.49556   0.11151   0.00000  Uiso   1.00
C364   C     0.72805   0.46001   0.45764   0.00000  Uiso   1.00
C365   C     0.94716   0.50371   0.03606   0.00000  Uiso   1.00
C366   C     0.73946   0.47368   0.41208   0.00000  Uiso   1.00
C367   C     0.93157   0.50465   0.08436   0.00000  Uiso   1.00
C368   C     0.81792   0.49763   0.40979   0.00000  Uiso   1.00
C369   C     0.85080   0.48320   0.09044   0.00000  Uiso   1.00
C370   C     0.80927   0.48063   0.45342   0.00000  Uiso   1.00
C371   C     0.86558   0.48165   0.04214   0.00000  Uiso   1.00
C372   C     0.76266   0.46350   0.47857   0.00000  Uiso   1.00
C373   C     0.78524   0.45496   0.04515   0.00000  Uiso   1.00
C374   C     0.91424   0.49332   0.01478   0.00000  Uiso   1.00
C375   C     0.84556   0.48138   0.47288   0.00000  Uiso   1.00
C376   C     0.83200   0.47233   0.02063   0.00000  Uiso   1.00
C377   C     0.71987   0.40545   0.19207   0.00000  Uiso   1.00
C378   C     0.93832   0.57524   0.34013   0.00000  Uiso   1.00
C379   C     0.89507   0.49033   0.44596   0.00000  Uiso   1.00
C380   C     0.75152   0.44995   0.02401   0.00000  Uiso   1.00
C381   C     0.92894   0.49572   0.46668   0.00000  Uiso   1.00
C382   C     0.87735   0.64542   0.24027   0.00000  Uiso   1.00
C383   C     0.78916   0.35459   0.26050   0.00000  Uiso   1.00
C384   C     0.87734   0.35471   0.24008   0.00000  Uiso   1.00
H385   H     0.71623   0.43629   0.04364   0.00000  Uiso   1.00
H386   H     0.90878   0.49233   0.40852   0.00000  Uiso   1.00
H387   H     0.91170   0.62923   0.23213   0.00000  Uiso   1.00
H388   H     0.75479   0.37080   0.26886   0.00000  Uiso   1.00
H389   H     0.97642   0.45228   0.20009   0.00000  Uiso   1.00
H390   H     0.69182   0.54929   0.29747   0.00000  Uiso   1.00
H391   H     0.91172   0.37101   0.23178   0.00000  Uiso   1.00
H392   H     0.75481   0.62900   0.26885   0.00000  Uiso   1.00
H393   H     0.70260   0.40403   0.16585   0.00000  Uiso   1.00
H394   H     0.69423   0.39436   0.22661   0.00000  Uiso   1.00
H395   H     0.75128   0.38370   0.18037   0.00000  Uiso   1.00
H396   H     0.96628   0.50351   0.44513   0.00000  Uiso   1.00
H397   H     0.96657   0.59971   0.32582   0.00000  Uiso   1.00
H398   H     0.94881   0.55270   0.36187   0.00000  Uiso   1.00
H399   H     0.90450   0.59096   0.36325   0.00000  Uiso   1.00
H400   H     0.81342   0.47713   0.11245   0.00000  Uiso   1.00
H401   H     0.85096   0.51485   0.39161   0.00000  Uiso   1.00
H402   H     0.95697   0.51388   0.10035   0.00000  Uiso   1.00
H403   H     0.71368   0.46860   0.39530   0.00000  Uiso   1.00
H404   H     0.69282   0.44578   0.47603   0.00000  Uiso   1.00
H405   H     0.98435   0.51264   0.01544   0.00000  Uiso   1.00
H406   H     0.77428   0.44365   0.08031   0.00000  Uiso   1.00
N407   N     0.71426   0.50001   0.25001   0.00000  Uiso   1.00
N408   N     0.95241   0.49999   0.24999   0.00000  Uiso   1.00
O409   O     0.79512   0.56108   0.25001   0.00000  Uiso   1.00
O410   O     0.92844   0.55521   0.30405   0.00000  Uiso   1.00
O411   O     0.87154   0.43892   0.25000   0.00000  Uiso   1.00
O412   O     0.87157   0.56107   0.25000   0.00000  Uiso   1.00
O413   O     0.79510   0.43893   0.25000   0.00000  Uiso   1.00
O414   O     0.77328   0.50001   0.31613   0.00000  Uiso   1.00
O415   O     0.89339   0.49999   0.18388   0.00000  Uiso   1.00
O416   O     0.84972   0.50000   0.31612   0.00000  Uiso   1.00
O417   O     0.81695   0.50000   0.18388   0.00000  Uiso   1.00
O418   O     0.73769   0.44588   0.19422   0.00000  Uiso   1.00
Zn419  Zn    0.78229   0.50001   0.25000   0.00000  Uiso   1.00
Zn420  Zn    0.88438   0.49999   0.25000   0.00000  Uiso   1.00
C421   C     0.16666   0.91337   0.25015   0.00000  Uiso   1.00
C422   C     0.12251   0.97863   0.26056   0.00000  Uiso   1.00
C423   C     0.16658   0.70915   0.25014   0.00000  Uiso   1.00
C424   C     0.16662   0.95752   0.25037   0.00000  Uiso   1.00
C425   C     0.31996   0.80621   0.22258   0.00000  Uiso   1.00
C426   C     0.01359   0.86079   0.27706   0.00000  Uiso   1.00
C427   C     0.03484   0.80538   0.22304   0.00000  Uiso   1.00
C428   C     0.29796   0.86077   0.27787   0.00000  Uiso   1.00
C429   C     0.13626   0.83275   0.33800   0.00000  Uiso   1.00
C430   C     0.19710   0.83260   0.16203   0.00000  Uiso   1.00
C431   C     0.11818   0.82554   0.38801   0.00000  Uiso   1.00
C432   C     0.16662   0.75330   0.25000   0.00000  Uiso   1.00
C433   C     0.21621   0.82889   0.11151   0.00000  Uiso   1.00
C434   C     0.06139   0.79335   0.45764   0.00000  Uiso   1.00
C435   C     0.28049   0.83704   0.03606   0.00000  Uiso   1.00
C436   C     0.07279   0.80701   0.41208   0.00000  Uiso   1.00
C437   C     0.26491   0.83799   0.08436   0.00000  Uiso   1.00
C438   C     0.15126   0.83096   0.40979   0.00000  Uiso   1.00
C439   C     0.18413   0.81653   0.09044   0.00000  Uiso   1.00
C440   C     0.14261   0.81397   0.45342   0.00000  Uiso   1.00
C441   C     0.19891   0.81498   0.04214   0.00000  Uiso   1.00
C442   C     0.09599   0.79683   0.47857   0.00000  Uiso   1.00
C443   C     0.11858   0.78830   0.04515   0.00000  Uiso   1.00
C444   C     0.24757   0.82665   0.01478   0.00000  Uiso   1.00
C445   C     0.17890   0.81471   0.47288   0.00000  Uiso   1.00
C446   C     0.16534   0.80567   0.02063   0.00000  Uiso   1.00
C447   C     0.05320   0.73878   0.19207   0.00000  Uiso   1.00
C448   C     0.27165   0.90857   0.34013   0.00000  Uiso   1.00
C449   C     0.22840   0.82366   0.44596   0.00000  Uiso   1.00
C450   C     0.08485   0.78329   0.02401   0.00000  Uiso   1.00
C451   C     0.26228   0.82905   0.46668   0.00000  Uiso   1.00
C452   C     0.21068   0.97875   0.24027   0.00000  Uiso   1.00
C453   C     0.12249   0.68792   0.26050   0.00000  Uiso   1.00
C454   C     0.21068   0.68805   0.24008   0.00000  Uiso   1.00
H455   H     0.04957   0.76962   0.04364   0.00000  Uiso   1.00
H456   H     0.24211   0.82567   0.40852   0.00000  Uiso   1.00
H457   H     0.24503   0.96256   0.23213   0.00000  Uiso   1.00
H458   H     0.08813   0.70413   0.26886   0.00000  Uiso   1.00
H459   H     0.30975   0.78561   0.20009   0.00000  Uiso   1.00
H460   H     0.02515   0.88262   0.29747   0.00000  Uiso   1.00
H461   H     0.24505   0.70434   0.23178   0.00000  Uiso   1.00
H462   H     0.08814   0.96233   0.26885   0.00000  Uiso   1.00
H463   H     0.03593   0.73737   0.16585   0.00000  Uiso   1.00
H464   H     0.02757   0.72769   0.22661   0.00000  Uiso   1.00
H465   H     0.08461   0.71703   0.18037   0.00000  Uiso   1.00
H466   H     0.29961   0.83684   0.44513   0.00000  Uiso   1.00
H467   H     0.29991   0.93305   0.32582   0.00000  Uiso   1.00
H468   H     0.28214   0.88604   0.36187   0.00000  Uiso   1.00
H469   H     0.23784   0.92429   0.36325   0.00000  Uiso   1.00
H470   H     0.14676   0.81046   0.11245   0.00000  Uiso   1.00
H471   H     0.18429   0.84818   0.39161   0.00000  Uiso   1.00
H472   H     0.29031   0.84721   0.10035   0.00000  Uiso   1.00
H473   H     0.04701   0.80194   0.39530   0.00000  Uiso   1.00
H474   H     0.02615   0.77911   0.47603   0.00000  Uiso   1.00
H475   H     0.31769   0.84597   0.01544   0.00000  Uiso   1.00
H476   H     0.10762   0.77698   0.08031   0.00000  Uiso   1.00
N477   N     0.04759   0.83334   0.25001   0.00000  Uiso   1.00
N478   N     0.28574   0.83332   0.24999   0.00000  Uiso   1.00
O479   O     0.12846   0.89442   0.25001   0.00000  Uiso   1.00
O480   O     0.26177   0.88855   0.30405   0.00000  Uiso   1.00
O481   O     0.20488   0.77225   0.25000   0.00000  Uiso   1.00
O482   O     0.20490   0.89441   0.25000   0.00000  Uiso   1.00
O483   O     0.12843   0.77226   0.25000   0.00000  Uiso   1.00
O484   O     0.10661   0.83334   0.31613   0.00000  Uiso   1.00
O485   O     0.22672   0.83333   0.18388   0.00000  Uiso   1.00
O486   O     0.18305   0.83333   0.31612   0.00000  Uiso   1.00
O487   O     0.15028   0.83334   0.18388   0.00000  Uiso   1.00
O488   O     0.07102   0.77922   0.19422   0.00000  Uiso   1.00
Zn489  Zn    0.11562   0.83334   0.25000   0.00000  Uiso   1.00
Zn490  Zn    0.21771   0.83333   0.25000   0.00000  Uiso   1.00
C491   C     0.50000   0.91337   0.25015   0.00000  Uiso   1.00
C492   C     0.45584   0.97863   0.26056   0.00000  Uiso   1.00
C493   C     0.49992   0.70915   0.25014   0.00000  Uiso   1.00
C494   C     0.49995   0.95752   0.25037   0.00000  Uiso   1.00
C495   C     0.65329   0.80621   0.22258   0.00000  Uiso   1.00
C496   C     0.34692   0.86079   0.27706   0.00000  Uiso   1.00
C497   C     0.36818   0.80538   0.22304   0.00000  Uiso   1.00
C498   C     0.63129   0.86077   0.27787   0.00000  Uiso   1.00
C499   C     0.46960   0.83275   0.33800   0.00000  Uiso   1.00
C500   C     0.53043   0.83260   0.16203   0.00000  Uiso   1.00
C501   C     0.45152   0.82554   0.38801   0.00000  Uiso   1.00
C502   C     0.49996   0.75330   0.25000   0.00000  Uiso   1.00
C503   C     0.54955   0.82889   0.11151   0.00000  Uiso   1.00
C504   C     0.39472   0.79335   0.45764   0.00000  Uiso   1.00
C505   C     0.61382   0.83704   0.03606   0.00000  Uiso   1.00
C506   C     0.40612   0.80701   0.41208   0.00000  Uiso   1.00
C507   C     0.59824   0.83799   0.08436   0.00000  Uiso   1.00
C508   C     0.48459   0.83096   0.40979   0.00000  Uiso   1.00
C509   C     0.51747   0.81653   0.09044   0.00000  Uiso   1.00
C510   C     0.47594   0.81397   0.45342   0.00000  Uiso   1.00
C511   C     0.53224   0.81498   0.04214   0.00000  Uiso   1.00
C512   C     0.42933   0.79683   0.47857   0.00000  Uiso   1.00
C513   C     0.45191   0.78830   0.04515   0.00000  Uiso   1.00
C514   C     0.58091   0.82665   0.01478   0.00000  Uiso   1.00
C515   C     0.51223   0.81471   0.47288   0.00000  Uiso   1.00
C516   C     0.49867   0.80567   0.02063   0.00000  Uiso   1.00
C517   C     0.38653   0.73878   0.19207   0.00000  Uiso   1.00
C518   C     0.60498   0.90857   0.34013   0.00000  Uiso   1.00
C519   C     0.56173   0.82366   0.44596   0.00000  Uiso   1.00
C520   C     0.41818   0.78329   0.02401   0.00000  Uiso   1.00
C521   C     0.59561   0.82905   0.46668   0.00000  Uiso   1.00
C522   C     0.54401   0.97875   0.24027   0.00000  Uiso   1.00
C523   C     0.45582   0.68792   0.26050   0.00000  Uiso   1.00
C524   C     0.54401   0.68805   0.24008   0.00000  Uiso   1.00
H525   H     0.38290   0.76962   0.04364   0.00000  Uiso   1.00
H526   H     0.57544   0.82567   0.40852   0.00000  Uiso   1.00
H527   H     0.57837   0.96256   0.23213   0.00000  Uiso   1.00
H528   H     0.42146   0.70413   0.26886   0.00000  Uiso   1.00
H529   H     0.64308   0.78561   0.20009   0.00000  Uiso   1.00
H530   H     0.35848   0.88262   0.29747   0.00000  Uiso   1.00
H531   H     0.57839   0.70434   0.23178   0.00000  Uiso   1.00
H532   H     0.42147   0.96233   0.26885   0.00000  Uiso   1.00
H533   H     0.36926   0.73737   0.16585   0.00000  Uiso   1.00
H534   H     0.36090   0.72769   0.22661   0.00000  Uiso   1.00
H535   H     0.41794   0.71703   0.18037   0.00000  Uiso   1.00
H536   H     0.63294   0.83684   0.44513   0.00000  Uiso   1.00
H537   H     0.63324   0.93305   0.32582   0.00000  Uiso   1.00
H538   H     0.61547   0.88604   0.36187   0.00000  Uiso   1.00
H539   H     0.57117   0.92429   0.36325   0.00000  Uiso   1.00
H540   H     0.48009   0.81046   0.11245   0.00000  Uiso   1.00
H541   H     0.51762   0.84818   0.39161   0.00000  Uiso   1.00
H542   H     0.62364   0.84721   0.10035   0.00000  Uiso   1.00
H543   H     0.38035   0.80194   0.39530   0.00000  Uiso   1.00
H544   H     0.35948   0.77911   0.47603   0.00000  Uiso   1.00
H545   H     0.65102   0.84597   0.01544   0.00000  Uiso   1.00
H546   H     0.44095   0.77698   0.08031   0.00000  Uiso   1.00
N547   N     0.38093   0.83334   0.25001   0.00000  Uiso   1.00
N548   N     0.61907   0.83332   0.24999   0.00000  Uiso   1.00
O549   O     0.46179   0.89442   0.25001   0.00000  Uiso   1.00
O550   O     0.59510   0.88855   0.30405   0.00000  Uiso   1.00
O551   O     0.53821   0.77225   0.25000   0.00000  Uiso   1.00
O552   O     0.53823   0.89441   0.25000   0.00000  Uiso   1.00
O553   O     0.46177   0.77226   0.25000   0.00000  Uiso   1.00
O554   O     0.43994   0.83334   0.31613   0.00000  Uiso   1.00
O555   O     0.56006   0.83333   0.18388   0.00000  Uiso   1.00
O556   O     0.51639   0.83333   0.31612   0.00000  Uiso   1.00
O557   O     0.48361   0.83334   0.18388   0.00000  Uiso   1.00
O558   O     0.40435   0.77922   0.19422   0.00000  Uiso   1.00
Zn559  Zn    0.44896   0.83334   0.25000   0.00000  Uiso   1.00
Zn560  Zn    0.55104   0.83333   0.25000   0.00000  Uiso   1.00
C561   C     0.83333   0.91337   0.25015   0.00000  Uiso   1.00
C562   C     0.78918   0.97863   0.26056   0.00000  Uiso   1.00
C563   C     0.83325   0.70915   0.25014   0.00000  Uiso   1.00
C564   C     0.83329   0.95752   0.25037   0.00000  Uiso   1.00
C565   C     0.98662   0.80621   0.22258   0.00000  Uiso   1.00
C566   C     0.68025   0.86079   0.27706   0.00000  Uiso   1.00
C567   C     0.70151   0.80538   0.22304   0.00000  Uiso   1.00
C568   C     0.96462   0.86077   0.27787   0.00000  Uiso   1.00
C569   C     0.80293   0.83275   0.33800   0.00000  Uiso   1.00
C570   C     0.86377   0.83260   0.16203   0.00000  Uiso   1.00
C571   C     0.78485   0.82554   0.38801   0.00000  Uiso   1.00
C572   C     0.83329   0.75330   0.25000   0.00000  Uiso   1.00
C573   C     0.88288   0.82889   0.11151   0.00000  Uiso   1.00
C574   C     0.72805   0.79335   0.45764   0.00000  Uiso   1.00
C575   C     0.94716   0.83704   0.03606   0.00000  Uiso   1.00
C576   C     0.73946   0.80701   0.41208   0.00000  Uiso   1.00
C577   C     0.93157   0.83799   0.08436   0.00000  Uiso   1.00
C578   C     0.81792   0.83096   0.40979   0.00000  Uiso   1.00
C579   C     0.85080   0.81653   0.09044   0.00000  Uiso   1.00
C580   C     0.80927   0.81397   0.45342   0.00000  Uiso   1.00
C581   C     0.86558   0.81498   0.04214   0.00000  Uiso   1.00
C582   C     0.76266   0.79683   0.47857   0.00000  Uiso   1.00
C583   C     0.78524   0.78830   0.04515   0.00000  Uiso   1.00
C584   C     0.91424   0.82665   0.01478   0.00000  Uiso   1.00
C585   C     0.84556   0.81471   0.47288   0.00000  Uiso   1.00
C586   C     0.83200   0.80567   0.02063   0.00000  Uiso   1.00
C587   C     0.71987   0.73878   0.19207   0.00000  Uiso   1.00
C588   C     0.93832   0.90857   0.34013   0.00000  Uiso   1.00
C589   C     0.89507   0.82366   0.44596   0.00000  Uiso   1.00
C590   C     0.75152   0.78329   0.02401   0.00000  Uiso   1.00
C591   C     0.92894   0.82905   0.46668   0.00000  Uiso   1.00
C592   C     0.87735   0.97875   0.24027   0.00000  Uiso   1.00
C593   C     0.78916   0.68792   0.26050   0.00000  Uiso   1.00
C594   C     0.87734   0.68805   0.24008   0.00000  Uiso   1.00
H595   H     0.71623   0.76962   0.04364   0.00000  Uiso   1.00
H596   H     0.90878   0.82567   0.40852   0.00000  Uiso   1.00
H597   H     0.91170   0.96256   0.23213   0.00000  Uiso   1.00
H598   H     0.75479   0.70413   0.26886   0.00000  Uiso   1.00
H599   H     0.97642   0.78561   0.20009   0.00000  Uiso   1.00
H600   H     0.69182   0.88262   0.29747   0.00000  Uiso   1.00
H601   H     0.91172   0.70434   0.23178   0.00000  Uiso   1.00
H602   H     0.75481   0.96233   0.26885   0.00000  Uiso   1.00
H603   H     0.70260   0.73737   0.16585   0.00000  Uiso   1.00
H604   H     0.69423   0.72769   0.22661   0.00000  Uiso   1.00
H605   H     0.75128   0.71703   0.18037   0.00000  Uiso   1.00
H606   H     0.96628   0.83684   0.44513   0.00000  Uiso   1.00
H607   H     0.96657   0.93305   0.32582   0.00000  Uiso   1.00
H608   H     0.94881   0.88604   0.36187   0.00000  Uiso   1.00
H609   H     0.90450   0.92429   0.36325   0.00000  Uiso   1.00
H610   H     0.81342   0.81046   0.11245   0.00000  Uiso   1.00
H611   H     0.85096   0.84818   0.39161   0.00000  Uiso   1.00
H612   H     0.95697   0.84721   0.10035   0.00000  Uiso   1.00
H613   H     0.71368   0.80194   0.39530   0.00000  Uiso   1.00
H614   H     0.69282   0.77911   0.47603   0.00000  Uiso   1.00
H615   H     0.98435   0.84597   0.01544   0.00000  Uiso   1.00
H616   H     0.77428   0.77698   0.08031   0.00000  Uiso   1.00
N617   N     0.71426   0.83334   0.25001   0.00000  Uiso   1.00
N618   N     0.95241   0.83332   0.24999   0.00000  Uiso   1.00
O619   O     0.79512   0.89442   0.25001   0.00000  Uiso   1.00
O620   O     0.92844   0.88855   0.30405   0.00000  Uiso   1.00
O621   O     0.87154   0.77225   0.25000   0.00000  Uiso   1.00
O622   O     0.87157   0.89441   0.25000   0.00000  Uiso   1.00
O623   O     0.79510   0.77226   0.25000   0.00000  Uiso   1.00
O624   O     0.77328   0.83334   0.31613   0.00000  Uiso   1.00
O625   O     0.89339   0.83333   0.18388   0.00000  Uiso   1.00
O626   O     0.84972   0.83333   0.31612   0.00000  Uiso   1.00
O627   O     0.81695   0.83334   0.18388   0.00000  Uiso   1.00
O628   O     0.73769   0.77922   0.19422   0.00000  Uiso   1.00
Zn629  Zn    0.78229   0.83334   0.25000   0.00000  Uiso   1.00
Zn630  Zn    0.88438   0.83333   0.25000   0.00000  Uiso   1.00
C631   C     0.16666   0.24670   0.75015   0.00000  Uiso   1.00
C632   C     0.12251   0.31196   0.76056   0.00000  Uiso   1.00
C633   C     0.16658   0.04249   0.75014   0.00000  Uiso   1.00
C634   C     0.16662   0.29085   0.75037   0.00000  Uiso   1.00
C635   C     0.31996   0.13955   0.72258   0.00000  Uiso   1.00
C636   C     0.01359   0.19413   0.77706   0.00000  Uiso   1.00
C637   C     0.03484   0.13872   0.72304   0.00000  Uiso   1.00
C638   C     0.29796   0.19411   0.77787   0.00000  Uiso   1.00
C639   C     0.13626   0.16608   0.83800   0.00000  Uiso   1.00
C640   C     0.19710   0.16593   0.66203   0.00000  Uiso   1.00
C641   C     0.11818   0.15888   0.88801   0.00000  Uiso   1.00
C642   C     0.16662   0.08663   0.75000   0.00000  Uiso   1.00
C643   C     0.21621   0.16223   0.61151   0.00000  Uiso   1.00
C644   C     0.06139   0.12668   0.95764   0.00000  Uiso   1.00
C645   C     0.28049   0.17037   0.53606   0.00000  Uiso   1.00
C646   C     0.07279   0.14034   0.91208   0.00000  Uiso   1.00
C647   C     0.26491   0.17132   0.58436   0.00000  Uiso   1.00
C648   C     0.15126   0.16430   0.90979   0.00000  Uiso   1.00
C649   C     0.18413   0.14987   0.59044   0.00000  Uiso   1.00
C650   C     0.14261   0.14730   0.95342   0.00000  Uiso   1.00
C651   C     0.19891   0.14831   0.54214   0.00000  Uiso   1.00
C652   C     0.09599   0.13016   0.97857   0.00000  Uiso   1.00
C653   C     0.11858   0.12163   0.54515   0.00000  Uiso   1.00
C654   C     0.24757   0.15999   0.51478   0.00000  Uiso   1.00
C655   C     0.17890   0.14804   0.97288   0.00000  Uiso   1.00
C656   C     0.16534   0.13900   0.52063   0.00000  Uiso   1.00
C657   C     0.05320   0.07211   0.69207   0.00000  Uiso   1.00
C658   C     0.27165   0.24190   0.84013   0.00000  Uiso   1.00
C659   C     0.22840   0.15700   0.94596   0.00000  Uiso   1.00
C660   C     0.08485   0.11662   0.52401   0.00000  Uiso   1.00
C661   C     0.26228   0.16238   0.96668   0.00000  Uiso   1.00
C662   C     0.21068   0.31209   0.74027   0.00000  Uiso   1.00
C663   C     0.12249   0.02126   0.76050   0.00000  Uiso   1.00
C664   C     0.21068   0.02138   0.74008   0.00000  Uiso   1.00
H665   H     0.04957   0.10296   0.54364   0.00000  Uiso   1.00
H666   H     0.24211   0.15900   0.90852   0.00000  Uiso   1.00
H667   H     0.24503   0.29589   0.73213   0.00000  Uiso   1.00
H668   H     0.08813   0.03746   0.76886   0.00000  Uiso   1.00
H669   H     0.30975   0.11895   0.70009   0.00000  Uiso   1.00
H670   H     0.02515   0.21596   0.79747   0.00000  Uiso   1.00
H671   H     0.24505   0.03767   0.73178   0.00000  Uiso   1.00
H672   H     0.08814   0.29566   0.76885   0.00000  Uiso   1.00
H673   H     0.03593   0.07070   0.66585   0.00000  Uiso   1.00
H674   H     0.02757   0.06103   0.72661   0.00000  Uiso   1.00
H675   H     0.08461   0.05036   0.68037   0.00000  Uiso   1.00
H676   H     0.29961   0.17017   0.94513   0.00000  Uiso   1.00
H677   H     0.29991   0.26638   0.82582   0.00000  Uiso   1.00
H678   H     0.28214   0.21937   0.86187   0.00000  Uiso   1.00
H679   H     0.23784   0.25763   0.86325   0.00000  Uiso   1.00
H680   H     0.14676   0.14380   0.61245   0.00000  Uiso   1.00
H681   H     0.18429   0.18152   0.89161   0.00000  Uiso   1.00
H682   H     0.29031   0.18054   0.60035   0.00000  Uiso   1.00
H683   H     0.04701   0.13527   0.89530   0.00000  Uiso   1.00
H684   H     0.02615   0.11245   0.97603   0.00000  Uiso   1.00
H685   H     0.31769   0.17930   0.51544   0.00000  Uiso   1.00
H686   H     0.10762   0.11032   0.58031   0.00000  Uiso   1.00
N687   N     0.04759   0.16668   0.75001   0.00000  Uiso   1.00
N688   N     0.28574   0.16666   0.74999   0.00000  Uiso   1.00
O689   O     0.12846   0.22775   0.75001   0.00000  Uiso   1.00
O690   O     0.26177   0.22188   0.80405   0.00000  Uiso   1.00
O691   O     0.20488   0.10558   0.75000   0.00000  Uiso   1.00
O692   O     0.20490   0.22774   0.75000   0.00000  Uiso   1.00
O693   O     0.12843   0.10559   0.75000   0.00000  Uiso   1.00
O694   O     0.10661   0.16667   0.81613   0.00000  Uiso   1.00
O695   O     0.22672   0.16666   0.68388   0.00000  Uiso   1.00
O696   O     0.18305   0.16666   0.81612   0.00000  Uiso   1.00
O697   O     0.15028   0.16667   0.68388   0.00000  Uiso   1.00
O698   O     0.07102   0.11255   0.69422   0.00000  Uiso   1.00
Zn699  Zn    0.11562   0.16667   0.75000   0.00000  Uiso   1.00
Zn700  Zn    0.21771   0.16666   0.75000   0.00000  Uiso   1.00
C701   C     0.50000   0.24670   0.75015   0.00000  Uiso   1.00
C702   C     0.45584   0.31196   0.76056   0.00000  Uiso   1.00
C703   C     0.49992   0.04249   0.75014   0.00000  Uiso   1.00
C704   C     0.49995   0.29085   0.75037   0.00000  Uiso   1.00
C705   C     0.65329   0.13955   0.72258   0.00000  Uiso   1.00
C706   C     0.34692   0.19413   0.77706   0.00000  Uiso   1.00
C707   C     0.36818   0.13872   0.72304   0.00000  Uiso   1.00
C708   C     0.63129   0.19411   0.77787   0.00000  Uiso   1.00
C709   C     0.46960   0.16608   0.83800   0.00000  Uiso   1.00
C710   C     0.53043   0.16593   0.66203   0.00000  Uiso   1.00
C711   C     0.45152   0.15888   0.88801   0.00000  Uiso   1.00
C712   C     0.49996   0.08663   0.75000   0.00000  Uiso   1.00
C713   C     0.54955   0.16223   0.61151   0.00000  Uiso   1.00
C714   C     0.39472   0.12668   0.95764   0.00000  Uiso   1.00
C715   C     0.61382   0.17037   0.53606   0.00000  Uiso   1.00
C716   C     0.40612   0.14034   0.91208   0.00000  Uiso   1.00
C717   C     0.59824   0.17132   0.58436   0.00000  Uiso   1.00
C718   C     0.48459   0.16430   0.90979   0.00000  Uiso   1.00
C719   C     0.51747   0.14987   0.59044   0.00000  Uiso   1.00
C720   C     0.47594   0.14730   0.95342   0.00000  Uiso   1.00
C721   C     0.53224   0.14831   0.54214   0.00000  Uiso   1.00
C722   C     0.42933   0.13016   0.97857   0.00000  Uiso   1.00
C723   C     0.45191   0.12163   0.54515   0.00000  Uiso   1.00
C724   C     0.58091   0.15999   0.51478   0.00000  Uiso   1.00
C725   C     0.51223   0.14804   0.97288   0.00000  Uiso   1.00
C726   C     0.49867   0.13900   0.52063   0.00000  Uiso   1.00
C727   C     0.38653   0.07211   0.69207   0.00000  Uiso   1.00
C728   C     0.60498   0.24190   0.84013   0.00000  Uiso   1.00
C729   C     0.56173   0.15700   0.94596   0.00000  Uiso   1.00
C730   C     0.41818   0.11662   0.52401   0.00000  Uiso   1.00
C731   C     0.59561   0.16238   0.96668   0.00000  Uiso   1.00
C732   C     0.54401   0.31209   0.74027   0.00000  Uiso   1.00
C733   C     0.45582   0.02126   0.76050   0.00000  Uiso   1.00
C734   C     0.54401   0.02138   0.74008   0.00000  Uiso   1.00
H735   H     0.38290   0.10296   0.54364   0.00000  Uiso   1.00
H736   H     0.57544   0.15900   0.90852   0.00000  Uiso   1.00
H737   H     0.57837   0.29589   0.73213   0.00000  Uiso   1.00
H738   H     0.42146   0.03746   0.76886   0.00000  Uiso   1.00
H739   H     0.64308   0.11895   0.70009   0.00000  Uiso   1.00
H740   H     0.35848   0.21596   0.79747   0.00000  Uiso   1.00
H741   H     0.57839   0.03767   0.73178   0.00000  Uiso   1.00
H742   H     0.42147   0.29566   0.76885   0.00000  Uiso   1.00
H743   H     0.36926   0.07070   0.66585   0.00000  Uiso   1.00
H744   H     0.36090   0.06103   0.72661   0.00000  Uiso   1.00
H745   H     0.41794   0.05036   0.68037   0.00000  Uiso   1.00
H746   H     0.63294   0.17017   0.94513   0.00000  Uiso   1.00
H747   H     0.63324   0.26638   0.82582   0.00000  Uiso   1.00
H748   H     0.61547   0.21937   0.86187   0.00000  Uiso   1.00
H749   H     0.57117   0.25763   0.86325   0.00000  Uiso   1.00
H750   H     0.48009   0.14380   0.61245   0.00000  Uiso   1.00
H751   H     0.51762   0.18152   0.89161   0.00000  Uiso   1.00
H752   H     0.62364   0.18054   0.60035   0.00000  Uiso   1.00
H753   H     0.38035   0.13527   0.89530   0.00000  Uiso   1.00
H754   H     0.35948   0.11245   0.97603   0.00000  Uiso   1.00
H755   H     0.65102   0.17930   0.51544   0.00000  Uiso   1.00
H756   H     0.44095   0.11032   0.58031   0.00000  Uiso   1.00
N757   N     0.38093   0.16668   0.75001   0.00000  Uiso   1.00
N758   N     0.61907   0.16666   0.74999   0.00000  Uiso   1.00
O759   O     0.46179   0.22775   0.75001   0.00000  Uiso   1.00
O760   O     0.59510   0.22188   0.80405   0.00000  Uiso   1.00
O761   O     0.53821   0.10558   0.75000   0.00000  Uiso   1.00
O762   O     0.53823   0.22774   0.75000   0.00000  Uiso   1.00
O763   O     0.46177   0.10559   0.75000   0.00000  Uiso   1.00
O764   O     0.43994   0.16667   0.81613   0.00000  Uiso   1.00
O765   O     0.56006   0.16666   0.68388   0.00000  Uiso   1.00
O766   O     0.51639   0.16666   0.81612   0.00000  Uiso   1.00
O767   O     0.48361   0.16667   0.68388   0.00000  Uiso   1.00
O768   O     0.40435   0.11255   0.69422   0.00000  Uiso   1.00
Zn769  Zn    0.44896   0.16667   0.75000   0.00000  Uiso   1.00
Zn770  Zn    0.55104   0.16666   0.75000   0.00000  Uiso   1.00
C771   C     0.83333   0.24670   0.75015   0.00000  Uiso   1.00
C772   C     0.78918   0.31196   0.76056   0.00000  Uiso   1.00
C773   C     0.83325   0.04249   0.75014   0.00000  Uiso   1.00
C774   C     0.83329   0.29085   0.75037   0.00000  Uiso   1.00
C775   C     0.98662   0.13955   0.72258   0.00000  Uiso   1.00
C776   C     0.68025   0.19413   0.77706   0.00000  Uiso   1.00
C777   C     0.70151   0.13872   0.72304   0.00000  Uiso   1.00
C778   C     0.96462   0.19411   0.77787   0.00000  Uiso   1.00
C779   C     0.80293   0.16608   0.83800   0.00000  Uiso   1.00
C780   C     0.86377   0.16593   0.66203   0.00000  Uiso   1.00
C781   C     0.78485   0.15888   0.88801   0.00000  Uiso   1.00
C782   C     0.83329   0.08663   0.75000   0.00000  Uiso   1.00
C783   C     0.88288   0.16223   0.61151   0.00000  Uiso   1.00
C784   C     0.72805   0.12668   0.95764   0.00000  Uiso   1.00
C785   C     0.94716   0.17037   0.53606   0.00000  Uiso   1.00
C786   C     0.73946   0.14034   0.91208   0.00000  Uiso   1.00
C787   C     0.93157   0.17132   0.58436   0.00000  Uiso   1.00
C788   C     0.81792   0.16430   0.90979   0.00000  Uiso   1.00
C789   C     0.85080   0.14987   0.59044   0.00000  Uiso   1.00
C790   C     0.80927   0.14730   0.95342   0.00000  Uiso   1.00
C791   C     0.86558   0.14831   0.54214   0.00000  Uiso   1.00
C792   C     0.76266   0.13016   0.97857   0.00000  Uiso   1.00
C793   C     0.78524   0.12163   0.54515   0.00000  Uiso   1.00
C794   C     0.91424   0.15999   0.51478   0.00000  Uiso   1.00
C795   C     0.84556   0.14804   0.97288   0.00000  Uiso   1.00
C796   C     0.83200   0.13900   0.52063   0.00000  Uiso   1.00
C797   C     0.71987   0.07211   0.69207   0.00000  Uiso   1.00
C798   C     0.93832   0.24190   0.84013   0.00000  Uiso   1.00
C799   C     0.89507   0.15700   0.94596   0.00000  Uiso   1.00
C800   C     0.75152   0.11662   0.52401   0.00000  Uiso   1.00
C801   C     0.92894   0.16238   0.96668   0.00000  Uiso   1.00
C802   C     0.87735   0.31209   0.74027   0.00000  Uiso   1.00
C803   C     0.78916   0.02126   0.76050   0.00000  Uiso   1.00
C804   C     0.87734   0.02138   0.74008   0.00000  Uiso   1.00
H805   H     0.71623   0.10296   0.54364   0.00000  Uiso   1.00
H806   H     0.90878   0.15900   0.90852   0.00000  Uiso   1.00
H807   H     0.91170   0.29589   0.73213   0.00000  Uiso   1.00
H808   H     0.75479   0.03746   0.76886   0.00000  Uiso   1.00
H809   H     0.97642   0.11895   0.70009   0.00000  Uiso   1.00
H810   H     0.69182   0.21596   0.79747   0.00000  Uiso   1.00
H811   H     0.91172   0.03767   0.73178   0.00000  Uiso   1.00
H812   H     0.75481   0.29566   0.76885   0.00000  Uiso   1.00
H813   H     0.70260   0.07070   0.66585   0.00000  Uiso   1.00
H814   H     0.69423   0.06103   0.72661   0.00000  Uiso   1.00
H815   H     0.75128   0.05036   0.68037   0.00000  Uiso   1.00
H816   H     0.96628   0.17017   0.94513   0.00000  Uiso   1.00
H817   H     0.96657   0.26638   0.82582   0.00000  Uiso   1.00
H818   H     0.94881   0.21937   0.86187   0.00000  Uiso   1.00
H819   H     0.90450   0.25763   0.86325   0.00000  Uiso   1.00
H820   H     0.81342   0.14380   0.61245   0.00000  Uiso   1.00
H821   H     0.85096   0.18152   0.89161   0.00000  Uiso   1.00
H822   H     0.95697   0.18054   0.60035   0.00000  Uiso   1.00
H823   H     0.71368   0.13527   0.89530   0.00000  Uiso   1.00
H824   H     0.69282   0.11245   0.97603   0.00000  Uiso   1.00
H825   H     0.98435   0.17930   0.51544   0.00000  Uiso   1.00
H826   H     0.77428   0.11032   0.58031   0.00000  Uiso   1.00
N827   N     0.71426   0.16668   0.75001   0.00000  Uiso   1.00
N828   N     0.95241   0.16666   0.74999   0.00000  Uiso   1.00
O829   O     0.79512   0.22775   0.75001   0.00000  Uiso   1.00
O830   O     0.92844   0.22188   0.80405   0.00000  Uiso   1.00
O831   O     0.87154   0.10558   0.75000   0.00000  Uiso   1.00
O832   O     0.87157   0.22774   0.75000   0.00000  Uiso   1.00
O833   O     0.79510   0.10559   0.75000   0.00000  Uiso   1.00
O834   O     0.77328   0.16667   0.81613   0.00000  Uiso   1.00
O835   O     0.89339   0.16666   0.68388   0.00000  Uiso   1.00
O836   O     0.84972   0.16666   0.81612   0.00000  Uiso   1.00
O837   O     0.81695   0.16667   0.68388   0.00000  Uiso   1.00
O838   O     0.73769   0.11255   0.69422   0.00000  Uiso   1.00
Zn839  Zn    0.78229   0.16667   0.75000   0.00000  Uiso   1.00
Zn840  Zn    0.88438   0.16666   0.75000   0.00000  Uiso   1.00
C841   C     0.16666   0.58003   0.75015   0.00000  Uiso   1.00
C842   C     0.12251   0.64529   0.76056   0.00000  Uiso   1.00
C843   C     0.16658   0.37582   0.75014   0.00000  Uiso   1.00
C844   C     0.16662   0.62419   0.75037   0.00000  Uiso   1.00
C845   C     0.31996   0.47288   0.72258   0.00000  Uiso   1.00
C846   C     0.01359   0.52746   0.77706   0.00000  Uiso   1.00
C847   C     0.03484   0.47205   0.72304   0.00000  Uiso   1.00
C848   C     0.29796   0.52744   0.77787   0.00000  Uiso   1.00
C849   C     0.13626   0.49942   0.83800   0.00000  Uiso   1.00
C850   C     0.19710   0.49926   0.66203   0.00000  Uiso   1.00
C851   C     0.11818   0.49221   0.88801   0.00000  Uiso   1.00
C852   C     0.16662   0.41997   0.75000   0.00000  Uiso   1.00
C853   C     0.21621   0.49556   0.61151   0.00000  Uiso   1.00
C854   C     0.06139   0.46001   0.95764   0.00000  Uiso   1.00
C855   C     0.28049   0.50371   0.53606   0.00000  Uiso   1.00
C856   C     0.07279   0.47368   0.91208   0.00000  Uiso   1.00
C857   C     0.26491   0.50465   0.58436   0.00000  Uiso   1.00
C858   C     0.15126   0.49763   0.90979   0.00000  Uiso   1.00
C859   C     0.18413   0.48320   0.59044   0.00000  Uiso   1.00
C860   C     0.14261   0.48063   0.95342   0.00000  Uiso   1.00
C861   C     0.19891   0.48165   0.54214   0.00000  Uiso   1.00
C862   C     0.09599   0.46350   0.97857   0.00000  Uiso   1.00
C863   C     0.11858   0.45496   0.54515   0.00000  Uiso   1.00
C864   C     0.24757   0.49332   0.51478   0.00000  Uiso   1.00
C865   C     0.17890   0.48138   0.97288   0.00000  Uiso   1.00
C866   C     0.16534   0.47233   0.52063   0.00000  Uiso   1.00
C867   C     0.05320   0.40545   0.69207   0.00000  Uiso   1.00
C868   C     0.27165   0.57524   0.84013   0.00000  Uiso   1.00
C869   C     0.22840   0.49033   0.94596   0.00000  Uiso   1.00
C870   C     0.08485   0.44995   0.52401   0.00000  Uiso   1.00
C871   C     0.26228   0.49572   0.96668   0.00000  Uiso   1.00
C872   C     0.21068   0.64542   0.74027   0.00000  Uiso   1.00
C873   C     0.12249   0.35459   0.76050   0.00000  Uiso   1.00
C874   C     0.21068   0.35471   0.74008   0.00000  Uiso   1.00
H875   H     0.04957   0.43629   0.54364   0.00000  Uiso   1.00
H876   H     0.24211   0.49233   0.90852   0.00000  Uiso   1.00
H877   H     0.24503   0.62923   0.73213   0.00000  Uiso   1.00
H878   H     0.08813   0.37080   0.76886   0.00000  Uiso   1.00
H879   H     0.30975   0.45228   0.70009   0.00000  Uiso   1.00
H880   H     0.02515   0.54929   0.79747   0.00000  Uiso   1.00
H881   H     0.24505   0.37101   0.73178   0.00000  Uiso   1.00
H882   H     0.08814   0.62900   0.76885   0.00000  Uiso   1.00
H883   H     0.03593   0.40403   0.66585   0.00000  Uiso   1.00
H884   H     0.02757   0.39436   0.72661   0.00000  Uiso   1.00
H885   H     0.08461   0.38370   0.68037   0.00000  Uiso   1.00
H886   H     0.29961   0.50351   0.94513   0.00000  Uiso   1.00
H887   H     0.29991   0.59971   0.82582   0.00000  Uiso   1.00
H888   H     0.28214   0.55270   0.86187   0.00000  Uiso   1.00
H889   H     0.23784   0.59096   0.86325   0.00000  Uiso   1.00
H890   H     0.14676   0.47713   0.61245   0.00000  Uiso   1.00
H891   H     0.18429   0.51485   0.89161   0.00000  Uiso   1.00
H892   H     0.29031   0.51388   0.60035   0.00000  Uiso   1.00
H893   H     0.04701   0.46860   0.89530   0.00000  Uiso   1.00
H894   H     0.02615   0.44578   0.97603   0.00000  Uiso   1.00
H895   H     0.31769   0.51264   0.51544   0.00000  Uiso   1.00
H896   H     0.10762   0.44365   0.58031   0.00000  Uiso   1.00
N897   N     0.04759   0.50001   0.75001   0.00000  Uiso   1.00
N898   N     0.28574   0.49999   0.74999   0.00000  Uiso   1.00
O899   O     0.12846   0.56108   0.75001   0.00000  Uiso   1.00
O900   O     0.26177   0.55521   0.80405   0.00000  Uiso   1.00
O901   O     0.20488   0.43892   0.75000   0.00000  Uiso   1.00
O902   O     0.20490   0.56107   0.75000   0.00000  Uiso   1.00
O903   O     0.12843   0.43893   0.75000   0.00000  Uiso   1.00
O904   O     0.10661   0.50001   0.81613   0.00000  Uiso   1.00
O905   O     0.22672   0.49999   0.68388   0.00000  Uiso   1.00
O906   O     0.18305   0.50000   0.81612   0.00000  Uiso   1.00
O907   O     0.15028   0.50000   0.68388   0.00000  Uiso   1.00
O908   O     0.07102   0.44588   0.69422   0.00000  Uiso   1.00
Zn909  Zn    0.11562   0.50001   0.75000   0.00000  Uiso   1.00
Zn910  Zn    0.21771   0.49999   0.75000   0.00000  Uiso   1.00
C911   C     0.50000   0.58003   0.75015   0.00000  Uiso   1.00
C912   C     0.45584   0.64529   0.76056   0.00000  Uiso   1.00
C913   C     0.49992   0.37582   0.75014   0.00000  Uiso   1.00
C914   C     0.49995   0.62419   0.75037   0.00000  Uiso   1.00
C915   C     0.65329   0.47288   0.72258   0.00000  Uiso   1.00
C916   C     0.34692   0.52746   0.77706   0.00000  Uiso   1.00
C917   C     0.36818   0.47205   0.72304   0.00000  Uiso   1.00
C918   C     0.63129   0.52744   0.77787   0.00000  Uiso   1.00
C919   C     0.46960   0.49942   0.83800   0.00000  Uiso   1.00
C920   C     0.53043   0.49926   0.66203   0.00000  Uiso   1.00
C921   C     0.45152   0.49221   0.88801   0.00000  Uiso   1.00
C922   C     0.49996   0.41997   0.75000   0.00000  Uiso   1.00
C923   C     0.54955   0.49556   0.61151   0.00000  Uiso   1.00
C924   C     0.39472   0.46001   0.95764   0.00000  Uiso   1.00
C925   C     0.61382   0.50371   0.53606   0.00000  Uiso   1.00
C926   C     0.40612   0.47368   0.91208   0.00000  Uiso   1.00
C927   C     0.59824   0.50465   0.58436   0.00000  Uiso   1.00
C928   C     0.48459   0.49763   0.90979   0.00000  Uiso   1.00
C929   C     0.51747   0.48320   0.59044   0.00000  Uiso   1.00
C930   C     0.47594   0.48063   0.95342   0.00000  Uiso   1.00
C931   C     0.53224   0.48165   0.54214   0.00000  Uiso   1.00
C932   C     0.42933   0.46350   0.97857   0.00000  Uiso   1.00
C933   C     0.45191   0.45496   0.54515   0.00000  Uiso   1.00
C934   C     0.58091   0.49332   0.51478   0.00000  Uiso   1.00
C935   C     0.51223   0.48138   0.97288   0.00000  Uiso   1.00
C936   C     0.49867   0.47233   0.52063   0.00000  Uiso   1.00
C937   C     0.38653   0.40545   0.69207   0.00000  Uiso   1.00
C938   C     0.60498   0.57524   0.84013   0.00000  Uiso   1.00
C939   C     0.56173   0.49033   0.94596   0.00000  Uiso   1.00
C940   C     0.41818   0.44995   0.52401   0.00000  Uiso   1.00
C941   C     0.59561   0.49572   0.96668   0.00000  Uiso   1.00
C942   C     0.54401   0.64542   0.74027   0.00000  Uiso   1.00
C943   C     0.45582   0.35459   0.76050   0.00000  Uiso   1.00
C944   C     0.54401   0.35471   0.74008   0.00000  Uiso   1.00
H945   H     0.38290   0.43629   0.54364   0.00000  Uiso   1.00
H946   H     0.57544   0.49233   0.90852   0.00000  Uiso   1.00
H947   H     0.57837   0.62923   0.73213   0.00000  Uiso   1.00
H948   H     0.42146   0.37080   0.76886   0.00000  Uiso   1.00
H949   H     0.64308   0.45228   0.70009   0.00000  Uiso   1.00
H950   H     0.35848   0.54929   0.79747   0.00000  Uiso   1.00
H951   H     0.57839   0.37101   0.73178   0.00000  Uiso   1.00
H952   H     0.42147   0.62900   0.76885   0.00000  Uiso   1.00
H953   H     0.36926   0.40403   0.66585   0.00000  Uiso   1.00
H954   H     0.36090   0.39436   0.72661   0.00000  Uiso   1.00
H955   H     0.41794   0.38370   0.68037   0.00000  Uiso   1.00
H956   H     0.63294   0.50351   0.94513   0.00000  Uiso   1.00
H957   H     0.63324   0.59971   0.82582   0.00000  Uiso   1.00
H958   H     0.61547   0.55270   0.86187   0.00000  Uiso   1.00
H959   H     0.57117   0.59096   0.86325   0.00000  Uiso   1.00
H960   H     0.48009   0.47713   0.61245   0.00000  Uiso   1.00
H961   H     0.51762   0.51485   0.89161   0.00000  Uiso   1.00
H962   H     0.62364   0.51388   0.60035   0.00000  Uiso   1.00
H963   H     0.38035   0.46860   0.89530   0.00000  Uiso   1.00
H964   H     0.35948   0.44578   0.97603   0.00000  Uiso   1.00
H965   H     0.65102   0.51264   0.51544   0.00000  Uiso   1.00
H966   H     0.44095   0.44365   0.58031   0.00000  Uiso   1.00
N967   N     0.38093   0.50001   0.75001   0.00000  Uiso   1.00
N968   N     0.61907   0.49999   0.74999   0.00000  Uiso   1.00
O969   O     0.46179   0.56108   0.75001   0.00000  Uiso   1.00
O970   O     0.59510   0.55521   0.80405   0.00000  Uiso   1.00
O971   O     0.53821   0.43892   0.75000   0.00000  Uiso   1.00
O972   O     0.53823   0.56107   0.75000   0.00000  Uiso   1.00
O973   O     0.46177   0.43893   0.75000   0.00000  Uiso   1.00
O974   O     0.43994   0.50001   0.81613   0.00000  Uiso   1.00
O975   O     0.56006   0.49999   0.68388   0.00000  Uiso   1.00
O976   O     0.51639   0.50000   0.81612   0.00000  Uiso   1.00
O977   O     0.48361   0.50000   0.68388   0.00000  Uiso   1.00
O978   O     0.40435   0.44588   0.69422   0.00000  Uiso   1.00
Zn979  Zn    0.44896   0.50001   0.75000   0.00000  Uiso   1.00
Zn980  Zn    0.55104   0.49999   0.75000   0.00000  Uiso   1.00
C981   C     0.83333   0.58003   0.75015   0.00000  Uiso   1.00
C982   C     0.78918   0.64529   0.76056   0.00000  Uiso   1.00
C983   C     0.83325   0.37582   0.75014   0.00000  Uiso   1.00
C984   C     0.83329   0.62419   0.75037   0.00000  Uiso   1.00
C985   C     0.98662   0.47288   0.72258   0.00000  Uiso   1.00
C986   C     0.68025   0.52746   0.77706   0.00000  Uiso   1.00
C987   C     0.70151   0.47205   0.72304   0.00000  Uiso   1.00
C988   C     0.96462   0.52744   0.77787   0.00000  Uiso   1.00
C989   C     0.80293   0.49942   0.83800   0.00000  Uiso   1.00
C990   C     0.86377   0.49926   0.66203   0.00000  Uiso   1.00
C991   C     0.78485   0.49221   0.88801   0.00000  Uiso   1.00
C992   C     0.83329   0.41997   0.75000   0.00000  Uiso   1.00
C993   C     0.88288   0.49556   0.61151   0.00000  Uiso   1.00
C994   C     0.72805   0.46001   0.95764   0.00000  Uiso   1.00
C995   C     0.94716   0.50371   0.53606   0.00000  Uiso   1.00
C996   C     0.73946   0.47368   0.91208   0.00000  Uiso   1.00
C997   C     0.93157   0.50465   0.58436   0.00000  Uiso   1.00
C998   C     0.81792   0.49763   0.90979   0.00000  Uiso   1.00
C999   C     0.85080   0.48320   0.59044   0.00000  Uiso   1.00
C1000  C     0.80927   0.48063   0.95342   0.00000  Uiso   1.00
C1001  C     0.86558   0.48165   0.54214   0.00000  Uiso   1.00
C1002  C     0.76266   0.46350   0.97857   0.00000  Uiso   1.00
C1003  C     0.78524   0.45496   0.54515   0.00000  Uiso   1.00
C1004  C     0.91424   0.49332   0.51478   0.00000  Uiso   1.00
C1005  C     0.84556   0.48138   0.97288   0.00000  Uiso   1.00
C1006  C     0.83200   0.47233   0.52063   0.00000  Uiso   1.00
C1007  C     0.71987   0.40545   0.69207   0.00000  Uiso   1.00
C1008  C     0.93832   0.57524   0.84013   0.00000  Uiso   1.00
C1009  C     0.89507   0.49033   0.94596   0.00000  Uiso   1.00
C1010  C     0.75152   0.44995   0.52401   0.00000  Uiso   1.00
C1011  C     0.92894   0.49572   0.96668   0.00000  Uiso   1.00
C1012  C     0.87735   0.64542   0.74027   0.00000  Uiso   1.00
C1013  C     0.78916   0.35459   0.76050   0.00000  Uiso   1.00
C1014  C     0.87734   0.35471   0.74008   0.00000  Uiso   1.00
H1015  H     0.71623   0.43629   0.54364   0.00000  Uiso   1.00
H1016  H     0.90878   0.49233   0.90852   0.00000  Uiso   1.00
H1017  H     0.91170   0.62923   0.73213   0.00000  Uiso   1.00
H1018  H     0.75479   0.37080   0.76886   0.00000  Uiso   1.00
H1019  H     0.97642   0.45228   0.70009   0.00000  Uiso   1.00
H1020  H     0.69182   0.54929   0.79747   0.00000  Uiso   1.00
H1021  H     0.91172   0.37101   0.73178   0.00000  Uiso   1.00
H1022  H     0.75481   0.62900   0.76885   0.00000  Uiso   1.00
H1023  H     0.70260   0.40403   0.66585   0.00000  Uiso   1.00
H1024  H     0.69423   0.39436   0.72661   0.00000  Uiso   1.00
H1025  H     0.75128   0.38370   0.68037   0.00000  Uiso   1.00
H1026  H     0.96628   0.50351   0.94513   0.00000  Uiso   1.00
H1027  H     0.96657   0.59971   0.82582   0.00000  Uiso   1.00
H1028  H     0.94881   0.55270   0.86187   0.00000  Uiso   1.00
H1029  H     0.90450   0.59096   0.86325   0.00000  Uiso   1.00
H1030  H     0.81342   0.47713   0.61245   0.00000  Uiso   1.00
H1031  H     0.85096   0.51485   0.89161   0.00000  Uiso   1.00
H1032  H     0.95697   0.51388   0.60035   0.00000  Uiso   1.00
H1033  H     0.71368   0.46860   0.89530   0.00000  Uiso   1.00
H1034  H     0.69282   0.44578   0.97603   0.00000  Uiso   1.00
H1035  H     0.98435   0.51264   0.51544   0.00000  Uiso   1.00
H1036  H     0.77428   0.44365   0.58031   0.00000  Uiso   1.00
N1037  N     0.71426   0.50001   0.75001   0.00000  Uiso   1.00
N1038  N     0.95241   0.49999   0.74999   0.00000  Uiso   1.00
O1039  O     0.79512   0.56108   0.75001   0.00000  Uiso   1.00
O1040  O     0.92844   0.55521   0.80405   0.00000  Uiso   1.00
O1041  O     0.87154   0.43892   0.75000   0.00000  Uiso   1.00
O1042  O     0.87157   0.56107   0.75000   0.00000  Uiso   1.00
O1043  O     0.79510   0.43893   0.75000   0.00000  Uiso   1.00
O1044  O     0.77328   0.50001   0.81613   0.00000  Uiso   1.00
O1045  O     0.89339   0.49999   0.68388   0.00000  Uiso   1.00
O1046  O     0.84972   0.50000   0.81612   0.00000  Uiso   1.00
O1047  O     0.81695   0.50000   0.68388   0.00000  Uiso   1.00
O1048  O     0.73769   0.44588   0.69422   0.00000  Uiso   1.00
Zn1049 Zn    0.78229   0.50001   0.75000   0.00000  Uiso   1.00
Zn1050 Zn    0.88438   0.49999   0.75000   0.00000  Uiso   1.00
C1051  C     0.16666   0.91337   0.75015   0.00000  Uiso   1.00
C1052  C     0.12251   0.97863   0.76056   0.00000  Uiso   1.00
C1053  C     0.16658   0.70915   0.75014   0.00000  Uiso   1.00
C1054  C     0.16662   0.95752   0.75037   0.00000  Uiso   1.00
C1055  C     0.31996   0.80621   0.72258   0.00000  Uiso   1.00
C1056  C     0.01359   0.86079   0.77706   0.00000  Uiso   1.00
C1057  C     0.03484   0.80538   0.72304   0.00000  Uiso   1.00
C1058  C     0.29796   0.86077   0.77787   0.00000  Uiso   1.00
C1059  C     0.13626   0.83275   0.83800   0.00000  Uiso   1.00
C1060  C     0.19710   0.83260   0.66203   0.00000  Uiso   1.00
C1061  C     0.11818   0.82554   0.88801   0.00000  Uiso   1.00
C1062  C     0.16662   0.75330   0.75000   0.00000  Uiso   1.00
C1063  C     0.21621   0.82889   0.61151   0.00000  Uiso   1.00
C1064  C     0.06139   0.79335   0.95764   0.00000  Uiso   1.00
C1065  C     0.28049   0.83704   0.53606   0.00000  Uiso   1.00
C1066  C     0.07279   0.80701   0.91208   0.00000  Uiso   1.00
C1067  C     0.26491   0.83799   0.58436   0.00000  Uiso   1.00
C1068  C     0.15126   0.83096   0.90979   0.00000  Uiso   1.00
C1069  C     0.18413   0.81653   0.59044   0.00000  Uiso   1.00
C1070  C     0.14261   0.81397   0.95342   0.00000  Uiso   1.00
C1071  C     0.19891   0.81498   0.54214   0.00000  Uiso   1.00
C1072  C     0.09599   0.79683   0.97857   0.00000  Uiso   1.00
C1073  C     0.11858   0.78830   0.54515   0.00000  Uiso   1.00
C1074  C     0.24757   0.82665   0.51478   0.00000  Uiso   1.00
C1075  C     0.17890   0.81471   0.97288   0.00000  Uiso   1.00
C1076  C     0.16534   0.80567   0.52063   0.00000  Uiso   1.00
C1077  C     0.05320   0.73878   0.69207   0.00000  Uiso   1.00
C1078  C     0.27165   0.90857   0.84013   0.00000  Uiso   1.00
C1079  C     0.22840   0.82366   0.94596   0.00000  Uiso   1.00
C1080  C     0.08485   0.78329   0.52401   0.00000  Uiso   1.00
C1081  C     0.26228   0.82905   0.96668   0.00000  Uiso   1.00
C1082  C     0.21068   0.97875   0.74027   0.00000  Uiso   1.00
C1083  C     0.12249   0.68792   0.76050   0.00000  Uiso   1.00
C1084  C     0.21068   0.68805   0.74008   0.00000  Uiso   1.00
H1085  H     0.04957   0.76962   0.54364   0.00000  Uiso   1.00
H1086  H     0.24211   0.82567   0.90852   0.00000  Uiso   1.00
H1087  H     0.24503   0.96256   0.73213   0.00000  Uiso   1.00
H1088  H     0.08813   0.70413   0.76886   0.00000  Uiso   1.00
H1089  H     0.30975   0.78561   0.70009   0.00000  Uiso   1.00
H1090  H     0.02515   0.88262   0.79747   0.00000  Uiso   1.00
H1091  H     0.24505   0.70434   0.73178   0.00000  Uiso   1.00
H1092  H     0.08814   0.96233   0.76885   0.00000  Uiso   1.00
H1093  H     0.03593   0.73737   0.66585   0.00000  Uiso   1.00
H1094  H     0.02757   0.72769   0.72661   0.00000  Uiso   1.00
H1095  H     0.08461   0.71703   0.68037   0.00000  Uiso   1.00
H1096  H     0.29961   0.83684   0.94513   0.00000  Uiso   1.00
H1097  H     0.29991   0.93305   0.82582   0.00000  Uiso   1.00
H1098  H     0.28214   0.88604   0.86187   0.00000  Uiso   1.00
H1099  H     0.23784   0.92429   0.86325   0.00000  Uiso   1.00
H1100  H     0.14676   0.81046   0.61245   0.00000  Uiso   1.00
H1101  H     0.18429   0.84818   0.89161   0.00000  Uiso   1.00
H1102  H     0.29031   0.84721   0.60035   0.00000  Uiso   1.00
H1103  H     0.04701   0.80194   0.89530   0.00000  Uiso   1.00
H1104  H     0.02615   0.77911   0.97603   0.00000  Uiso   1.00
H1105  H     0.31769   0.84597   0.51544   0.00000  Uiso   1.00
H1106  H     0.10762   0.77698   0.58031   0.00000  Uiso   1.00
N1107  N     0.04759   0.83334   0.75001   0.00000  Uiso   1.00
N1108  N     0.28574   0.83332   0.74999   0.00000  Uiso   1.00
O1109  O     0.12846   0.89442   0.75001   0.00000  Uiso   1.00
O1110  O     0.26177   0.88855   0.80405   0.00000  Uiso   1.00
O1111  O     0.20488   0.77225   0.75000   0.00000  Uiso   1.00
O1112  O     0.20490   0.89441   0.75000   0.00000  Uiso   1.00
O1113  O     0.12843   0.77226   0.75000   0.00000  Uiso   1.00
O1114  O     0.10661   0.83334   0.81613   0.00000  Uiso   1.00
O1115  O     0.22672   0.83333   0.68388   0.00000  Uiso   1.00
O1116  O     0.18305   0.83333   0.81612   0.00000  Uiso   1.00
O1117  O     0.15028   0.83334   0.68388   0.00000  Uiso   1.00
O1118  O     0.07102   0.77922   0.69422   0.00000  Uiso   1.00
Zn1119 Zn    0.11562   0.83334   0.75000   0.00000  Uiso   1.00
Zn1120 Zn    0.21771   0.83333   0.75000   0.00000  Uiso   1.00
C1121  C     0.50000   0.91337   0.75015   0.00000  Uiso   1.00
C1122  C     0.45584   0.97863   0.76056   0.00000  Uiso   1.00
C1123  C     0.49992   0.70915   0.75014   0.00000  Uiso   1.00
C1124  C     0.49995   0.95752   0.75037   0.00000  Uiso   1.00
C1125  C     0.65329   0.80621   0.72258   0.00000  Uiso   1.00
C1126  C     0.34692   0.86079   0.77706   0.00000  Uiso   1.00
C1127  C     0.36818   0.80538   0.72304   0.00000  Uiso   1.00
C1128  C     0.63129   0.86077   0.77787   0.00000  Uiso   1.00
C1129  C     0.46960   0.83275   0.83800   0.00000  Uiso   1.00
C1130  C     0.53043   0.83260   0.66203   0.00000  Uiso   1.00
C1131  C     0.45152   0.82554   0.88801   0.00000  Uiso   1.00
C1132  C     0.49996   0.75330   0.75000   0.00000  Uiso   1.00
C1133  C     0.54955   0.82889   0.61151   0.00000  Uiso   1.00
C1134  C     0.39472   0.79335   0.95764   0.00000  Uiso   1.00
C1135  C     0.61382   0.83704   0.53606   0.00000  Uiso   1.00
C1136  C     0.40612   0.80701   0.91208   0.00000  Uiso   1.00
C1137  C     0.59824   0.83799   0.58436   0.00000  Uiso   1.00
C1138  C     0.48459   0.83096   0.90979   0.00000  Uiso   1.00
C1139  C     0.51747   0.81653   0.59044   0.00000  Uiso   1.00
C1140  C     0.47594   0.81397   0.95342   0.00000  Uiso   1.00
C1141  C     0.53224   0.81498   0.54214   0.00000  Uiso   1.00
C1142  C     0.42933   0.79683   0.97857   0.00000  Uiso   1.00
C1143  C     0.45191   0.78830   0.54515   0.00000  Uiso   1.00
C1144  C     0.58091   0.82665   0.51478   0.00000  Uiso   1.00
C1145  C     0.51223   0.81471   0.97288   0.00000  Uiso   1.00
C1146  C     0.49867   0.80567   0.52063   0.00000  Uiso   1.00
C1147  C     0.38653   0.73878   0.69207   0.00000  Uiso   1.00
C1148  C     0.60498   0.90857   0.84013   0.00000  Uiso   1.00
C1149  C     0.56173   0.82366   0.94596   0.00000  Uiso   1.00
C1150  C     0.41818   0.78329   0.52401   0.00000  Uiso   1.00
C1151  C     0.59561   0.82905   0.96668   0.00000  Uiso   1.00
C1152  C     0.54401   0.97875   0.74027   0.00000  Uiso   1.00
C1153  C     0.45582   0.68792   0.76050   0.00000  Uiso   1.00
C1154  C     0.54401   0.68805   0.74008   0.00000  Uiso   1.00
H1155  H     0.38290   0.76962   0.54364   0.00000  Uiso   1.00
H1156  H     0.57544   0.82567   0.90852   0.00000  Uiso   1.00
H1157  H     0.57837   0.96256   0.73213   0.00000  Uiso   1.00
H1158  H     0.42146   0.70413   0.76886   0.00000  Uiso   1.00
H1159  H     0.64308   0.78561   0.70009   0.00000  Uiso   1.00
H1160  H     0.35848   0.88262   0.79747   0.00000  Uiso   1.00
H1161  H     0.57839   0.70434   0.73178   0.00000  Uiso   1.00
H1162  H     0.42147   0.96233   0.76885   0.00000  Uiso   1.00
H1163  H     0.36926   0.73737   0.66585   0.00000  Uiso   1.00
H1164  H     0.36090   0.72769   0.72661   0.00000  Uiso   1.00
H1165  H     0.41794   0.71703   0.68037   0.00000  Uiso   1.00
H1166  H     0.63294   0.83684   0.94513   0.00000  Uiso   1.00
H1167  H     0.63324   0.93305   0.82582   0.00000  Uiso   1.00
H1168  H     0.61547   0.88604   0.86187   0.00000  Uiso   1.00
H1169  H     0.57117   0.92429   0.86325   0.00000  Uiso   1.00
H1170  H     0.48009   0.81046   0.61245   0.00000  Uiso   1.00
H1171  H     0.51762   0.84818   0.89161   0.00000  Uiso   1.00
H1172  H     0.62364   0.84721   0.60035   0.00000  Uiso   1.00
H1173  H     0.38035   0.80194   0.89530   0.00000  Uiso   1.00
H1174  H     0.35948   0.77911   0.97603   0.00000  Uiso   1.00
H1175  H     0.65102   0.84597   0.51544   0.00000  Uiso   1.00
H1176  H     0.44095   0.77698   0.58031   0.00000  Uiso   1.00
N1177  N     0.38093   0.83334   0.75001   0.00000  Uiso   1.00
N1178  N     0.61907   0.83332   0.74999   0.00000  Uiso   1.00
O1179  O     0.46179   0.89442   0.75001   0.00000  Uiso   1.00
O1180  O     0.59510   0.88855   0.80405   0.00000  Uiso   1.00
O1181  O     0.53821   0.77225   0.75000   0.00000  Uiso   1.00
O1182  O     0.53823   0.89441   0.75000   0.00000  Uiso   1.00
O1183  O     0.46177   0.77226   0.75000   0.00000  Uiso   1.00
O1184  O     0.43994   0.83334   0.81613   0.00000  Uiso   1.00
O1185  O     0.56006   0.83333   0.68388   0.00000  Uiso   1.00
O1186  O     0.51639   0.83333   0.81612   0.00000  Uiso   1.00
O1187  O     0.48361   0.83334   0.68388   0.00000  Uiso   1.00
O1188  O     0.40435   0.77922   0.69422   0.00000  Uiso   1.00
Zn1189 Zn    0.44896   0.83334   0.75000   0.00000  Uiso   1.00
Zn1190 Zn    0.55104   0.83333   0.75000   0.00000  Uiso   1.00
C1191  C     0.83333   0.91337   0.75015   0.00000  Uiso   1.00
C1192  C     0.78918   0.97863   0.76056   0.00000  Uiso   1.00
C1193  C     0.83325   0.70915   0.75014   0.00000  Uiso   1.00
C1194  C     0.83329   0.95752   0.75037   0.00000  Uiso   1.00
C1195  C     0.98662   0.80621   0.72258   0.00000  Uiso   1.00
C1196  C     0.68025   0.86079   0.77706   0.00000  Uiso   1.00
C1197  C     0.70151   0.80538   0.72304   0.00000  Uiso   1.00
C1198  C     0.96462   0.86077   0.77787   0.00000  Uiso   1.00
C1199  C     0.80293   0.83275   0.83800   0.00000  Uiso   1.00
C1200  C     0.86377   0.83260   0.66203   0.00000  Uiso   1.00
C1201  C     0.78485   0.82554   0.88801   0.00000  Uiso   1.00
C1202  C     0.83329   0.75330   0.75000   0.00000  Uiso   1.00
C1203  C     0.88288   0.82889   0.61151   0.00000  Uiso   1.00
C1204  C     0.72805   0.79335   0.95764   0.00000  Uiso   1.00
C1205  C     0.94716   0.83704   0.53606   0.00000  Uiso   1.00
C1206  C     0.73946   0.80701   0.91208   0.00000  Uiso   1.00
C1207  C     0.93157   0.83799   0.58436   0.00000  Uiso   1.00
C1208  C     0.81792   0.83096   0.90979   0.00000  Uiso   1.00
C1209  C     0.85080   0.81653   0.59044   0.00000  Uiso   1.00
C1210  C     0.80927   0.81397   0.95342   0.00000  Uiso   1.00
C1211  C     0.86558   0.81498   0.54214   0.00000  Uiso   1.00
C1212  C     0.76266   0.79683   0.97857   0.00000  Uiso   1.00
C1213  C     0.78524   0.78830   0.54515   0.00000  Uiso   1.00
C1214  C     0.91424   0.82665   0.51478   0.00000  Uiso   1.00
C1215  C     0.84556   0.81471   0.97288   0.00000  Uiso   1.00
C1216  C     0.83200   0.80567   0.52063   0.00000  Uiso   1.00
C1217  C     0.71987   0.73878   0.69207   0.00000  Uiso   1.00
C1218  C     0.93832   0.90857   0.84013   0.00000  Uiso   1.00
C1219  C     0.89507   0.82366   0.94596   0.00000  Uiso   1.00
C1220  C     0.75152   0.78329   0.52401   0.00000  Uiso   1.00
C1221  C     0.92894   0.82905   0.96668   0.00000  Uiso   1.00
C1222  C     0.87735   0.97875   0.74027   0.00000  Uiso   1.00
C1223  C     0.78916   0.68792   0.76050   0.00000  Uiso   1.00
C1224  C     0.87734   0.68805   0.74008   0.00000  Uiso   1.00
H1225  H     0.71623   0.76962   0.54364   0.00000  Uiso   1.00
H1226  H     0.90878   0.82567   0.90852   0.00000  Uiso   1.00
H1227  H     0.91170   0.96256   0.73213   0.00000  Uiso   1.00
H1228  H     0.75479   0.70413   0.76886   0.00000  Uiso   1.00
H1229  H     0.97642   0.78561   0.70009   0.00000  Uiso   1.00
H1230  H     0.69182   0.88262   0.79747   0.00000  Uiso   1.00
H1231  H     0.91172   0.70434   0.73178   0.00000  Uiso   1.00
H1232  H     0.75481   0.96233   0.76885   0.00000  Uiso   1.00
H1233  H     0.70260   0.73737   0.66585   0.00000  Uiso   1.00
H1234  H     0.69423   0.72769   0.72661   0.00000  Uiso   1.00
H1235  H     0.75128   0.71703   0.68037   0.00000  Uiso   1.00
H1236  H     0.96628   0.83684   0.94513   0.00000  Uiso   1.00
H1237  H     0.96657   0.93305   0.82582   0.00000  Uiso   1.00
H1238  H     0.94881   0.88604   0.86187   0.00000  Uiso   1.00
H1239  H     0.90450   0.92429   0.86325   0.00000  Uiso   1.00
H1240  H     0.81342   0.81046   0.61245   0.00000  Uiso   1.00
H1241  H     0.85096   0.84818   0.89161   0.00000  Uiso   1.00
H1242  H     0.95697   0.84721   0.60035   0.00000  Uiso   1.00
H1243  H     0.71368   0.80194   0.89530   0.00000  Uiso   1.00
H1244  H     0.69282   0.77911   0.97603   0.00000  Uiso   1.00
H1245  H     0.98435   0.84597   0.51544   0.00000  Uiso   1.00
H1246  H     0.77428   0.77698   0.58031   0.00000  Uiso   1.00
N1247  N     0.71426   0.83334   0.75001   0.00000  Uiso   1.00
N1248  N     0.95241   0.83332   0.74999   0.00000  Uiso   1.00
O1249  O     0.79512   0.89442   0.75001   0.00000  Uiso   1.00
O1250  O     0.92844   0.88855   0.80405   0.00000  Uiso   1.00
O1251  O     0.87154   0.77225   0.75000   0.00000  Uiso   1.00
O1252  O     0.87157   0.89441   0.75000   0.00000  Uiso   1.00
O1253  O     0.79510   0.77226   0.75000   0.00000  Uiso   1.00
O1254  O     0.77328   0.83334   0.81613   0.00000  Uiso   1.00
O1255  O     0.89339   0.83333   0.68388   0.00000  Uiso   1.00
O1256  O     0.84972   0.83333   0.81612   0.00000  Uiso   1.00
O1257  O     0.81695   0.83334   0.68388   0.00000  Uiso   1.00
O1258  O     0.73769   0.77922   0.69422   0.00000  Uiso   1.00
Zn1259 Zn    0.78229   0.83334   0.75000   0.00000  Uiso   1.00
Zn1260 Zn    0.88438   0.83333   0.75000   0.00000  Uiso   1.00
loop_
_geom_bond_atom_site_label_1
_geom_bond_atom_site_label_2
_geom_bond_distance
_geom_bond_site_symmetry_2
_ccdc_geom_bond_type
C1     C4      1.419   .     S
C1     O62     1.284   .     A
C1     O59     1.283   .     A
C2     C4      1.398   .     A
C2     H42     1.084   .     S
C2     C243    1.370   .     S
C3     C33     1.397   .     A
C3     C12     1.419   .     S
C3     C34     1.398   .     A
C4     C32     1.397   .     A
C5     N58     1.363   .     A
C5     H39     1.080   .     S
C5     C77     1.431   .     S
C6     N57     1.363   .     A
C6     H40     1.080   .     S
C6     C148    1.438   1_455 S
C7     O68     1.390   .     S
C7     N57     1.370   .     A
C7     C145    1.431   1_455 S
C8     O60     1.395   .     S
C8     N58     1.372   .     A
C8     C76     1.438   .     S
C9     O64     1.293   .     A
C9     C11     1.458   .     S
C9     O66     1.292   .     A
C10    C13     1.457   .     S
C10    O65     1.292   .     A
C10    O67     1.293   .     A
C11    C18     1.391   .     A
C11    C16     1.400   .     A
C12    O63     1.284   .     A
C12    O61     1.283   .     A
C13    C17     1.399   .     A
C13    C19     1.394   .     A
C14    C22     1.405   .     A
C14    H54     1.083   .     S
C14    C16     1.396   .     A
C15    C24     1.403   .     A
C15    C17     1.392   .     A
C15    H55     1.083   .     S
C16    H53     1.083   .     S
C17    H52     1.083   .     S
C18    H51     1.079   .     S
C18    C20     1.393   .     A
C19    C21     1.395   .     A
C19    H50     1.077   .     S
C20    C25     1.414   .     A
C20    C22     1.416   .     A
C21    C26     1.418   .     A
C21    C24     1.419   .     A
C22    C660    1.393   .     S
C23    H56     1.079   .     S
C23    C30     1.391   .     A
C23    C26     1.419   .     A
C24    C661    1.391   1_554 S
C25    C29     1.416   .     A
C25    C656    1.412   .     S
C26    C655    1.412   1_554 S
C27    O68     1.412   .     S
C27    H45     1.109   .     S
C27    H43     1.111   .     S
C27    H44     1.114   .     S
C28    H49     1.109   .     S
C28    H47     1.111   .     S
C28    O60     1.410   .     S
C28    H48     1.112   .     S
C29    H36     1.079   .     S
C29    C31     1.387   .     A
C30    H35     1.084   .     S
C30    C652    1.393   1_554 S
C31    H46     1.083   .     S
C31    C654    1.391   .     S
C32    H37     1.084   .     S
C32    C244    1.370   .     S
C33    H38     1.083   .     S
C33    C422    1.370   1_545 S
C34    H41     1.084   .     S
C34    C452    1.370   1_545 S
N57    Zn69    2.010   .     S
N58    Zn70    2.010   .     S
O59    Zn69    1.998   .     S
O61    Zn70    1.998   .     S
O62    Zn70    2.000   .     S
O63    Zn69    2.000   .     S
O64    Zn69    1.966   .     S
O65    Zn70    1.966   .     S
O66    Zn70    1.918   .     S
O67    Zn69    1.918   .     S
C71    C74     1.419   .     S
C71    O132    1.284   .     A
C71    O129    1.283   .     A
C72    C74     1.398   .     A
C72    H112    1.084   .     S
C72    C313    1.370   .     S
C73    C103    1.397   .     A
C73    C82     1.419   .     S
C73    C104    1.398   .     A
C74    C102    1.397   .     A
C75    N128    1.363   .     A
C75    H109    1.080   .     S
C75    C147    1.431   .     S
C76    N127    1.363   .     A
C76    H110    1.080   .     S
C77    O138    1.390   .     S
C77    N127    1.370   .     A
C78    O130    1.395   .     S
C78    N128    1.372   .     A
C78    C146    1.438   .     S
C79    O134    1.293   .     A
C79    C81     1.458   .     S
C79    O136    1.292   .     A
C80    C83     1.457   .     S
C80    O135    1.292   .     A
C80    O137    1.293   .     A
C81    C88     1.391   .     A
C81    C86     1.400   .     A
C82    O133    1.284   .     A
C82    O131    1.283   .     A
C83    C87     1.399   .     A
C83    C89     1.394   .     A
C84    C92     1.405   .     A
C84    H124    1.083   .     S
C84    C86     1.396   .     A
C85    C94     1.403   .     A
C85    C87     1.392   .     A
C85    H125    1.083   .     S
C86    H123    1.083   .     S
C87    H122    1.083   .     S
C88    H121    1.079   .     S
C88    C90     1.393   .     A
C89    C91     1.395   .     A
C89    H120    1.077   .     S
C90    C95     1.414   .     A
C90    C92     1.416   .     A
C91    C96     1.418   .     A
C91    C94     1.419   .     A
C92    C730    1.393   .     S
C93    H126    1.079   .     S
C93    C100    1.391   .     A
C93    C96     1.419   .     A
C94    C731    1.391   1_554 S
C95    C99     1.416   .     A
C95    C726    1.412   .     S
C96    C725    1.412   1_554 S
C97    O138    1.412   .     S
C97    H115    1.109   .     S
C97    H113    1.111   .     S
C97    H114    1.114   .     S
C98    H119    1.109   .     S
C98    H117    1.111   .     S
C98    O130    1.410   .     S
C98    H118    1.112   .     S
C99    H106    1.079   .     S
C99    C101    1.387   .     A
C100   H105    1.084   .     S
C100   C722    1.393   1_554 S
C101   H116    1.083   .     S
C101   C724    1.391   .     S
C102   H107    1.084   .     S
C102   C314    1.370   .     S
C103   H108    1.083   .     S
C103   C492    1.370   1_545 S
C104   H111    1.084   .     S
C104   C522    1.370   1_545 S
N127   Zn139   2.010   .     S
N128   Zn140   2.010   .     S
O129   Zn139   1.998   .     S
O131   Zn140   1.998   .     S
O132   Zn140   2.000   .     S
O133   Zn139   2.000   .     S
O134   Zn139   1.966   .     S
O135   Zn140   1.966   .     S
O136   Zn140   1.918   .     S
O137   Zn139   1.918   .     S
C141   C144    1.419   .     S
C141   O202    1.284   .     A
C141   O199    1.283   .     A
C142   C144    1.398   .     A
C142   H182    1.084   .     S
C142   C383    1.370   .     S
C143   C173    1.397   .     A
C143   C152    1.419   .     S
C143   C174    1.398   .     A
C144   C172    1.397   .     A
C145   N198    1.363   .     A
C145   H179    1.080   .     S
C145   C7      1.431   1_655 S
C146   N197    1.363   .     A
C146   H180    1.080   .     S
C147   O208    1.390   .     S
C147   N197    1.370   .     A
C148   O200    1.395   .     S
C148   N198    1.372   .     A
C148   C6      1.438   1_655 S
C149   O204    1.293   .     A
C149   C151    1.458   .     S
C149   O206    1.292   .     A
C150   C153    1.457   .     S
C150   O205    1.292   .     A
C150   O207    1.293   .     A
C151   C158    1.391   .     A
C151   C156    1.400   .     A
C152   O203    1.284   .     A
C152   O201    1.283   .     A
C153   C157    1.399   .     A
C153   C159    1.394   .     A
C154   C162    1.405   .     A
C154   H194    1.083   .     S
C154   C156    1.396   .     A
C155   C164    1.403   .     A
C155   C157    1.392   .     A
C155   H195    1.083   .     S
C156   H193    1.083   .     S
C157   H192    1.083   .     S
C158   H191    1.079   .     S
C158   C160    1.393   .     A
C159   C161    1.395   .     A
C159   H190    1.077   .     S
C160   C165    1.414   .     A
C160   C162    1.416   .     A
C161   C166    1.418   .     A
C161   C164    1.419   .     A
C162   C800    1.393   .     S
C163   H196    1.079   .     S
C163   C170    1.391   .     A
C163   C166    1.419   .     A
C164   C801    1.391   1_554 S
C165   C169    1.416   .     A
C165   C796    1.412   .     S
C166   C795    1.412   1_554 S
C167   O208    1.412   .     S
C167   H185    1.109   .     S
C167   H183    1.111   .     S
C167   H184    1.114   .     S
C168   H189    1.109   .     S
C168   H187    1.111   .     S
C168   O200    1.410   .     S
C168   H188    1.112   .     S
C169   H176    1.079   .     S
C169   C171    1.387   .     A
C170   H175    1.084   .     S
C170   C792    1.393   1_554 S
C171   H186    1.083   .     S
C171   C794    1.391   .     S
C172   H177    1.084   .     S
C172   C384    1.370   .     S
C173   H178    1.083   .     S
C173   C562    1.370   1_545 S
C174   H181    1.084   .     S
C174   C592    1.370   1_545 S
N197   Zn209   2.010   .     S
N198   Zn210   2.010   .     S
O199   Zn209   1.998   .     S
O201   Zn210   1.998   .     S
O202   Zn210   2.000   .     S
O203   Zn209   2.000   .     S
O204   Zn209   1.966   .     S
O205   Zn210   1.966   .     S
O206   Zn210   1.918   .     S
O207   Zn209   1.918   .     S
C211   C214    1.419   .     S
C211   O272    1.284   .     A
C211   O269    1.283   .     A
C212   C214    1.398   .     A
C212   H252    1.084   .     S
C212   C453    1.370   .     S
C213   C243    1.397   .     A
C213   C222    1.419   .     S
C213   C244    1.398   .     A
C214   C242    1.397   .     A
C215   N268    1.363   .     A
C215   H249    1.080   .     S
C215   C287    1.431   .     S
C216   N267    1.363   .     A
C216   H250    1.080   .     S
C216   C358    1.438   1_455 S
C217   O278    1.390   .     S
C217   N267    1.370   .     A
C217   C355    1.431   1_455 S
C218   O270    1.395   .     S
C218   N268    1.372   .     A
C218   C286    1.438   .     S
C219   O274    1.293   .     A
C219   C221    1.458   .     S
C219   O276    1.292   .     A
C220   C223    1.457   .     S
C220   O275    1.292   .     A
C220   O277    1.293   .     A
C221   C228    1.391   .     A
C221   C226    1.400   .     A
C222   O273    1.284   .     A
C222   O271    1.283   .     A
C223   C227    1.399   .     A
C223   C229    1.394   .     A
C224   C232    1.405   .     A
C224   H264    1.083   .     S
C224   C226    1.396   .     A
C225   C234    1.403   .     A
C225   C227    1.392   .     A
C225   H265    1.083   .     S
C226   H263    1.083   .     S
C227   H262    1.083   .     S
C228   H261    1.079   .     S
C228   C230    1.393   .     A
C229   C231    1.395   .     A
C229   H260    1.077   .     S
C230   C235    1.414   .     A
C230   C232    1.416   .     A
C231   C236    1.418   .     A
C231   C234    1.419   .     A
C232   C870    1.393   .     S
C233   H266    1.079   .     S
C233   C240    1.391   .     A
C233   C236    1.419   .     A
C234   C871    1.391   1_554 S
C235   C239    1.416   .     A
C235   C866    1.412   .     S
C236   C865    1.412   1_554 S
C237   O278    1.412   .     S
C237   H255    1.109   .     S
C237   H253    1.111   .     S
C237   H254    1.114   .     S
C238   H259    1.109   .     S
C238   H257    1.111   .     S
C238   O270    1.410   .     S
C238   H258    1.112   .     S
C239   H246    1.079   .     S
C239   C241    1.387   .     A
C240   H245    1.084   .     S
C240   C862    1.393   1_554 S
C241   H256    1.083   .     S
C241   C864    1.391   .     S
C242   H247    1.084   .     S
C242   C454    1.370   .     S
C243   H248    1.083   .     S
C244   H251    1.084   .     S
N267   Zn279   2.010   .     S
N268   Zn280   2.010   .     S
O269   Zn279   1.998   .     S
O271   Zn280   1.998   .     S
O272   Zn280   2.000   .     S
O273   Zn279   2.000   .     S
O274   Zn279   1.966   .     S
O275   Zn280   1.966   .     S
O276   Zn280   1.918   .     S
O277   Zn279   1.918   .     S
C281   C284    1.419   .     S
C281   O342    1.284   .     A
C281   O339    1.283   .     A
C282   C284    1.398   .     A
C282   H322    1.084   .     S
C282   C523    1.370   .     S
C283   C313    1.397   .     A
C283   C292    1.419   .     S
C283   C314    1.398   .     A
C284   C312    1.397   .     A
C285   N338    1.363   .     A
C285   H319    1.080   .     S
C285   C357    1.431   .     S
C286   N337    1.363   .     A
C286   H320    1.080   .     S
C287   O348    1.390   .     S
C287   N337    1.370   .     A
C288   O340    1.395   .     S
C288   N338    1.372   .     A
C288   C356    1.438   .     S
C289   O344    1.293   .     A
C289   C291    1.458   .     S
C289   O346    1.292   .     A
C290   C293    1.457   .     S
C290   O345    1.292   .     A
C290   O347    1.293   .     A
C291   C298    1.391   .     A
C291   C296    1.400   .     A
C292   O343    1.284   .     A
C292   O341    1.283   .     A
C293   C297    1.399   .     A
C293   C299    1.394   .     A
C294   C302    1.405   .     A
C294   H334    1.083   .     S
C294   C296    1.396   .     A
C295   C304    1.403   .     A
C295   C297    1.392   .     A
C295   H335    1.083   .     S
C296   H333    1.083   .     S
C297   H332    1.083   .     S
C298   H331    1.079   .     S
C298   C300    1.393   .     A
C299   C301    1.395   .     A
C299   H330    1.077   .     S
C300   C305    1.414   .     A
C300   C302    1.416   .     A
C301   C306    1.418   .     A
C301   C304    1.419   .     A
C302   C940    1.393   .     S
C303   H336    1.079   .     S
C303   C310    1.391   .     A
C303   C306    1.419   .     A
C304   C941    1.391   1_554 S
C305   C309    1.416   .     A
C305   C936    1.412   .     S
C306   C935    1.412   1_554 S
C307   O348    1.412   .     S
C307   H325    1.109   .     S
C307   H323    1.111   .     S
C307   H324    1.114   .     S
C308   H329    1.109   .     S
C308   H327    1.111   .     S
C308   O340    1.410   .     S
C308   H328    1.112   .     S
C309   H316    1.079   .     S
C309   C311    1.387   .     A
C310   H315    1.084   .     S
C310   C932    1.393   1_554 S
C311   H326    1.083   .     S
C311   C934    1.391   .     S
C312   H317    1.084   .     S
C312   C524    1.370   .     S
C313   H318    1.083   .     S
C314   H321    1.084   .     S
N337   Zn349   2.010   .     S
N338   Zn350   2.010   .     S
O339   Zn349   1.998   .     S
O341   Zn350   1.998   .     S
O342   Zn350   2.000   .     S
O343   Zn349   2.000   .     S
O344   Zn349   1.966   .     S
O345   Zn350   1.966   .     S
O346   Zn350   1.918   .     S
O347   Zn349   1.918   .     S
C351   C354    1.419   .     S
C351   O412    1.284   .     A
C351   O409    1.283   .     A
C352   C354    1.398   .     A
C352   H392    1.084   .     S
C352   C593    1.370   .     S
C353   C383    1.397   .     A
C353   C362    1.419   .     S
C353   C384    1.398   .     A
C354   C382    1.397   .     A
C355   N408    1.363   .     A
C355   H389    1.080   .     S
C355   C217    1.431   1_655 S
C356   N407    1.363   .     A
C356   H390    1.080   .     S
C357   O418    1.390   .     S
C357   N407    1.370   .     A
C358   O410    1.395   .     S
C358   N408    1.372   .     A
C358   C216    1.438   1_655 S
C359   O414    1.293   .     A
C359   C361    1.458   .     S
C359   O416    1.292   .     A
C360   C363    1.457   .     S
C360   O415    1.292   .     A
C360   O417    1.293   .     A
C361   C368    1.391   .     A
C361   C366    1.400   .     A
C362   O413    1.284   .     A
C362   O411    1.283   .     A
C363   C367    1.399   .     A
C363   C369    1.394   .     A
C364   C372    1.405   .     A
C364   H404    1.083   .     S
C364   C366    1.396   .     A
C365   C374    1.403   .     A
C365   C367    1.392   .     A
C365   H405    1.083   .     S
C366   H403    1.083   .     S
C367   H402    1.083   .     S
C368   H401    1.079   .     S
C368   C370    1.393   .     A
C369   C371    1.395   .     A
C369   H400    1.077   .     S
C370   C375    1.414   .     A
C370   C372    1.416   .     A
C371   C376    1.418   .     A
C371   C374    1.419   .     A
C372   C1010   1.393   .     S
C373   H406    1.079   .     S
C373   C380    1.391   .     A
C373   C376    1.419   .     A
C374   C1011   1.391   1_554 S
C375   C379    1.416   .     A
C375   C1006   1.412   .     S
C376   C1005   1.412   1_554 S
C377   O418    1.412   .     S
C377   H395    1.109   .     S
C377   H393    1.111   .     S
C377   H394    1.114   .     S
C378   H399    1.109   .     S
C378   H397    1.111   .     S
C378   O410    1.410   .     S
C378   H398    1.112   .     S
C379   H386    1.079   .     S
C379   C381    1.387   .     A
C380   H385    1.084   .     S
C380   C1002   1.393   1_554 S
C381   H396    1.083   .     S
C381   C1004   1.391   .     S
C382   H387    1.084   .     S
C382   C594    1.370   .     S
C383   H388    1.083   .     S
C384   H391    1.084   .     S
N407   Zn419   2.010   .     S
N408   Zn420   2.010   .     S
O409   Zn419   1.998   .     S
O411   Zn420   1.998   .     S
O412   Zn420   2.000   .     S
O413   Zn419   2.000   .     S
O414   Zn419   1.966   .     S
O415   Zn420   1.966   .     S
O416   Zn420   1.918   .     S
O417   Zn419   1.918   .     S
C421   C424    1.419   .     S
C421   O482    1.284   .     A
C421   O479    1.283   .     A
C422   C424    1.398   .     A
C422   H462    1.084   .     S
C422   C33     1.370   1_565 S
C423   C453    1.397   .     A
C423   C432    1.419   .     S
C423   C454    1.398   .     A
C424   C452    1.397   .     A
C425   N478    1.363   .     A
C425   H459    1.080   .     S
C425   C497    1.431   .     S
C426   N477    1.363   .     A
C426   H460    1.080   .     S
C426   C568    1.438   1_455 S
C427   O488    1.390   .     S
C427   N477    1.370   .     A
C427   C565    1.431   1_455 S
C428   O480    1.395   .     S
C428   N478    1.372   .     A
C428   C496    1.438   .     S
C429   O484    1.293   .     A
C429   C431    1.458   .     S
C429   O486    1.292   .     A
C430   C433    1.457   .     S
C430   O485    1.292   .     A
C430   O487    1.293   .     A
C431   C438    1.391   .     A
C431   C436    1.400   .     A
C432   O483    1.284   .     A
C432   O481    1.283   .     A
C433   C437    1.399   .     A
C433   C439    1.394   .     A
C434   C442    1.405   .     A
C434   H474    1.083   .     S
C434   C436    1.396   .     A
C435   C444    1.403   .     A
C435   C437    1.392   .     A
C435   H475    1.083   .     S
C436   H473    1.083   .     S
C437   H472    1.083   .     S
C438   H471    1.079   .     S
C438   C440    1.393   .     A
C439   C441    1.395   .     A
C439   H470    1.077   .     S
C440   C445    1.414   .     A
C440   C442    1.416   .     A
C441   C446    1.418   .     A
C441   C444    1.419   .     A
C442   C1080   1.393   .     S
C443   H476    1.079   .     S
C443   C450    1.391   .     A
C443   C446    1.419   .     A
C444   C1081   1.391   1_554 S
C445   C449    1.416   .     A
C445   C1076   1.412   .     S
C446   C1075   1.412   1_554 S
C447   O488    1.412   .     S
C447   H465    1.109   .     S
C447   H463    1.111   .     S
C447   H464    1.114   .     S
C448   H469    1.109   .     S
C448   H467    1.111   .     S
C448   O480    1.410   .     S
C448   H468    1.112   .     S
C449   H456    1.079   .     S
C449   C451    1.387   .     A
C450   H455    1.084   .     S
C450   C1072   1.393   1_554 S
C451   H466    1.083   .     S
C451   C1074   1.391   .     S
C452   H457    1.084   .     S
C452   C34     1.370   1_565 S
C453   H458    1.083   .     S
C454   H461    1.084   .     S
N477   Zn489   2.010   .     S
N478   Zn490   2.010   .     S
O479   Zn489   1.998   .     S
O481   Zn490   1.998   .     S
O482   Zn490   2.000   .     S
O483   Zn489   2.000   .     S
O484   Zn489   1.966   .     S
O485   Zn490   1.966   .     S
O486   Zn490   1.918   .     S
O487   Zn489   1.918   .     S
C491   C494    1.419   .     S
C491   O552    1.284   .     A
C491   O549    1.283   .     A
C492   C494    1.398   .     A
C492   H532    1.084   .     S
C492   C103    1.370   1_565 S
C493   C523    1.397   .     A
C493   C502    1.419   .     S
C493   C524    1.398   .     A
C494   C522    1.397   .     A
C495   N548    1.363   .     A
C495   H529    1.080   .     S
C495   C567    1.431   .     S
C496   N547    1.363   .     A
C496   H530    1.080   .     S
C497   O558    1.390   .     S
C497   N547    1.370   .     A
C498   O550    1.395   .     S
C498   N548    1.372   .     A
C498   C566    1.438   .     S
C499   O554    1.293   .     A
C499   C501    1.458   .     S
C499   O556    1.292   .     A
C500   C503    1.457   .     S
C500   O555    1.292   .     A
C500   O557    1.293   .     A
C501   C508    1.391   .     A
C501   C506    1.400   .     A
C502   O553    1.284   .     A
C502   O551    1.283   .     A
C503   C507    1.399   .     A
C503   C509    1.394   .     A
C504   C512    1.405   .     A
C504   H544    1.083   .     S
C504   C506    1.396   .     A
C505   C514    1.403   .     A
C505   C507    1.392   .     A
C505   H545    1.083   .     S
C506   H543    1.083   .     S
C507   H542    1.083   .     S
C508   H541    1.079   .     S
C508   C510    1.393   .     A
C509   C511    1.395   .     A
C509   H540    1.077   .     S
C510   C515    1.414   .     A
C510   C512    1.416   .     A
C511   C516    1.418   .     A
C511   C514    1.419   .     A
C512   C1150   1.393   .     S
C513   H546    1.079   .     S
C513   C520    1.391   .     A
C513   C516    1.419   .     A
C514   C1151   1.391   1_554 S
C515   C519    1.416   .     A
C515   C1146   1.412   .     S
C516   C1145   1.412   1_554 S
C517   O558    1.412   .     S
C517   H535    1.109   .     S
C517   H533    1.111   .     S
C517   H534    1.114   .     S
C518   H539    1.109   .     S
C518   H537    1.111   .     S
C518   O550    1.410   .     S
C518   H538    1.112   .     S
C519   H526    1.079   .     S
C519   C521    1.387   .     A
C520   H525    1.084   .     S
C520   C1142   1.393   1_554 S
C521   H536    1.083   .     S
C521   C1144   1.391   .     S
C522   H527    1.084   .     S
C522   C104    1.370   1_565 S
C523   H528    1.083   .     S
C524   H531    1.084   .     S
N547   Zn559   2.010   .     S
N548   Zn560   2.010   .     S
O549   Zn559   1.998   .     S
O551   Zn560   1.998   .     S
O552   Zn560   2.000   .     S
O553   Zn559   2.000   .     S
O554   Zn559   1.966   .     S
O555   Zn560   1.966   .     S
O556   Zn560   1.918   .     S
O557   Zn559   1.918   .     S
C561   C564    1.419   .     S
C561   O622    1.284   .     A
C561   O619    1.283   .     A
C562   C564    1.398   .     A
C562   H602    1.084   .     S
C562   C173    1.370   1_565 S
C563   C593    1.397   .     A
C563   C572    1.419   .     S
C563   C594    1.398   .     A
C564   C592    1.397   .     A
C565   N618    1.363   .     A
C565   H599    1.080   .     S
C565   C427    1.431   1_655 S
C566   N617    1.363   .     A
C566   H600    1.080   .     S
C567   O628    1.390   .     S
C567   N617    1.370   .     A
C568   O620    1.395   .     S
C568   N618    1.372   .     A
C568   C426    1.438   1_655 S
C569   O624    1.293   .     A
C569   C571    1.458   .     S
C569   O626    1.292   .     A
C570   C573    1.457   .     S
C570   O625    1.292   .     A
C570   O627    1.293   .     A
C571   C578    1.391   .     A
C571   C576    1.400   .     A
C572   O623    1.284   .     A
C572   O621    1.283   .     A
C573   C577    1.399   .     A
C573   C579    1.394   .     A
C574   C582    1.405   .     A
C574   H614    1.083   .     S
C574   C576    1.396   .     A
C575   C584    1.403   .     A
C575   C577    1.392   .     A
C575   H615    1.083   .     S
C576   H613    1.083   .     S
C577   H612    1.083   .     S
C578   H611    1.079   .     S
C578   C580    1.393   .     A
C579   C581    1.395   .     A
C579   H610    1.077   .     S
C580   C585    1.414   .     A
C580   C582    1.416   .     A
C581   C586    1.418   .     A
C581   C584    1.419   .     A
C582   C1220   1.393   .     S
C583   H616    1.079   .     S
C583   C590    1.391   .     A
C583   C586    1.419   .     A
C584   C1221   1.391   1_554 S
C585   C589    1.416   .     A
C585   C1216   1.412   .     S
C586   C1215   1.412   1_554 S
C587   O628    1.412   .     S
C587   H605    1.109   .     S
C587   H603    1.111   .     S
C587   H604    1.114   .     S
C588   H609    1.109   .     S
C588   H607    1.111   .     S
C588   O620    1.410   .     S
C588   H608    1.112   .     S
C589   H596    1.079   .     S
C589   C591    1.387   .     A
C590   H595    1.084   .     S
C590   C1212   1.393   1_554 S
C591   H606    1.083   .     S
C591   C1214   1.391   .     S
C592   H597    1.084   .     S
C592   C174    1.370   1_565 S
C593   H598    1.083   .     S
C594   H601    1.084   .     S
N617   Zn629   2.010   .     S
N618   Zn630   2.010   .     S
O619   Zn629   1.998   .     S
O621   Zn630   1.998   .     S
O622   Zn630   2.000   .     S
O623   Zn629   2.000   .     S
O624   Zn629   1.966   .     S
O625   Zn630   1.966   .     S
O626   Zn630   1.918   .     S
O627   Zn629   1.918   .     S
C631   C634    1.419   .     S
C631   O692    1.284   .     A
C631   O689    1.283   .     A
C632   C634    1.398   .     A
C632   H672    1.084   .     S
C632   C873    1.370   .     S
C633   C663    1.397   .     A
C633   C642    1.419   .     S
C633   C664    1.398   .     A
C634   C662    1.397   .     A
C635   N688    1.363   .     A
C635   H669    1.080   .     S
C635   C707    1.431   .     S
C636   N687    1.363   .     A
C636   H670    1.080   .     S
C636   C778    1.438   1_455 S
C637   O698    1.390   .     S
C637   N687    1.370   .     A
C637   C775    1.431   1_455 S
C638   O690    1.395   .     S
C638   N688    1.372   .     A
C638   C706    1.438   .     S
C639   O694    1.293   .     A
C639   C641    1.458   .     S
C639   O696    1.292   .     A
C640   C643    1.457   .     S
C640   O695    1.292   .     A
C640   O697    1.293   .     A
C641   C648    1.391   .     A
C641   C646    1.400   .     A
C642   O693    1.284   .     A
C642   O691    1.283   .     A
C643   C647    1.399   .     A
C643   C649    1.394   .     A
C644   C652    1.405   .     A
C644   H684    1.083   .     S
C644   C646    1.396   .     A
C645   C654    1.403   .     A
C645   C647    1.392   .     A
C645   H685    1.083   .     S
C646   H683    1.083   .     S
C647   H682    1.083   .     S
C648   H681    1.079   .     S
C648   C650    1.393   .     A
C649   C651    1.395   .     A
C649   H680    1.077   .     S
C650   C655    1.414   .     A
C650   C652    1.416   .     A
C651   C656    1.418   .     A
C651   C654    1.419   .     A
C652   C30     1.393   1_556 S
C653   H686    1.079   .     S
C653   C660    1.391   .     A
C653   C656    1.419   .     A
C655   C659    1.416   .     A
C655   C26     1.412   1_556 S
C657   O698    1.412   .     S
C657   H675    1.109   .     S
C657   H673    1.111   .     S
C657   H674    1.114   .     S
C658   H679    1.109   .     S
C658   H677    1.111   .     S
C658   O690    1.410   .     S
C658   H678    1.112   .     S
C659   H666    1.079   .     S
C659   C661    1.387   .     A
C660   H665    1.084   .     S
C661   H676    1.083   .     S
C661   C24     1.391   1_556 S
C662   H667    1.084   .     S
C662   C874    1.370   .     S
C663   H668    1.083   .     S
C663   C1052   1.370   1_545 S
C664   H671    1.084   .     S
C664   C1082   1.370   1_545 S
N687   Zn699   2.010   .     S
N688   Zn700   2.010   .     S
O689   Zn699   1.998   .     S
O691   Zn700   1.998   .     S
O692   Zn700   2.000   .     S
O693   Zn699   2.000   .     S
O694   Zn699   1.966   .     S
O695   Zn700   1.966   .     S
O696   Zn700   1.918   .     S
O697   Zn699   1.918   .     S
C701   C704    1.419   .     S
C701   O762    1.284   .     A
C701   O759    1.283   .     A
C702   C704    1.398   .     A
C702   H742    1.084   .     S
C702   C943    1.370   .     S
C703   C733    1.397   .     A
C703   C712    1.419   .     S
C703   C734    1.398   .     A
C704   C732    1.397   .     A
C705   N758    1.363   .     A
C705   H739    1.080   .     S
C705   C777    1.431   .     S
C706   N757    1.363   .     A
C706   H740    1.080   .     S
C707   O768    1.390   .     S
C707   N757    1.370   .     A
C708   O760    1.395   .     S
C708   N758    1.372   .     A
C708   C776    1.438   .     S
C709   O764    1.293   .     A
C709   C711    1.458   .     S
C709   O766    1.292   .     A
C710   C713    1.457   .     S
C710   O765    1.292   .     A
C710   O767    1.293   .     A
C711   C718    1.391   .     A
C711   C716    1.400   .     A
C712   O763    1.284   .     A
C712   O761    1.283   .     A
C713   C717    1.399   .     A
C713   C719    1.394   .     A
C714   C722    1.405   .     A
C714   H754    1.083   .     S
C714   C716    1.396   .     A
C715   C724    1.403   .     A
C715   C717    1.392   .     A
C715   H755    1.083   .     S
C716   H753    1.083   .     S
C717   H752    1.083   .     S
C718   H751    1.079   .     S
C718   C720    1.393   .     A
C719   C721    1.395   .     A
C719   H750    1.077   .     S
C720   C725    1.414   .     A
C720   C722    1.416   .     A
C721   C726    1.418   .     A
C721   C724    1.419   .     A
C722   C100    1.393   1_556 S
C723   H756    1.079   .     S
C723   C730    1.391   .     A
C723   C726    1.419   .     A
C725   C729    1.416   .     A
C725   C96     1.412   1_556 S
C727   O768    1.412   .     S
C727   H745    1.109   .     S
C727   H743    1.111   .     S
C727   H744    1.114   .     S
C728   H749    1.109   .     S
C728   H747    1.111   .     S
C728   O760    1.410   .     S
C728   H748    1.112   .     S
C729   H736    1.079   .     S
C729   C731    1.387   .     A
C730   H735    1.084   .     S
C731   H746    1.083   .     S
C731   C94     1.391   1_556 S
C732   H737    1.084   .     S
C732   C944    1.370   .     S
C733   H738    1.083   .     S
C733   C1122   1.370   1_545 S
C734   H741    1.084   .     S
C734   C1152   1.370   1_545 S
N757   Zn769   2.010   .     S
N758   Zn770   2.010   .     S
O759   Zn769   1.998   .     S
O761   Zn770   1.998   .     S
O762   Zn770   2.000   .     S
O763   Zn769   2.000   .     S
O764   Zn769   1.966   .     S
O765   Zn770   1.966   .     S
O766   Zn770   1.918   .     S
O767   Zn769   1.918   .     S
C771   C774    1.419   .     S
C771   O832    1.284   .     A
C771   O829    1.283   .     A
C772   C774    1.398   .     A
C772   H812    1.084   .     S
C772   C1013   1.370   .     S
C773   C803    1.397   .     A
C773   C782    1.419   .     S
C773   C804    1.398   .     A
C774   C802    1.397   .     A
C775   N828    1.363   .     A
C775   H809    1.080   .     S
C775   C637    1.431   1_655 S
C776   N827    1.363   .     A
C776   H810    1.080   .     S
C777   O838    1.390   .     S
C777   N827    1.370   .     A
C778   O830    1.395   .     S
C778   N828    1.372   .     A
C778   C636    1.438   1_655 S
C779   O834    1.293   .     A
C779   C781    1.458   .     S
C779   O836    1.292   .     A
C780   C783    1.457   .     S
C780   O835    1.292   .     A
C780   O837    1.293   .     A
C781   C788    1.391   .     A
C781   C786    1.400   .     A
C782   O833    1.284   .     A
C782   O831    1.283   .     A
C783   C787    1.399   .     A
C783   C789    1.394   .     A
C784   C792    1.405   .     A
C784   H824    1.083   .     S
C784   C786    1.396   .     A
C785   C794    1.403   .     A
C785   C787    1.392   .     A
C785   H825    1.083   .     S
C786   H823    1.083   .     S
C787   H822    1.083   .     S
C788   H821    1.079   .     S
C788   C790    1.393   .     A
C789   C791    1.395   .     A
C789   H820    1.077   .     S
C790   C795    1.414   .     A
C790   C792    1.416   .     A
C791   C796    1.418   .     A
C791   C794    1.419   .     A
C792   C170    1.393   1_556 S
C793   H826    1.079   .     S
C793   C800    1.391   .     A
C793   C796    1.419   .     A
C795   C799    1.416   .     A
C795   C166    1.412   1_556 S
C797   O838    1.412   .     S
C797   H815    1.109   .     S
C797   H813    1.111   .     S
C797   H814    1.114   .     S
C798   H819    1.109   .     S
C798   H817    1.111   .     S
C798   O830    1.410   .     S
C798   H818    1.112   .     S
C799   H806    1.079   .     S
C799   C801    1.387   .     A
C800   H805    1.084   .     S
C801   H816    1.083   .     S
C801   C164    1.391   1_556 S
C802   H807    1.084   .     S
C802   C1014   1.370   .     S
C803   H808    1.083   .     S
C803   C1192   1.370   1_545 S
C804   H811    1.084   .     S
C804   C1222   1.370   1_545 S
N827   Zn839   2.010   .     S
N828   Zn840   2.010   .     S
O829   Zn839   1.998   .     S
O831   Zn840   1.998   .     S
O832   Zn840   2.000   .     S
O833   Zn839   2.000   .     S
O834   Zn839   1.966   .     S
O835   Zn840   1.966   .     S
O836   Zn840   1.918   .     S
O837   Zn839   1.918   .     S
C841   C844    1.419   .     S
C841   O902    1.284   .     A
C841   O899    1.283   .     A
C842   C844    1.398   .     A
C842   H882    1.084   .     S
C842   C1083   1.370   .     S
C843   C873    1.397   .     A
C843   C852    1.419   .     S
C843   C874    1.398   .     A
C844   C872    1.397   .     A
C845   N898    1.363   .     A
C845   H879    1.080   .     S
C845   C917    1.431   .     S
C846   N897    1.363   .     A
C846   H880    1.080   .     S
C846   C988    1.438   1_455 S
C847   O908    1.390   .     S
C847   N897    1.370   .     A
C847   C985    1.431   1_455 S
C848   O900    1.395   .     S
C848   N898    1.372   .     A
C848   C916    1.438   .     S
C849   O904    1.293   .     A
C849   C851    1.458   .     S
C849   O906    1.292   .     A
C850   C853    1.457   .     S
C850   O905    1.292   .     A
C850   O907    1.293   .     A
C851   C858    1.391   .     A
C851   C856    1.400   .     A
C852   O903    1.284   .     A
C852   O901    1.283   .     A
C853   C857    1.399   .     A
C853   C859    1.394   .     A
C854   C862    1.405   .     A
C854   H894    1.083   .     S
C854   C856    1.396   .     A
C855   C864    1.403   .     A
C855   C857    1.392   .     A
C855   H895    1.083   .     S
C856   H893    1.083   .     S
C857   H892    1.083   .     S
C858   H891    1.079   .     S
C858   C860    1.393   .     A
C859   C861    1.395   .     A
C859   H890    1.077   .     S
C860   C865    1.414   .     A
C860   C862    1.416   .     A
C861   C866    1.418   .     A
C861   C864    1.419   .     A
C862   C240    1.393   1_556 S
C863   H896    1.079   .     S
C863   C870    1.391   .     A
C863   C866    1.419   .     A
C865   C869    1.416   .     A
C865   C236    1.412   1_556 S
C867   O908    1.412   .     S
C867   H885    1.109   .     S
C867   H883    1.111   .     S
C867   H884    1.114   .     S
C868   H889    1.109   .     S
C868   H887    1.111   .     S
C868   O900    1.410   .     S
C868   H888    1.112   .     S
C869   H876    1.079   .     S
C869   C871    1.387   .     A
C870   H875    1.084   .     S
C871   H886    1.083   .     S
C871   C234    1.391   1_556 S
C872   H877    1.084   .     S
C872   C1084   1.370   .     S
C873   H878    1.083   .     S
C874   H881    1.084   .     S
N897   Zn909   2.010   .     S
N898   Zn910   2.010   .     S
O899   Zn909   1.998   .     S
O901   Zn910   1.998   .     S
O902   Zn910   2.000   .     S
O903   Zn909   2.000   .     S
O904   Zn909   1.966   .     S
O905   Zn910   1.966   .     S
O906   Zn910   1.918   .     S
O907   Zn909   1.918   .     S
C911   C914    1.419   .     S
C911   O972    1.284   .     A
C911   O969    1.283   .     A
C912   C914    1.398   .     A
C912   H952    1.084   .     S
C912   C1153   1.370   .     S
C913   C943    1.397   .     A
C913   C922    1.419   .     S
C913   C944    1.398   .     A
C914   C942    1.397   .     A
C915   N968    1.363   .     A
C915   H949    1.080   .     S
C915   C987    1.431   .     S
C916   N967    1.363   .     A
C916   H950    1.080   .     S
C917   O978    1.390   .     S
C917   N967    1.370   .     A
C918   O970    1.395   .     S
C918   N968    1.372   .     A
C918   C986    1.438   .     S
C919   O974    1.293   .     A
C919   C921    1.458   .     S
C919   O976    1.292   .     A
C920   C923    1.457   .     S
C920   O975    1.292   .     A
C920   O977    1.293   .     A
C921   C928    1.391   .     A
C921   C926    1.400   .     A
C922   O973    1.284   .     A
C922   O971    1.283   .     A
C923   C927    1.399   .     A
C923   C929    1.394   .     A
C924   C932    1.405   .     A
C924   H964    1.083   .     S
C924   C926    1.396   .     A
C925   C934    1.403   .     A
C925   C927    1.392   .     A
C925   H965    1.083   .     S
C926   H963    1.083   .     S
C927   H962    1.083   .     S
C928   H961    1.079   .     S
C928   C930    1.393   .     A
C929   C931    1.395   .     A
C929   H960    1.077   .     S
C930   C935    1.414   .     A
C930   C932    1.416   .     A
C931   C936    1.418   .     A
C931   C934    1.419   .     A
C932   C310    1.393   1_556 S
C933   H966    1.079   .     S
C933   C940    1.391   .     A
C933   C936    1.419   .     A
C935   C939    1.416   .     A
C935   C306    1.412   1_556 S
C937   O978    1.412   .     S
C937   H955    1.109   .     S
C937   H953    1.111   .     S
C937   H954    1.114   .     S
C938   H959    1.109   .     S
C938   H957    1.111   .     S
C938   O970    1.410   .     S
C938   H958    1.112   .     S
C939   H946    1.079   .     S
C939   C941    1.387   .     A
C940   H945    1.084   .     S
C941   H956    1.083   .     S
C941   C304    1.391   1_556 S
C942   H947    1.084   .     S
C942   C1154   1.370   .     S
C943   H948    1.083   .     S
C944   H951    1.084   .     S
N967   Zn979   2.010   .     S
N968   Zn980   2.010   .     S
O969   Zn979   1.998   .     S
O971   Zn980   1.998   .     S
O972   Zn980   2.000   .     S
O973   Zn979   2.000   .     S
O974   Zn979   1.966   .     S
O975   Zn980   1.966   .     S
O976   Zn980   1.918   .     S
O977   Zn979   1.918   .     S
C981   C984    1.419   .     S
C981   O1042   1.284   .     A
C981   O1039   1.283   .     A
C982   C984    1.398   .     A
C982   H1022   1.084   .     S
C982   C1223   1.370   .     S
C983   C1013   1.397   .     A
C983   C992    1.419   .     S
C983   C1014   1.398   .     A
C984   C1012   1.397   .     A
C985   N1038   1.363   .     A
C985   H1019   1.080   .     S
C985   C847    1.431   1_655 S
C986   N1037   1.363   .     A
C986   H1020   1.080   .     S
C987   O1048   1.390   .     S
C987   N1037   1.370   .     A
C988   O1040   1.395   .     S
C988   N1038   1.372   .     A
C988   C846    1.438   1_655 S
C989   O1044   1.293   .     A
C989   C991    1.458   .     S
C989   O1046   1.292   .     A
C990   C993    1.457   .     S
C990   O1045   1.292   .     A
C990   O1047   1.293   .     A
C991   C998    1.391   .     A
C991   C996    1.400   .     A
C992   O1043   1.284   .     A
C992   O1041   1.283   .     A
C993   C997    1.399   .     A
C993   C999    1.394   .     A
C994   C1002   1.405   .     A
C994   H1034   1.083   .     S
C994   C996    1.396   .     A
C995   C1004   1.403   .     A
C995   C997    1.392   .     A
C995   H1035   1.083   .     S
C996   H1033   1.083   .     S
C997   H1032   1.083   .     S
C998   H1031   1.079   .     S
C998   C1000   1.393   .     A
C999   C1001   1.395   .     A
C999   H1030   1.077   .     S
C1000  C1005   1.414   .     A
C1000  C1002   1.416   .     A
C1001  C1006   1.418   .     A
C1001  C1004   1.419   .     A
C1002  C380    1.393   1_556 S
C1003  H1036   1.079   .     S
C1003  C1010   1.391   .     A
C1003  C1006   1.419   .     A
C1005  C1009   1.416   .     A
C1005  C376    1.412   1_556 S
C1007  O1048   1.412   .     S
C1007  H1025   1.109   .     S
C1007  H1023   1.111   .     S
C1007  H1024   1.114   .     S
C1008  H1029   1.109   .     S
C1008  H1027   1.111   .     S
C1008  O1040   1.410   .     S
C1008  H1028   1.112   .     S
C1009  H1016   1.079   .     S
C1009  C1011   1.387   .     A
C1010  H1015   1.084   .     S
C1011  H1026   1.083   .     S
C1011  C374    1.391   1_556 S
C1012  H1017   1.084   .     S
C1012  C1224   1.370   .     S
C1013  H1018   1.083   .     S
C1014  H1021   1.084   .     S
N1037  Zn1049  2.010   .     S
N1038  Zn1050  2.010   .     S
O1039  Zn1049  1.998   .     S
O1041  Zn1050  1.998   .     S
O1042  Zn1050  2.000   .     S
O1043  Zn1049  2.000   .     S
O1044  Zn1049  1.966   .     S
O1045  Zn1050  1.966   .     S
O1046  Zn1050  1.918   .     S
O1047  Zn1049  1.918   .     S
C1051  C1054   1.419   .     S
C1051  O1112   1.284   .     A
C1051  O1109   1.283   .     A
C1052  C1054   1.398   .     A
C1052  H1092   1.084   .     S
C1052  C663    1.370   1_565 S
C1053  C1083   1.397   .     A
C1053  C1062   1.419   .     S
C1053  C1084   1.398   .     A
C1054  C1082   1.397   .     A
C1055  N1108   1.363   .     A
C1055  H1089   1.080   .     S
C1055  C1127   1.431   .     S
C1056  N1107   1.363   .     A
C1056  H1090   1.080   .     S
C1056  C1198   1.438   1_455 S
C1057  O1118   1.390   .     S
C1057  N1107   1.370   .     A
C1057  C1195   1.431   1_455 S
C1058  O1110   1.395   .     S
C1058  N1108   1.372   .     A
C1058  C1126   1.438   .     S
C1059  O1114   1.293   .     A
C1059  C1061   1.458   .     S
C1059  O1116   1.292   .     A
C1060  C1063   1.457   .     S
C1060  O1115   1.292   .     A
C1060  O1117   1.293   .     A
C1061  C1068   1.391   .     A
C1061  C1066   1.400   .     A
C1062  O1113   1.284   .     A
C1062  O1111   1.283   .     A
C1063  C1067   1.399   .     A
C1063  C1069   1.394   .     A
C1064  C1072   1.405   .     A
C1064  H1104   1.083   .     S
C1064  C1066   1.396   .     A
C1065  C1074   1.403   .     A
C1065  C1067   1.392   .     A
C1065  H1105   1.083   .     S
C1066  H1103   1.083   .     S
C1067  H1102   1.083   .     S
C1068  H1101   1.079   .     S
C1068  C1070   1.393   .     A
C1069  C1071   1.395   .     A
C1069  H1100   1.077   .     S
C1070  C1075   1.414   .     A
C1070  C1072   1.416   .     A
C1071  C1076   1.418   .     A
C1071  C1074   1.419   .     A
C1072  C450    1.393   1_556 S
C1073  H1106   1.079   .     S
C1073  C1080   1.391   .     A
C1073  C1076   1.419   .     A
C1075  C1079   1.416   .     A
C1075  C446    1.412   1_556 S
C1077  O1118   1.412   .     S
C1077  H1095   1.109   .     S
C1077  H1093   1.111   .     S
C1077  H1094   1.114   .     S
C1078  H1099   1.109   .     S
C1078  H1097   1.111   .     S
C1078  O1110   1.410   .     S
C1078  H1098   1.112   .     S
C1079  H1086   1.079   .     S
C1079  C1081   1.387   .     A
C1080  H1085   1.084   .     S
C1081  H1096   1.083   .     S
C1081  C444    1.391   1_556 S
C1082  H1087   1.084   .     S
C1082  C664    1.370   1_565 S
C1083  H1088   1.083   .     S
C1084  H1091   1.084   .     S
N1107  Zn1119  2.010   .     S
N1108  Zn1120  2.010   .     S
O1109  Zn1119  1.998   .     S
O1111  Zn1120  1.998   .     S
O1112  Zn1120  2.000   .     S
O1113  Zn1119  2.000   .     S
O1114  Zn1119  1.966   .     S
O1115  Zn1120  1.966   .     S
O1116  Zn1120  1.918   .     S
O1117  Zn1119  1.918   .     S
C1121  C1124   1.419   .     S
C1121  O1182   1.284   .     A
C1121  O1179   1.283   .     A
C1122  C1124   1.398   .     A
C1122  H1162   1.084   .     S
C1122  C733    1.370   1_565 S
C1123  C1153   1.397   .     A
C1123  C1132   1.419   .     S
C1123  C1154   1.398   .     A
C1124  C1152   1.397   .     A
C1125  N1178   1.363   .     A
C1125  H1159   1.080   .     S
C1125  C1197   1.431   .     S
C1126  N1177   1.363   .     A
C1126  H1160   1.080   .     S
C1127  O1188   1.390   .     S
C1127  N1177   1.370   .     A
C1128  O1180   1.395   .     S
C1128  N1178   1.372   .     A
C1128  C1196   1.438   .     S
C1129  O1184   1.293   .     A
C1129  C1131   1.458   .     S
C1129  O1186   1.292   .     A
C1130  C1133   1.457   .     S
C1130  O1185   1.292   .     A
C1130  O1187   1.293   .     A
C1131  C1138   1.391   .     A
C1131  C1136   1.400   .     A
C1132  O1183   1.284   .     A
C1132  O1181   1.283   .     A
C1133  C1137   1.399   .     A
C1133  C1139   1.394   .     A
C1134  C1142   1.405   .     A
C1134  H1174   1.083   .     S
C1134  C1136   1.396   .     A
C1135  C1144   1.403   .     A
C1135  C1137   1.392   .     A
C1135  H1175   1.083   .     S
C1136  H1173   1.083   .     S
C1137  H1172   1.083   .     S
C1138  H1171   1.079   .     S
C1138  C1140   1.393   .     A
C1139  C1141   1.395   .     A
C1139  H1170   1.077   .     S
C1140  C1145   1.414   .     A
C1140  C1142   1.416   .     A
C1141  C1146   1.418   .     A
C1141  C1144   1.419   .     A
C1142  C520    1.393   1_556 S
C1143  H1176   1.079   .     S
C1143  C1150   1.391   .     A
C1143  C1146   1.419   .     A
C1145  C1149   1.416   .     A
C1145  C516    1.412   1_556 S
C1147  O1188   1.412   .     S
C1147  H1165   1.109   .     S
C1147  H1163   1.111   .     S
C1147  H1164   1.114   .     S
C1148  H1169   1.109   .     S
C1148  H1167   1.111   .     S
C1148  O1180   1.410   .     S
C1148  H1168   1.112   .     S
C1149  H1156   1.079   .     S
C1149  C1151   1.387   .     A
C1150  H1155   1.084   .     S
C1151  H1166   1.083   .     S
C1151  C514    1.391   1_556 S
C1152  H1157   1.084   .     S
C1152  C734    1.370   1_565 S
C1153  H1158   1.083   .     S
C1154  H1161   1.084   .     S
N1177  Zn1189  2.010   .     S
N1178  Zn1190  2.010   .     S
O1179  Zn1189  1.998   .     S
O1181  Zn1190  1.998   .     S
O1182  Zn1190  2.000   .     S
O1183  Zn1189  2.000   .     S
O1184  Zn1189  1.966   .     S
O1185  Zn1190  1.966   .     S
O1186  Zn1190  1.918   .     S
O1187  Zn1189  1.918   .     S
C1191  C1194   1.419   .     S
C1191  O1252   1.284   .     A
C1191  O1249   1.283   .     A
C1192  C1194   1.398   .     A
C1192  H1232   1.084   .     S
C1192  C803    1.370   1_565 S
C1193  C1223   1.397   .     A
C1193  C1202   1.419   .     S
C1193  C1224   1.398   .     A
C1194  C1222   1.397   .     A
C1195  N1248   1.363   .     A
C1195  H1229   1.080   .     S
C1195  C1057   1.431   1_655 S
C1196  N1247   1.363   .     A
C1196  H1230   1.080   .     S
C1197  O1258   1.390   .     S
C1197  N1247   1.370   .     A
C1198  O1250   1.395   .     S
C1198  N1248   1.372   .     A
C1198  C1056   1.438   1_655 S
C1199  O1254   1.293   .     A
C1199  C1201   1.458   .     S
C1199  O1256   1.292   .     A
C1200  C1203   1.457   .     S
C1200  O1255   1.292   .     A
C1200  O1257   1.293   .     A
C1201  C1208   1.391   .     A
C1201  C1206   1.400   .     A
C1202  O1253   1.284   .     A
C1202  O1251   1.283   .     A
C1203  C1207   1.399   .     A
C1203  C1209   1.394   .     A
C1204  C1212   1.405   .     A
C1204  H1244   1.083   .     S
C1204  C1206   1.396   .     A
C1205  C1214   1.403   .     A
C1205  C1207   1.392   .     A
C1205  H1245   1.083   .     S
C1206  H1243   1.083   .     S
C1207  H1242   1.083   .     S
C1208  H1241   1.079   .     S
C1208  C1210   1.393   .     A
C1209  C1211   1.395   .     A
C1209  H1240   1.077   .     S
C1210  C1215   1.414   .     A
C1210  C1212   1.416   .     A
C1211  C1216   1.418   .     A
C1211  C1214   1.419   .     A
C1212  C590    1.393   1_556 S
C1213  H1246   1.079   .     S
C1213  C1220   1.391   .     A
C1213  C1216   1.419   .     A
C1215  C1219   1.416   .     A
C1215  C586    1.412   1_556 S
C1217  O1258   1.412   .     S
C1217  H1235   1.109   .     S
C1217  H1233   1.111   .     S
C1217  H1234   1.114   .     S
C1218  H1239   1.109   .     S
C1218  H1237   1.111   .     S
C1218  O1250   1.410   .     S
C1218  H1238   1.112   .     S
C1219  H1226   1.079   .     S
C1219  C1221   1.387   .     A
C1220  H1225   1.084   .     S
C1221  H1236   1.083   .     S
C1221  C584    1.391   1_556 S
C1222  H1227   1.084   .     S
C1222  C804    1.370   1_565 S
C1223  H1228   1.083   .     S
C1224  H1231   1.084   .     S
N1247  Zn1259  2.010   .     S
N1248  Zn1260  2.010   .     S
O1249  Zn1259  1.998   .     S
O1251  Zn1260  1.998   .     S
O1252  Zn1260  2.000   .     S
O1253  Zn1259  2.000   .     S
O1254  Zn1259  1.966   .     S
O1255  Zn1260  1.966   .     S
O1256  Zn1260  1.918   .     S
O1257  Zn1259  1.918   .     S
