data_str_m3_o2_o5_pcu_sym.122
_audit_creation_date              2020-01-03
_audit_creation_method            'Materials Studio'
_symmetry_space_group_name_H-M    'P1'
_symmetry_Int_Tables_number       1
_symmetry_cell_setting            triclinic
loop_
_symmetry_equiv_pos_as_xyz
  x,y,z
_cell_length_a                    30.0659
_cell_length_b                    28.6250
_cell_length_c                    26.9577
_cell_angle_alpha                 89.7931
_cell_angle_beta                  92.5634
_cell_angle_gamma                 90.1338
loop_
_atom_site_label
_atom_site_type_symbol
_atom_site_fract_x
_atom_site_fract_y
_atom_site_fract_z
_atom_site_U_iso_or_equiv
_atom_site_adp_type
_atom_site_occupancy
C1     C     0.16417   0.24989   0.16688   0.00000  Uiso   1.00
C2     C     0.33590   0.25005   0.16260   0.00000  Uiso   1.00
C3     C     0.22553   0.10162   0.13100   0.00000  Uiso   1.00
C4     C     0.28715   0.39831   0.18280   0.00000  Uiso   1.00
C5     C     0.27452   0.10158   0.20237   0.00000  Uiso   1.00
C6     C     0.21265   0.39830   0.15136   0.00000  Uiso   1.00
C7     C     0.22645   0.05236   0.12952   0.00000  Uiso   1.00
C8     C     0.28957   0.44714   0.17630   0.00000  Uiso   1.00
C9     C     0.27371   0.05231   0.20389   0.00000  Uiso   1.00
C10    C     0.21042   0.44712   0.15768   0.00000  Uiso   1.00
C11    C     0.24980   0.25005   0.07290   0.00000  Uiso   1.00
C12    C     0.25012   0.24995   0.26043   0.00000  Uiso   1.00
C13    C     0.25013   0.02643   0.16671   0.00000  Uiso   1.00
C14    C     0.25006   0.47317   0.16683   0.00000  Uiso   1.00
C15    C     0.24988   0.25006   0.02175   0.00000  Uiso   1.00
C16    C     0.24999   0.24991   0.31158   0.00000  Uiso   1.00
C17    C     0.04724   0.27337   0.12384   0.00000  Uiso   1.00
C18    C     0.45185   0.20581   0.14536   0.00000  Uiso   1.00
C19    C     0.45472   0.28943   0.16334   0.00000  Uiso   1.00
C20    C     0.04716   0.21876   0.19417   0.00000  Uiso   1.00
C21    C     0.09371   0.27532   0.12783   0.00000  Uiso   1.00
C22    C     0.40564   0.20723   0.14398   0.00000  Uiso   1.00
C23    C     0.40878   0.29166   0.15824   0.00000  Uiso   1.00
C24    C     0.09331   0.22078   0.19854   0.00000  Uiso   1.00
C25    C     0.11632   0.24937   0.16532   0.00000  Uiso   1.00
C26    C     0.38368   0.24986   0.15382   0.00000  Uiso   1.00
C27    C     0.02435   0.24560   0.15755   0.00000  Uiso   1.00
C28    C     0.47618   0.24670   0.15606   0.00000  Uiso   1.00
N29    N     0.25000   0.12624   0.16667   0.00000  Uiso   1.00
N30    N     0.25000   0.37377   0.16667   0.00000  Uiso   1.00
O31    O     0.18453   0.28974   0.16667   0.00000  Uiso   1.00
O32    O     0.31547   0.21026   0.16666   0.00000  Uiso   1.00
O33    O     0.31547   0.28974   0.16666   0.00000  Uiso   1.00
O34    O     0.18453   0.21026   0.16667   0.00000  Uiso   1.00
O35    O     0.25000   0.28973   0.09511   0.00000  Uiso   1.00
O36    O     0.25000   0.21027   0.23822   0.00000  Uiso   1.00
O37    O     0.25000   0.28973   0.23822   0.00000  Uiso   1.00
O38    O     0.25000   0.21027   0.09511   0.00000  Uiso   1.00
Zn39   Zn    0.25000   0.30307   0.16667   0.00000  Uiso   1.00
Zn40   Zn    0.25000   0.19693   0.16667   0.00000  Uiso   1.00
O41    O     0.19968   0.12360   0.09462   0.00000  Uiso   1.00
H42    H     0.19357   0.15540   0.10569   0.00000  Uiso   1.00
O43    O     0.32254   0.37654   0.20685   0.00000  Uiso   1.00
H44    H     0.31023   0.35012   0.22560   0.00000  Uiso   1.00
O45    O     0.30024   0.12349   0.23881   0.00000  Uiso   1.00
H46    H     0.30612   0.15549   0.22790   0.00000  Uiso   1.00
O47    O     0.17660   0.37631   0.12902   0.00000  Uiso   1.00
H48    H     0.18883   0.35144   0.10824   0.00000  Uiso   1.00
O49    O     0.02425   0.30133   0.08938   0.00000  Uiso   1.00
C50    C     0.01380   0.27504   0.04632   0.00000  Uiso   1.00
H51    H     0.48345   0.25373   0.05133   0.00000  Uiso   1.00
H52    H     0.04192   0.25252   0.03552   0.00000  Uiso   1.00
H53    H     0.00633   0.29955   0.01509   0.00000  Uiso   1.00
O54    O     0.47297   0.16337   0.13944   0.00000  Uiso   1.00
C55    C     0.48216   0.15752   0.08901   0.00000  Uiso   1.00
H56    H     0.01163   0.17860   0.07952   0.00000  Uiso   1.00
H57    H     0.45307   0.16603   0.06352   0.00000  Uiso   1.00
H58    H     0.49058   0.12034   0.08294   0.00000  Uiso   1.00
O59    O     0.47872   0.33040   0.17048   0.00000  Uiso   1.00
C60    C     0.48672   0.33727   0.22186   0.00000  Uiso   1.00
H61    H     0.01224   0.31240   0.23694   0.00000  Uiso   1.00
H62    H     0.45570   0.33454   0.24283   0.00000  Uiso   1.00
H63    H     0.00022   0.37302   0.22770   0.00000  Uiso   1.00
O64    O     0.02452   0.18894   0.22484   0.00000  Uiso   1.00
C65    C     0.01430   0.21299   0.26839   0.00000  Uiso   1.00
H66    H     0.48562   0.23678   0.26106   0.00000  Uiso   1.00
H67    H     0.04340   0.23269   0.28459   0.00000  Uiso   1.00
H68    H     0.00434   0.18710   0.29655   0.00000  Uiso   1.00
O69    O     0.11813   0.30070   0.09469   0.00000  Uiso   1.00
H70    H     0.09805   0.31781   0.07094   0.00000  Uiso   1.00
O71    O     0.38319   0.16655   0.13178   0.00000  Uiso   1.00
H72    H     0.35915   0.17479   0.10692   0.00000  Uiso   1.00
O73    O     0.38979   0.33532   0.15743   0.00000  Uiso   1.00
H74    H     0.36866   0.33630   0.12814   0.00000  Uiso   1.00
O75    O     0.11436   0.19493   0.23610   0.00000  Uiso   1.00
H76    H     0.14389   0.20873   0.24470   0.00000  Uiso   1.00
O77    O     0.20164   0.03027   0.09219   0.00000  Uiso   1.00
C78    C     0.23015   0.01789   0.05457   0.00000  Uiso   1.00
H79    H     0.25261   0.48884   0.06662   0.00000  Uiso   1.00
H80    H     0.25000   0.04844   0.04250   0.00000  Uiso   1.00
H81    H     0.20938   0.00532   0.02229   0.00000  Uiso   1.00
O82    O     0.33041   0.46893   0.18305   0.00000  Uiso   1.00
C83    C     0.34906   0.47390   0.13628   0.00000  Uiso   1.00
H84    H     0.35363   0.43938   0.11829   0.00000  Uiso   1.00
H85    H     0.32851   0.49731   0.11151   0.00000  Uiso   1.00
H86    H     0.38241   0.49023   0.14165   0.00000  Uiso   1.00
O87    O     0.29842   0.03021   0.24141   0.00000  Uiso   1.00
C88    C     0.26977   0.01734   0.27887   0.00000  Uiso   1.00
H89    H     0.24787   0.48777   0.26693   0.00000  Uiso   1.00
H90    H     0.24930   0.04747   0.29036   0.00000  Uiso   1.00
H91    H     0.29046   0.00532   0.31151   0.00000  Uiso   1.00
O92    O     0.16958   0.46882   0.15121   0.00000  Uiso   1.00
C93    C     0.15199   0.47519   0.19829   0.00000  Uiso   1.00
H94    H     0.14812   0.44128   0.21805   0.00000  Uiso   1.00
H95    H     0.17285   0.49966   0.22138   0.00000  Uiso   1.00
H96    H     0.11843   0.49095   0.19313   0.00000  Uiso   1.00
C97    C     0.66417   0.24989   0.16688   0.00000  Uiso   1.00
C98    C     0.83590   0.25005   0.16260   0.00000  Uiso   1.00
C99    C     0.72553   0.10162   0.13100   0.00000  Uiso   1.00
C100   C     0.78715   0.39831   0.18280   0.00000  Uiso   1.00
C101   C     0.77452   0.10158   0.20237   0.00000  Uiso   1.00
C102   C     0.71265   0.39830   0.15136   0.00000  Uiso   1.00
C103   C     0.72645   0.05236   0.12952   0.00000  Uiso   1.00
C104   C     0.78957   0.44714   0.17630   0.00000  Uiso   1.00
C105   C     0.77371   0.05231   0.20389   0.00000  Uiso   1.00
C106   C     0.71042   0.44712   0.15768   0.00000  Uiso   1.00
C107   C     0.74980   0.25005   0.07290   0.00000  Uiso   1.00
C108   C     0.75012   0.24995   0.26043   0.00000  Uiso   1.00
C109   C     0.75013   0.02643   0.16671   0.00000  Uiso   1.00
C110   C     0.75006   0.47317   0.16683   0.00000  Uiso   1.00
C111   C     0.74988   0.25006   0.02175   0.00000  Uiso   1.00
C112   C     0.74999   0.24991   0.31158   0.00000  Uiso   1.00
C113   C     0.54724   0.27337   0.12384   0.00000  Uiso   1.00
C114   C     0.95185   0.20581   0.14536   0.00000  Uiso   1.00
C115   C     0.95472   0.28943   0.16334   0.00000  Uiso   1.00
C116   C     0.54716   0.21876   0.19417   0.00000  Uiso   1.00
C117   C     0.59371   0.27532   0.12783   0.00000  Uiso   1.00
C118   C     0.90564   0.20723   0.14398   0.00000  Uiso   1.00
C119   C     0.90878   0.29166   0.15824   0.00000  Uiso   1.00
C120   C     0.59331   0.22078   0.19854   0.00000  Uiso   1.00
C121   C     0.61632   0.24937   0.16532   0.00000  Uiso   1.00
C122   C     0.88368   0.24986   0.15382   0.00000  Uiso   1.00
C123   C     0.52435   0.24560   0.15755   0.00000  Uiso   1.00
C124   C     0.97618   0.24670   0.15606   0.00000  Uiso   1.00
N125   N     0.75000   0.12624   0.16667   0.00000  Uiso   1.00
N126   N     0.75000   0.37377   0.16667   0.00000  Uiso   1.00
O127   O     0.68453   0.28974   0.16667   0.00000  Uiso   1.00
O128   O     0.81547   0.21026   0.16666   0.00000  Uiso   1.00
O129   O     0.81547   0.28974   0.16666   0.00000  Uiso   1.00
O130   O     0.68453   0.21026   0.16667   0.00000  Uiso   1.00
O131   O     0.75000   0.28973   0.09511   0.00000  Uiso   1.00
O132   O     0.75000   0.21027   0.23822   0.00000  Uiso   1.00
O133   O     0.75000   0.28973   0.23822   0.00000  Uiso   1.00
O134   O     0.75000   0.21027   0.09511   0.00000  Uiso   1.00
Zn135  Zn    0.75000   0.30307   0.16667   0.00000  Uiso   1.00
Zn136  Zn    0.75000   0.19693   0.16667   0.00000  Uiso   1.00
O137   O     0.69968   0.12360   0.09462   0.00000  Uiso   1.00
H138   H     0.69357   0.15540   0.10569   0.00000  Uiso   1.00
O139   O     0.82254   0.37654   0.20685   0.00000  Uiso   1.00
H140   H     0.81023   0.35012   0.22560   0.00000  Uiso   1.00
O141   O     0.80024   0.12349   0.23881   0.00000  Uiso   1.00
H142   H     0.80612   0.15549   0.22790   0.00000  Uiso   1.00
O143   O     0.67660   0.37631   0.12902   0.00000  Uiso   1.00
H144   H     0.68883   0.35144   0.10824   0.00000  Uiso   1.00
O145   O     0.52425   0.30133   0.08938   0.00000  Uiso   1.00
C146   C     0.51380   0.27504   0.04632   0.00000  Uiso   1.00
H147   H     0.98345   0.25373   0.05133   0.00000  Uiso   1.00
H148   H     0.54192   0.25252   0.03552   0.00000  Uiso   1.00
H149   H     0.50633   0.29955   0.01509   0.00000  Uiso   1.00
O150   O     0.97297   0.16337   0.13944   0.00000  Uiso   1.00
C151   C     0.98216   0.15752   0.08901   0.00000  Uiso   1.00
H152   H     0.51163   0.17860   0.07952   0.00000  Uiso   1.00
H153   H     0.95307   0.16603   0.06352   0.00000  Uiso   1.00
H154   H     0.99058   0.12034   0.08294   0.00000  Uiso   1.00
O155   O     0.97872   0.33040   0.17048   0.00000  Uiso   1.00
C156   C     0.98672   0.33727   0.22186   0.00000  Uiso   1.00
H157   H     0.51224   0.31240   0.23694   0.00000  Uiso   1.00
H158   H     0.95570   0.33454   0.24283   0.00000  Uiso   1.00
H159   H     0.50022   0.37302   0.22770   0.00000  Uiso   1.00
O160   O     0.52452   0.18894   0.22484   0.00000  Uiso   1.00
C161   C     0.51430   0.21299   0.26839   0.00000  Uiso   1.00
H162   H     0.98562   0.23678   0.26106   0.00000  Uiso   1.00
H163   H     0.54340   0.23269   0.28459   0.00000  Uiso   1.00
H164   H     0.50434   0.18710   0.29655   0.00000  Uiso   1.00
O165   O     0.61813   0.30070   0.09469   0.00000  Uiso   1.00
H166   H     0.59805   0.31781   0.07094   0.00000  Uiso   1.00
O167   O     0.88319   0.16655   0.13178   0.00000  Uiso   1.00
H168   H     0.85915   0.17479   0.10692   0.00000  Uiso   1.00
O169   O     0.88979   0.33532   0.15743   0.00000  Uiso   1.00
H170   H     0.86866   0.33630   0.12814   0.00000  Uiso   1.00
O171   O     0.61436   0.19493   0.23610   0.00000  Uiso   1.00
H172   H     0.64389   0.20873   0.24470   0.00000  Uiso   1.00
O173   O     0.70164   0.03027   0.09219   0.00000  Uiso   1.00
C174   C     0.73015   0.01789   0.05457   0.00000  Uiso   1.00
H175   H     0.75261   0.48884   0.06662   0.00000  Uiso   1.00
H176   H     0.75000   0.04844   0.04250   0.00000  Uiso   1.00
H177   H     0.70938   0.00532   0.02229   0.00000  Uiso   1.00
O178   O     0.83041   0.46893   0.18305   0.00000  Uiso   1.00
C179   C     0.84906   0.47390   0.13628   0.00000  Uiso   1.00
H180   H     0.85363   0.43938   0.11829   0.00000  Uiso   1.00
H181   H     0.82851   0.49731   0.11151   0.00000  Uiso   1.00
H182   H     0.88241   0.49023   0.14165   0.00000  Uiso   1.00
O183   O     0.79842   0.03021   0.24141   0.00000  Uiso   1.00
C184   C     0.76977   0.01734   0.27887   0.00000  Uiso   1.00
H185   H     0.74787   0.48777   0.26693   0.00000  Uiso   1.00
H186   H     0.74930   0.04747   0.29036   0.00000  Uiso   1.00
H187   H     0.79046   0.00532   0.31151   0.00000  Uiso   1.00
O188   O     0.66958   0.46882   0.15121   0.00000  Uiso   1.00
C189   C     0.65199   0.47519   0.19829   0.00000  Uiso   1.00
H190   H     0.64812   0.44128   0.21805   0.00000  Uiso   1.00
H191   H     0.67285   0.49966   0.22138   0.00000  Uiso   1.00
H192   H     0.61843   0.49095   0.19313   0.00000  Uiso   1.00
C193   C     0.16417   0.74989   0.16688   0.00000  Uiso   1.00
C194   C     0.33590   0.75005   0.16260   0.00000  Uiso   1.00
C195   C     0.22553   0.60162   0.13100   0.00000  Uiso   1.00
C196   C     0.28715   0.89831   0.18280   0.00000  Uiso   1.00
C197   C     0.27452   0.60158   0.20237   0.00000  Uiso   1.00
C198   C     0.21265   0.89830   0.15136   0.00000  Uiso   1.00
C199   C     0.22645   0.55236   0.12952   0.00000  Uiso   1.00
C200   C     0.28957   0.94714   0.17630   0.00000  Uiso   1.00
C201   C     0.27371   0.55231   0.20389   0.00000  Uiso   1.00
C202   C     0.21042   0.94712   0.15768   0.00000  Uiso   1.00
C203   C     0.24980   0.75005   0.07290   0.00000  Uiso   1.00
C204   C     0.25012   0.74995   0.26043   0.00000  Uiso   1.00
C205   C     0.25013   0.52643   0.16671   0.00000  Uiso   1.00
C206   C     0.25006   0.97317   0.16683   0.00000  Uiso   1.00
C207   C     0.24988   0.75006   0.02175   0.00000  Uiso   1.00
C208   C     0.24999   0.74991   0.31158   0.00000  Uiso   1.00
C209   C     0.04724   0.77337   0.12384   0.00000  Uiso   1.00
C210   C     0.45185   0.70581   0.14536   0.00000  Uiso   1.00
C211   C     0.45472   0.78943   0.16334   0.00000  Uiso   1.00
C212   C     0.04716   0.71876   0.19417   0.00000  Uiso   1.00
C213   C     0.09371   0.77532   0.12783   0.00000  Uiso   1.00
C214   C     0.40564   0.70723   0.14398   0.00000  Uiso   1.00
C215   C     0.40878   0.79166   0.15824   0.00000  Uiso   1.00
C216   C     0.09331   0.72078   0.19854   0.00000  Uiso   1.00
C217   C     0.11632   0.74937   0.16532   0.00000  Uiso   1.00
C218   C     0.38368   0.74986   0.15382   0.00000  Uiso   1.00
C219   C     0.02435   0.74560   0.15755   0.00000  Uiso   1.00
C220   C     0.47618   0.74670   0.15606   0.00000  Uiso   1.00
N221   N     0.25000   0.62624   0.16667   0.00000  Uiso   1.00
N222   N     0.25000   0.87377   0.16667   0.00000  Uiso   1.00
O223   O     0.18453   0.78974   0.16667   0.00000  Uiso   1.00
O224   O     0.31547   0.71026   0.16666   0.00000  Uiso   1.00
O225   O     0.31547   0.78974   0.16666   0.00000  Uiso   1.00
O226   O     0.18453   0.71026   0.16667   0.00000  Uiso   1.00
O227   O     0.25000   0.78973   0.09511   0.00000  Uiso   1.00
O228   O     0.25000   0.71027   0.23822   0.00000  Uiso   1.00
O229   O     0.25000   0.78973   0.23822   0.00000  Uiso   1.00
O230   O     0.25000   0.71027   0.09511   0.00000  Uiso   1.00
Zn231  Zn    0.25000   0.80307   0.16667   0.00000  Uiso   1.00
Zn232  Zn    0.25000   0.69693   0.16667   0.00000  Uiso   1.00
O233   O     0.19968   0.62360   0.09462   0.00000  Uiso   1.00
H234   H     0.19357   0.65540   0.10569   0.00000  Uiso   1.00
O235   O     0.32254   0.87654   0.20685   0.00000  Uiso   1.00
H236   H     0.31023   0.85012   0.22560   0.00000  Uiso   1.00
O237   O     0.30024   0.62349   0.23881   0.00000  Uiso   1.00
H238   H     0.30612   0.65549   0.22790   0.00000  Uiso   1.00
O239   O     0.17660   0.87631   0.12902   0.00000  Uiso   1.00
H240   H     0.18883   0.85144   0.10824   0.00000  Uiso   1.00
O241   O     0.02425   0.80133   0.08938   0.00000  Uiso   1.00
C242   C     0.01380   0.77504   0.04632   0.00000  Uiso   1.00
H243   H     0.48345   0.75373   0.05133   0.00000  Uiso   1.00
H244   H     0.04192   0.75252   0.03552   0.00000  Uiso   1.00
H245   H     0.00633   0.79955   0.01509   0.00000  Uiso   1.00
O246   O     0.47297   0.66337   0.13944   0.00000  Uiso   1.00
C247   C     0.48216   0.65752   0.08901   0.00000  Uiso   1.00
H248   H     0.01163   0.67860   0.07952   0.00000  Uiso   1.00
H249   H     0.45307   0.66603   0.06352   0.00000  Uiso   1.00
H250   H     0.49058   0.62034   0.08294   0.00000  Uiso   1.00
O251   O     0.47872   0.83040   0.17048   0.00000  Uiso   1.00
C252   C     0.48672   0.83727   0.22186   0.00000  Uiso   1.00
H253   H     0.01224   0.81240   0.23694   0.00000  Uiso   1.00
H254   H     0.45570   0.83454   0.24283   0.00000  Uiso   1.00
H255   H     0.00022   0.87302   0.22770   0.00000  Uiso   1.00
O256   O     0.02452   0.68894   0.22484   0.00000  Uiso   1.00
C257   C     0.01430   0.71299   0.26839   0.00000  Uiso   1.00
H258   H     0.48562   0.73678   0.26106   0.00000  Uiso   1.00
H259   H     0.04340   0.73269   0.28459   0.00000  Uiso   1.00
H260   H     0.00434   0.68710   0.29655   0.00000  Uiso   1.00
O261   O     0.11813   0.80070   0.09469   0.00000  Uiso   1.00
H262   H     0.09805   0.81781   0.07094   0.00000  Uiso   1.00
O263   O     0.38319   0.66655   0.13178   0.00000  Uiso   1.00
H264   H     0.35915   0.67479   0.10692   0.00000  Uiso   1.00
O265   O     0.38979   0.83532   0.15743   0.00000  Uiso   1.00
H266   H     0.36866   0.83630   0.12814   0.00000  Uiso   1.00
O267   O     0.11436   0.69493   0.23610   0.00000  Uiso   1.00
H268   H     0.14389   0.70873   0.24470   0.00000  Uiso   1.00
O269   O     0.20164   0.53027   0.09219   0.00000  Uiso   1.00
C270   C     0.23015   0.51789   0.05457   0.00000  Uiso   1.00
H271   H     0.25261   0.98884   0.06662   0.00000  Uiso   1.00
H272   H     0.25000   0.54844   0.04250   0.00000  Uiso   1.00
H273   H     0.20938   0.50532   0.02229   0.00000  Uiso   1.00
O274   O     0.33041   0.96893   0.18305   0.00000  Uiso   1.00
C275   C     0.34906   0.97390   0.13628   0.00000  Uiso   1.00
H276   H     0.35363   0.93938   0.11829   0.00000  Uiso   1.00
H277   H     0.32851   0.99731   0.11151   0.00000  Uiso   1.00
H278   H     0.38241   0.99023   0.14165   0.00000  Uiso   1.00
O279   O     0.29842   0.53021   0.24141   0.00000  Uiso   1.00
C280   C     0.26977   0.51734   0.27887   0.00000  Uiso   1.00
H281   H     0.24787   0.98777   0.26693   0.00000  Uiso   1.00
H282   H     0.24930   0.54747   0.29036   0.00000  Uiso   1.00
H283   H     0.29046   0.50532   0.31151   0.00000  Uiso   1.00
O284   O     0.16958   0.96882   0.15121   0.00000  Uiso   1.00
C285   C     0.15199   0.97519   0.19829   0.00000  Uiso   1.00
H286   H     0.14812   0.94128   0.21805   0.00000  Uiso   1.00
H287   H     0.17285   0.99966   0.22138   0.00000  Uiso   1.00
H288   H     0.11843   0.99095   0.19313   0.00000  Uiso   1.00
C289   C     0.66417   0.74989   0.16688   0.00000  Uiso   1.00
C290   C     0.83590   0.75005   0.16260   0.00000  Uiso   1.00
C291   C     0.72553   0.60162   0.13100   0.00000  Uiso   1.00
C292   C     0.78715   0.89831   0.18280   0.00000  Uiso   1.00
C293   C     0.77452   0.60158   0.20237   0.00000  Uiso   1.00
C294   C     0.71265   0.89830   0.15136   0.00000  Uiso   1.00
C295   C     0.72645   0.55236   0.12952   0.00000  Uiso   1.00
C296   C     0.78957   0.94714   0.17630   0.00000  Uiso   1.00
C297   C     0.77371   0.55231   0.20389   0.00000  Uiso   1.00
C298   C     0.71042   0.94712   0.15768   0.00000  Uiso   1.00
C299   C     0.74980   0.75005   0.07290   0.00000  Uiso   1.00
C300   C     0.75012   0.74995   0.26043   0.00000  Uiso   1.00
C301   C     0.75013   0.52643   0.16671   0.00000  Uiso   1.00
C302   C     0.75006   0.97317   0.16683   0.00000  Uiso   1.00
C303   C     0.74988   0.75006   0.02175   0.00000  Uiso   1.00
C304   C     0.74999   0.74991   0.31158   0.00000  Uiso   1.00
C305   C     0.54724   0.77337   0.12384   0.00000  Uiso   1.00
C306   C     0.95185   0.70581   0.14536   0.00000  Uiso   1.00
C307   C     0.95472   0.78943   0.16334   0.00000  Uiso   1.00
C308   C     0.54716   0.71876   0.19417   0.00000  Uiso   1.00
C309   C     0.59371   0.77532   0.12783   0.00000  Uiso   1.00
C310   C     0.90564   0.70723   0.14398   0.00000  Uiso   1.00
C311   C     0.90878   0.79166   0.15824   0.00000  Uiso   1.00
C312   C     0.59331   0.72078   0.19854   0.00000  Uiso   1.00
C313   C     0.61632   0.74937   0.16532   0.00000  Uiso   1.00
C314   C     0.88368   0.74986   0.15382   0.00000  Uiso   1.00
C315   C     0.52435   0.74560   0.15755   0.00000  Uiso   1.00
C316   C     0.97618   0.74670   0.15606   0.00000  Uiso   1.00
N317   N     0.75000   0.62624   0.16667   0.00000  Uiso   1.00
N318   N     0.75000   0.87377   0.16667   0.00000  Uiso   1.00
O319   O     0.68453   0.78974   0.16667   0.00000  Uiso   1.00
O320   O     0.81547   0.71026   0.16666   0.00000  Uiso   1.00
O321   O     0.81547   0.78974   0.16666   0.00000  Uiso   1.00
O322   O     0.68453   0.71026   0.16667   0.00000  Uiso   1.00
O323   O     0.75000   0.78973   0.09511   0.00000  Uiso   1.00
O324   O     0.75000   0.71027   0.23822   0.00000  Uiso   1.00
O325   O     0.75000   0.78973   0.23822   0.00000  Uiso   1.00
O326   O     0.75000   0.71027   0.09511   0.00000  Uiso   1.00
Zn327  Zn    0.75000   0.80307   0.16667   0.00000  Uiso   1.00
Zn328  Zn    0.75000   0.69693   0.16667   0.00000  Uiso   1.00
O329   O     0.69968   0.62360   0.09462   0.00000  Uiso   1.00
H330   H     0.69357   0.65540   0.10569   0.00000  Uiso   1.00
O331   O     0.82254   0.87654   0.20685   0.00000  Uiso   1.00
H332   H     0.81023   0.85012   0.22560   0.00000  Uiso   1.00
O333   O     0.80024   0.62349   0.23881   0.00000  Uiso   1.00
H334   H     0.80612   0.65549   0.22790   0.00000  Uiso   1.00
O335   O     0.67660   0.87631   0.12902   0.00000  Uiso   1.00
H336   H     0.68883   0.85144   0.10824   0.00000  Uiso   1.00
O337   O     0.52425   0.80133   0.08938   0.00000  Uiso   1.00
C338   C     0.51380   0.77504   0.04632   0.00000  Uiso   1.00
H339   H     0.98345   0.75373   0.05133   0.00000  Uiso   1.00
H340   H     0.54192   0.75252   0.03552   0.00000  Uiso   1.00
H341   H     0.50633   0.79955   0.01509   0.00000  Uiso   1.00
O342   O     0.97297   0.66337   0.13944   0.00000  Uiso   1.00
C343   C     0.98216   0.65752   0.08901   0.00000  Uiso   1.00
H344   H     0.51163   0.67860   0.07952   0.00000  Uiso   1.00
H345   H     0.95307   0.66603   0.06352   0.00000  Uiso   1.00
H346   H     0.99058   0.62034   0.08294   0.00000  Uiso   1.00
O347   O     0.97872   0.83040   0.17048   0.00000  Uiso   1.00
C348   C     0.98672   0.83727   0.22186   0.00000  Uiso   1.00
H349   H     0.51224   0.81240   0.23694   0.00000  Uiso   1.00
H350   H     0.95570   0.83454   0.24283   0.00000  Uiso   1.00
H351   H     0.50022   0.87302   0.22770   0.00000  Uiso   1.00
O352   O     0.52452   0.68894   0.22484   0.00000  Uiso   1.00
C353   C     0.51430   0.71299   0.26839   0.00000  Uiso   1.00
H354   H     0.98562   0.73678   0.26106   0.00000  Uiso   1.00
H355   H     0.54340   0.73269   0.28459   0.00000  Uiso   1.00
H356   H     0.50434   0.68710   0.29655   0.00000  Uiso   1.00
O357   O     0.61813   0.80070   0.09469   0.00000  Uiso   1.00
H358   H     0.59805   0.81781   0.07094   0.00000  Uiso   1.00
O359   O     0.88319   0.66655   0.13178   0.00000  Uiso   1.00
H360   H     0.85915   0.67479   0.10692   0.00000  Uiso   1.00
O361   O     0.88979   0.83532   0.15743   0.00000  Uiso   1.00
H362   H     0.86866   0.83630   0.12814   0.00000  Uiso   1.00
O363   O     0.61436   0.69493   0.23610   0.00000  Uiso   1.00
H364   H     0.64389   0.70873   0.24470   0.00000  Uiso   1.00
O365   O     0.70164   0.53027   0.09219   0.00000  Uiso   1.00
C366   C     0.73015   0.51789   0.05457   0.00000  Uiso   1.00
H367   H     0.75261   0.98884   0.06662   0.00000  Uiso   1.00
H368   H     0.75000   0.54844   0.04250   0.00000  Uiso   1.00
H369   H     0.70938   0.50532   0.02229   0.00000  Uiso   1.00
O370   O     0.83041   0.96893   0.18305   0.00000  Uiso   1.00
C371   C     0.84906   0.97390   0.13628   0.00000  Uiso   1.00
H372   H     0.85363   0.93938   0.11829   0.00000  Uiso   1.00
H373   H     0.82851   0.99731   0.11151   0.00000  Uiso   1.00
H374   H     0.88241   0.99023   0.14165   0.00000  Uiso   1.00
O375   O     0.79842   0.53021   0.24141   0.00000  Uiso   1.00
C376   C     0.76977   0.51734   0.27887   0.00000  Uiso   1.00
H377   H     0.74787   0.98777   0.26693   0.00000  Uiso   1.00
H378   H     0.74930   0.54747   0.29036   0.00000  Uiso   1.00
H379   H     0.79046   0.50532   0.31151   0.00000  Uiso   1.00
O380   O     0.66958   0.96882   0.15121   0.00000  Uiso   1.00
C381   C     0.65199   0.97519   0.19829   0.00000  Uiso   1.00
H382   H     0.64812   0.94128   0.21805   0.00000  Uiso   1.00
H383   H     0.67285   0.99966   0.22138   0.00000  Uiso   1.00
H384   H     0.61843   0.99095   0.19313   0.00000  Uiso   1.00
C385   C     0.16417   0.24989   0.50021   0.00000  Uiso   1.00
C386   C     0.33590   0.25005   0.49593   0.00000  Uiso   1.00
C387   C     0.22553   0.10162   0.46433   0.00000  Uiso   1.00
C388   C     0.28715   0.39831   0.51613   0.00000  Uiso   1.00
C389   C     0.27452   0.10158   0.53570   0.00000  Uiso   1.00
C390   C     0.21265   0.39830   0.48469   0.00000  Uiso   1.00
C391   C     0.22645   0.05236   0.46285   0.00000  Uiso   1.00
C392   C     0.28957   0.44714   0.50964   0.00000  Uiso   1.00
C393   C     0.27371   0.05231   0.53723   0.00000  Uiso   1.00
C394   C     0.21042   0.44712   0.49101   0.00000  Uiso   1.00
C395   C     0.24980   0.25005   0.40623   0.00000  Uiso   1.00
C396   C     0.25012   0.24995   0.59376   0.00000  Uiso   1.00
C397   C     0.25013   0.02643   0.50005   0.00000  Uiso   1.00
C398   C     0.25006   0.47317   0.50016   0.00000  Uiso   1.00
C399   C     0.24988   0.25006   0.35508   0.00000  Uiso   1.00
C400   C     0.24999   0.24991   0.64491   0.00000  Uiso   1.00
C401   C     0.04724   0.27337   0.45717   0.00000  Uiso   1.00
C402   C     0.45185   0.20581   0.47869   0.00000  Uiso   1.00
C403   C     0.45472   0.28943   0.49668   0.00000  Uiso   1.00
C404   C     0.04716   0.21876   0.52751   0.00000  Uiso   1.00
C405   C     0.09371   0.27532   0.46116   0.00000  Uiso   1.00
C406   C     0.40564   0.20723   0.47731   0.00000  Uiso   1.00
C407   C     0.40878   0.29166   0.49158   0.00000  Uiso   1.00
C408   C     0.09331   0.22078   0.53188   0.00000  Uiso   1.00
C409   C     0.11632   0.24937   0.49865   0.00000  Uiso   1.00
C410   C     0.38368   0.24986   0.48716   0.00000  Uiso   1.00
C411   C     0.02435   0.24560   0.49089   0.00000  Uiso   1.00
C412   C     0.47618   0.24670   0.48939   0.00000  Uiso   1.00
N413   N     0.25000   0.12624   0.50000   0.00000  Uiso   1.00
N414   N     0.25000   0.37377   0.50000   0.00000  Uiso   1.00
O415   O     0.18453   0.28974   0.50000   0.00000  Uiso   1.00
O416   O     0.31547   0.21026   0.50000   0.00000  Uiso   1.00
O417   O     0.31547   0.28974   0.50000   0.00000  Uiso   1.00
O418   O     0.18453   0.21026   0.50000   0.00000  Uiso   1.00
O419   O     0.25000   0.28973   0.42845   0.00000  Uiso   1.00
O420   O     0.25000   0.21027   0.57155   0.00000  Uiso   1.00
O421   O     0.25000   0.28973   0.57155   0.00000  Uiso   1.00
O422   O     0.25000   0.21027   0.42845   0.00000  Uiso   1.00
Zn423  Zn    0.25000   0.30307   0.50000   0.00000  Uiso   1.00
Zn424  Zn    0.25000   0.19693   0.50000   0.00000  Uiso   1.00
O425   O     0.19968   0.12360   0.42796   0.00000  Uiso   1.00
H426   H     0.19357   0.15540   0.43902   0.00000  Uiso   1.00
O427   O     0.32254   0.37654   0.54018   0.00000  Uiso   1.00
H428   H     0.31023   0.35012   0.55894   0.00000  Uiso   1.00
O429   O     0.30024   0.12349   0.57215   0.00000  Uiso   1.00
H430   H     0.30612   0.15549   0.56124   0.00000  Uiso   1.00
O431   O     0.17660   0.37631   0.46235   0.00000  Uiso   1.00
H432   H     0.18883   0.35144   0.44157   0.00000  Uiso   1.00
O433   O     0.02425   0.30133   0.42271   0.00000  Uiso   1.00
C434   C     0.01380   0.27504   0.37965   0.00000  Uiso   1.00
H435   H     0.48345   0.25373   0.38467   0.00000  Uiso   1.00
H436   H     0.04192   0.25252   0.36885   0.00000  Uiso   1.00
H437   H     0.00633   0.29955   0.34842   0.00000  Uiso   1.00
O438   O     0.47297   0.16337   0.47277   0.00000  Uiso   1.00
C439   C     0.48216   0.15752   0.42235   0.00000  Uiso   1.00
H440   H     0.01163   0.17860   0.41285   0.00000  Uiso   1.00
H441   H     0.45307   0.16603   0.39685   0.00000  Uiso   1.00
H442   H     0.49058   0.12034   0.41628   0.00000  Uiso   1.00
O443   O     0.47872   0.33040   0.50382   0.00000  Uiso   1.00
C444   C     0.48672   0.33727   0.55519   0.00000  Uiso   1.00
H445   H     0.01224   0.31240   0.57027   0.00000  Uiso   1.00
H446   H     0.45570   0.33454   0.57616   0.00000  Uiso   1.00
H447   H     0.00022   0.37302   0.56104   0.00000  Uiso   1.00
O448   O     0.02452   0.18894   0.55818   0.00000  Uiso   1.00
C449   C     0.01430   0.21299   0.60172   0.00000  Uiso   1.00
H450   H     0.48562   0.23678   0.59439   0.00000  Uiso   1.00
H451   H     0.04340   0.23269   0.61793   0.00000  Uiso   1.00
H452   H     0.00434   0.18710   0.62988   0.00000  Uiso   1.00
O453   O     0.11813   0.30070   0.42802   0.00000  Uiso   1.00
H454   H     0.09805   0.31781   0.40427   0.00000  Uiso   1.00
O455   O     0.38319   0.16655   0.46511   0.00000  Uiso   1.00
H456   H     0.35915   0.17479   0.44025   0.00000  Uiso   1.00
O457   O     0.38979   0.33532   0.49077   0.00000  Uiso   1.00
H458   H     0.36866   0.33630   0.46147   0.00000  Uiso   1.00
O459   O     0.11436   0.19493   0.56944   0.00000  Uiso   1.00
H460   H     0.14389   0.20873   0.57804   0.00000  Uiso   1.00
O461   O     0.20164   0.03027   0.42552   0.00000  Uiso   1.00
C462   C     0.23015   0.01789   0.38790   0.00000  Uiso   1.00
H463   H     0.25261   0.48884   0.39996   0.00000  Uiso   1.00
H464   H     0.25000   0.04844   0.37583   0.00000  Uiso   1.00
H465   H     0.20938   0.00532   0.35562   0.00000  Uiso   1.00
O466   O     0.33041   0.46893   0.51638   0.00000  Uiso   1.00
C467   C     0.34906   0.47390   0.46962   0.00000  Uiso   1.00
H468   H     0.35363   0.43938   0.45162   0.00000  Uiso   1.00
H469   H     0.32851   0.49731   0.44485   0.00000  Uiso   1.00
H470   H     0.38241   0.49023   0.47498   0.00000  Uiso   1.00
O471   O     0.29842   0.03021   0.57474   0.00000  Uiso   1.00
C472   C     0.26977   0.01734   0.61220   0.00000  Uiso   1.00
H473   H     0.24787   0.48777   0.60027   0.00000  Uiso   1.00
H474   H     0.24930   0.04747   0.62370   0.00000  Uiso   1.00
H475   H     0.29046   0.00532   0.64484   0.00000  Uiso   1.00
O476   O     0.16958   0.46882   0.48455   0.00000  Uiso   1.00
C477   C     0.15199   0.47519   0.53163   0.00000  Uiso   1.00
H478   H     0.14812   0.44128   0.55138   0.00000  Uiso   1.00
H479   H     0.17285   0.49966   0.55472   0.00000  Uiso   1.00
H480   H     0.11843   0.49095   0.52647   0.00000  Uiso   1.00
C481   C     0.66417   0.24989   0.50021   0.00000  Uiso   1.00
C482   C     0.83590   0.25005   0.49593   0.00000  Uiso   1.00
C483   C     0.72553   0.10162   0.46433   0.00000  Uiso   1.00
C484   C     0.78715   0.39831   0.51613   0.00000  Uiso   1.00
C485   C     0.77452   0.10158   0.53570   0.00000  Uiso   1.00
C486   C     0.71265   0.39830   0.48469   0.00000  Uiso   1.00
C487   C     0.72645   0.05236   0.46285   0.00000  Uiso   1.00
C488   C     0.78957   0.44714   0.50964   0.00000  Uiso   1.00
C489   C     0.77371   0.05231   0.53723   0.00000  Uiso   1.00
C490   C     0.71042   0.44712   0.49101   0.00000  Uiso   1.00
C491   C     0.74980   0.25005   0.40623   0.00000  Uiso   1.00
C492   C     0.75012   0.24995   0.59376   0.00000  Uiso   1.00
C493   C     0.75013   0.02643   0.50005   0.00000  Uiso   1.00
C494   C     0.75006   0.47317   0.50016   0.00000  Uiso   1.00
C495   C     0.74988   0.25006   0.35508   0.00000  Uiso   1.00
C496   C     0.74999   0.24991   0.64491   0.00000  Uiso   1.00
C497   C     0.54724   0.27337   0.45717   0.00000  Uiso   1.00
C498   C     0.95185   0.20581   0.47869   0.00000  Uiso   1.00
C499   C     0.95472   0.28943   0.49668   0.00000  Uiso   1.00
C500   C     0.54716   0.21876   0.52751   0.00000  Uiso   1.00
C501   C     0.59371   0.27532   0.46116   0.00000  Uiso   1.00
C502   C     0.90564   0.20723   0.47731   0.00000  Uiso   1.00
C503   C     0.90878   0.29166   0.49158   0.00000  Uiso   1.00
C504   C     0.59331   0.22078   0.53188   0.00000  Uiso   1.00
C505   C     0.61632   0.24937   0.49865   0.00000  Uiso   1.00
C506   C     0.88368   0.24986   0.48716   0.00000  Uiso   1.00
C507   C     0.52435   0.24560   0.49089   0.00000  Uiso   1.00
C508   C     0.97618   0.24670   0.48939   0.00000  Uiso   1.00
N509   N     0.75000   0.12624   0.50000   0.00000  Uiso   1.00
N510   N     0.75000   0.37377   0.50000   0.00000  Uiso   1.00
O511   O     0.68453   0.28974   0.50000   0.00000  Uiso   1.00
O512   O     0.81547   0.21026   0.50000   0.00000  Uiso   1.00
O513   O     0.81547   0.28974   0.50000   0.00000  Uiso   1.00
O514   O     0.68453   0.21026   0.50000   0.00000  Uiso   1.00
O515   O     0.75000   0.28973   0.42845   0.00000  Uiso   1.00
O516   O     0.75000   0.21027   0.57155   0.00000  Uiso   1.00
O517   O     0.75000   0.28973   0.57155   0.00000  Uiso   1.00
O518   O     0.75000   0.21027   0.42845   0.00000  Uiso   1.00
Zn519  Zn    0.75000   0.30307   0.50000   0.00000  Uiso   1.00
Zn520  Zn    0.75000   0.19693   0.50000   0.00000  Uiso   1.00
O521   O     0.69968   0.12360   0.42796   0.00000  Uiso   1.00
H522   H     0.69357   0.15540   0.43902   0.00000  Uiso   1.00
O523   O     0.82254   0.37654   0.54018   0.00000  Uiso   1.00
H524   H     0.81023   0.35012   0.55894   0.00000  Uiso   1.00
O525   O     0.80024   0.12349   0.57215   0.00000  Uiso   1.00
H526   H     0.80612   0.15549   0.56124   0.00000  Uiso   1.00
O527   O     0.67660   0.37631   0.46235   0.00000  Uiso   1.00
H528   H     0.68883   0.35144   0.44157   0.00000  Uiso   1.00
O529   O     0.52425   0.30133   0.42271   0.00000  Uiso   1.00
C530   C     0.51380   0.27504   0.37965   0.00000  Uiso   1.00
H531   H     0.98345   0.25373   0.38467   0.00000  Uiso   1.00
H532   H     0.54192   0.25252   0.36885   0.00000  Uiso   1.00
H533   H     0.50633   0.29955   0.34842   0.00000  Uiso   1.00
O534   O     0.97297   0.16337   0.47277   0.00000  Uiso   1.00
C535   C     0.98216   0.15752   0.42235   0.00000  Uiso   1.00
H536   H     0.51163   0.17860   0.41285   0.00000  Uiso   1.00
H537   H     0.95307   0.16603   0.39685   0.00000  Uiso   1.00
H538   H     0.99058   0.12034   0.41628   0.00000  Uiso   1.00
O539   O     0.97872   0.33040   0.50382   0.00000  Uiso   1.00
C540   C     0.98672   0.33727   0.55519   0.00000  Uiso   1.00
H541   H     0.51224   0.31240   0.57027   0.00000  Uiso   1.00
H542   H     0.95570   0.33454   0.57616   0.00000  Uiso   1.00
H543   H     0.50022   0.37302   0.56104   0.00000  Uiso   1.00
O544   O     0.52452   0.18894   0.55818   0.00000  Uiso   1.00
C545   C     0.51430   0.21299   0.60172   0.00000  Uiso   1.00
H546   H     0.98562   0.23678   0.59439   0.00000  Uiso   1.00
H547   H     0.54340   0.23269   0.61793   0.00000  Uiso   1.00
H548   H     0.50434   0.18710   0.62988   0.00000  Uiso   1.00
O549   O     0.61813   0.30070   0.42802   0.00000  Uiso   1.00
H550   H     0.59805   0.31781   0.40427   0.00000  Uiso   1.00
O551   O     0.88319   0.16655   0.46511   0.00000  Uiso   1.00
H552   H     0.85915   0.17479   0.44025   0.00000  Uiso   1.00
O553   O     0.88979   0.33532   0.49077   0.00000  Uiso   1.00
H554   H     0.86866   0.33630   0.46147   0.00000  Uiso   1.00
O555   O     0.61436   0.19493   0.56944   0.00000  Uiso   1.00
H556   H     0.64389   0.20873   0.57804   0.00000  Uiso   1.00
O557   O     0.70164   0.03027   0.42552   0.00000  Uiso   1.00
C558   C     0.73015   0.01789   0.38790   0.00000  Uiso   1.00
H559   H     0.75261   0.48884   0.39996   0.00000  Uiso   1.00
H560   H     0.75000   0.04844   0.37583   0.00000  Uiso   1.00
H561   H     0.70938   0.00532   0.35562   0.00000  Uiso   1.00
O562   O     0.83041   0.46893   0.51638   0.00000  Uiso   1.00
C563   C     0.84906   0.47390   0.46962   0.00000  Uiso   1.00
H564   H     0.85363   0.43938   0.45162   0.00000  Uiso   1.00
H565   H     0.82851   0.49731   0.44485   0.00000  Uiso   1.00
H566   H     0.88241   0.49023   0.47498   0.00000  Uiso   1.00
O567   O     0.79842   0.03021   0.57474   0.00000  Uiso   1.00
C568   C     0.76977   0.01734   0.61220   0.00000  Uiso   1.00
H569   H     0.74787   0.48777   0.60027   0.00000  Uiso   1.00
H570   H     0.74930   0.04747   0.62370   0.00000  Uiso   1.00
H571   H     0.79046   0.00532   0.64484   0.00000  Uiso   1.00
O572   O     0.66958   0.46882   0.48455   0.00000  Uiso   1.00
C573   C     0.65199   0.47519   0.53163   0.00000  Uiso   1.00
H574   H     0.64812   0.44128   0.55138   0.00000  Uiso   1.00
H575   H     0.67285   0.49966   0.55472   0.00000  Uiso   1.00
H576   H     0.61843   0.49095   0.52647   0.00000  Uiso   1.00
C577   C     0.16417   0.74989   0.50021   0.00000  Uiso   1.00
C578   C     0.33590   0.75005   0.49593   0.00000  Uiso   1.00
C579   C     0.22553   0.60162   0.46433   0.00000  Uiso   1.00
C580   C     0.28715   0.89831   0.51613   0.00000  Uiso   1.00
C581   C     0.27452   0.60158   0.53570   0.00000  Uiso   1.00
C582   C     0.21265   0.89830   0.48469   0.00000  Uiso   1.00
C583   C     0.22645   0.55236   0.46285   0.00000  Uiso   1.00
C584   C     0.28957   0.94714   0.50964   0.00000  Uiso   1.00
C585   C     0.27371   0.55231   0.53723   0.00000  Uiso   1.00
C586   C     0.21042   0.94712   0.49101   0.00000  Uiso   1.00
C587   C     0.24980   0.75005   0.40623   0.00000  Uiso   1.00
C588   C     0.25012   0.74995   0.59376   0.00000  Uiso   1.00
C589   C     0.25013   0.52643   0.50005   0.00000  Uiso   1.00
C590   C     0.25006   0.97317   0.50016   0.00000  Uiso   1.00
C591   C     0.24988   0.75006   0.35508   0.00000  Uiso   1.00
C592   C     0.24999   0.74991   0.64491   0.00000  Uiso   1.00
C593   C     0.04724   0.77337   0.45717   0.00000  Uiso   1.00
C594   C     0.45185   0.70581   0.47869   0.00000  Uiso   1.00
C595   C     0.45472   0.78943   0.49668   0.00000  Uiso   1.00
C596   C     0.04716   0.71876   0.52751   0.00000  Uiso   1.00
C597   C     0.09371   0.77532   0.46116   0.00000  Uiso   1.00
C598   C     0.40564   0.70723   0.47731   0.00000  Uiso   1.00
C599   C     0.40878   0.79166   0.49158   0.00000  Uiso   1.00
C600   C     0.09331   0.72078   0.53188   0.00000  Uiso   1.00
C601   C     0.11632   0.74937   0.49865   0.00000  Uiso   1.00
C602   C     0.38368   0.74986   0.48716   0.00000  Uiso   1.00
C603   C     0.02435   0.74560   0.49089   0.00000  Uiso   1.00
C604   C     0.47618   0.74670   0.48939   0.00000  Uiso   1.00
N605   N     0.25000   0.62624   0.50000   0.00000  Uiso   1.00
N606   N     0.25000   0.87377   0.50000   0.00000  Uiso   1.00
O607   O     0.18453   0.78974   0.50000   0.00000  Uiso   1.00
O608   O     0.31547   0.71026   0.50000   0.00000  Uiso   1.00
O609   O     0.31547   0.78974   0.50000   0.00000  Uiso   1.00
O610   O     0.18453   0.71026   0.50000   0.00000  Uiso   1.00
O611   O     0.25000   0.78973   0.42845   0.00000  Uiso   1.00
O612   O     0.25000   0.71027   0.57155   0.00000  Uiso   1.00
O613   O     0.25000   0.78973   0.57155   0.00000  Uiso   1.00
O614   O     0.25000   0.71027   0.42845   0.00000  Uiso   1.00
Zn615  Zn    0.25000   0.80307   0.50000   0.00000  Uiso   1.00
Zn616  Zn    0.25000   0.69693   0.50000   0.00000  Uiso   1.00
O617   O     0.19968   0.62360   0.42796   0.00000  Uiso   1.00
H618   H     0.19357   0.65540   0.43902   0.00000  Uiso   1.00
O619   O     0.32254   0.87654   0.54018   0.00000  Uiso   1.00
H620   H     0.31023   0.85012   0.55894   0.00000  Uiso   1.00
O621   O     0.30024   0.62349   0.57215   0.00000  Uiso   1.00
H622   H     0.30612   0.65549   0.56124   0.00000  Uiso   1.00
O623   O     0.17660   0.87631   0.46235   0.00000  Uiso   1.00
H624   H     0.18883   0.85144   0.44157   0.00000  Uiso   1.00
O625   O     0.02425   0.80133   0.42271   0.00000  Uiso   1.00
C626   C     0.01380   0.77504   0.37965   0.00000  Uiso   1.00
H627   H     0.48345   0.75373   0.38467   0.00000  Uiso   1.00
H628   H     0.04192   0.75252   0.36885   0.00000  Uiso   1.00
H629   H     0.00633   0.79955   0.34842   0.00000  Uiso   1.00
O630   O     0.47297   0.66337   0.47277   0.00000  Uiso   1.00
C631   C     0.48216   0.65752   0.42235   0.00000  Uiso   1.00
H632   H     0.01163   0.67860   0.41285   0.00000  Uiso   1.00
H633   H     0.45307   0.66603   0.39685   0.00000  Uiso   1.00
H634   H     0.49058   0.62034   0.41628   0.00000  Uiso   1.00
O635   O     0.47872   0.83040   0.50382   0.00000  Uiso   1.00
C636   C     0.48672   0.83727   0.55519   0.00000  Uiso   1.00
H637   H     0.01224   0.81240   0.57027   0.00000  Uiso   1.00
H638   H     0.45570   0.83454   0.57616   0.00000  Uiso   1.00
H639   H     0.00022   0.87302   0.56104   0.00000  Uiso   1.00
O640   O     0.02452   0.68894   0.55818   0.00000  Uiso   1.00
C641   C     0.01430   0.71299   0.60172   0.00000  Uiso   1.00
H642   H     0.48562   0.73678   0.59439   0.00000  Uiso   1.00
H643   H     0.04340   0.73269   0.61793   0.00000  Uiso   1.00
H644   H     0.00434   0.68710   0.62988   0.00000  Uiso   1.00
O645   O     0.11813   0.80070   0.42802   0.00000  Uiso   1.00
H646   H     0.09805   0.81781   0.40427   0.00000  Uiso   1.00
O647   O     0.38319   0.66655   0.46511   0.00000  Uiso   1.00
H648   H     0.35915   0.67479   0.44025   0.00000  Uiso   1.00
O649   O     0.38979   0.83532   0.49077   0.00000  Uiso   1.00
H650   H     0.36866   0.83630   0.46147   0.00000  Uiso   1.00
O651   O     0.11436   0.69493   0.56944   0.00000  Uiso   1.00
H652   H     0.14389   0.70873   0.57804   0.00000  Uiso   1.00
O653   O     0.20164   0.53027   0.42552   0.00000  Uiso   1.00
C654   C     0.23015   0.51789   0.38790   0.00000  Uiso   1.00
H655   H     0.25261   0.98884   0.39996   0.00000  Uiso   1.00
H656   H     0.25000   0.54844   0.37583   0.00000  Uiso   1.00
H657   H     0.20938   0.50532   0.35562   0.00000  Uiso   1.00
O658   O     0.33041   0.96893   0.51638   0.00000  Uiso   1.00
C659   C     0.34906   0.97390   0.46962   0.00000  Uiso   1.00
H660   H     0.35363   0.93938   0.45162   0.00000  Uiso   1.00
H661   H     0.32851   0.99731   0.44485   0.00000  Uiso   1.00
H662   H     0.38241   0.99023   0.47498   0.00000  Uiso   1.00
O663   O     0.29842   0.53021   0.57474   0.00000  Uiso   1.00
C664   C     0.26977   0.51734   0.61220   0.00000  Uiso   1.00
H665   H     0.24787   0.98777   0.60027   0.00000  Uiso   1.00
H666   H     0.24930   0.54747   0.62370   0.00000  Uiso   1.00
H667   H     0.29046   0.50532   0.64484   0.00000  Uiso   1.00
O668   O     0.16958   0.96882   0.48455   0.00000  Uiso   1.00
C669   C     0.15199   0.97519   0.53163   0.00000  Uiso   1.00
H670   H     0.14812   0.94128   0.55138   0.00000  Uiso   1.00
H671   H     0.17285   0.99966   0.55472   0.00000  Uiso   1.00
H672   H     0.11843   0.99095   0.52647   0.00000  Uiso   1.00
C673   C     0.66417   0.74989   0.50021   0.00000  Uiso   1.00
C674   C     0.83590   0.75005   0.49593   0.00000  Uiso   1.00
C675   C     0.72553   0.60162   0.46433   0.00000  Uiso   1.00
C676   C     0.78715   0.89831   0.51613   0.00000  Uiso   1.00
C677   C     0.77452   0.60158   0.53570   0.00000  Uiso   1.00
C678   C     0.71265   0.89830   0.48469   0.00000  Uiso   1.00
C679   C     0.72645   0.55236   0.46285   0.00000  Uiso   1.00
C680   C     0.78957   0.94714   0.50964   0.00000  Uiso   1.00
C681   C     0.77371   0.55231   0.53723   0.00000  Uiso   1.00
C682   C     0.71042   0.94712   0.49101   0.00000  Uiso   1.00
C683   C     0.74980   0.75005   0.40623   0.00000  Uiso   1.00
C684   C     0.75012   0.74995   0.59376   0.00000  Uiso   1.00
C685   C     0.75013   0.52643   0.50005   0.00000  Uiso   1.00
C686   C     0.75006   0.97317   0.50016   0.00000  Uiso   1.00
C687   C     0.74988   0.75006   0.35508   0.00000  Uiso   1.00
C688   C     0.74999   0.74991   0.64491   0.00000  Uiso   1.00
C689   C     0.54724   0.77337   0.45717   0.00000  Uiso   1.00
C690   C     0.95185   0.70581   0.47869   0.00000  Uiso   1.00
C691   C     0.95472   0.78943   0.49668   0.00000  Uiso   1.00
C692   C     0.54716   0.71876   0.52751   0.00000  Uiso   1.00
C693   C     0.59371   0.77532   0.46116   0.00000  Uiso   1.00
C694   C     0.90564   0.70723   0.47731   0.00000  Uiso   1.00
C695   C     0.90878   0.79166   0.49158   0.00000  Uiso   1.00
C696   C     0.59331   0.72078   0.53188   0.00000  Uiso   1.00
C697   C     0.61632   0.74937   0.49865   0.00000  Uiso   1.00
C698   C     0.88368   0.74986   0.48716   0.00000  Uiso   1.00
C699   C     0.52435   0.74560   0.49089   0.00000  Uiso   1.00
C700   C     0.97618   0.74670   0.48939   0.00000  Uiso   1.00
N701   N     0.75000   0.62624   0.50000   0.00000  Uiso   1.00
N702   N     0.75000   0.87377   0.50000   0.00000  Uiso   1.00
O703   O     0.68453   0.78974   0.50000   0.00000  Uiso   1.00
O704   O     0.81547   0.71026   0.50000   0.00000  Uiso   1.00
O705   O     0.81547   0.78974   0.50000   0.00000  Uiso   1.00
O706   O     0.68453   0.71026   0.50000   0.00000  Uiso   1.00
O707   O     0.75000   0.78973   0.42845   0.00000  Uiso   1.00
O708   O     0.75000   0.71027   0.57155   0.00000  Uiso   1.00
O709   O     0.75000   0.78973   0.57155   0.00000  Uiso   1.00
O710   O     0.75000   0.71027   0.42845   0.00000  Uiso   1.00
Zn711  Zn    0.75000   0.80307   0.50000   0.00000  Uiso   1.00
Zn712  Zn    0.75000   0.69693   0.50000   0.00000  Uiso   1.00
O713   O     0.69968   0.62360   0.42796   0.00000  Uiso   1.00
H714   H     0.69357   0.65540   0.43902   0.00000  Uiso   1.00
O715   O     0.82254   0.87654   0.54018   0.00000  Uiso   1.00
H716   H     0.81023   0.85012   0.55894   0.00000  Uiso   1.00
O717   O     0.80024   0.62349   0.57215   0.00000  Uiso   1.00
H718   H     0.80612   0.65549   0.56124   0.00000  Uiso   1.00
O719   O     0.67660   0.87631   0.46235   0.00000  Uiso   1.00
H720   H     0.68883   0.85144   0.44157   0.00000  Uiso   1.00
O721   O     0.52425   0.80133   0.42271   0.00000  Uiso   1.00
C722   C     0.51380   0.77504   0.37965   0.00000  Uiso   1.00
H723   H     0.98345   0.75373   0.38467   0.00000  Uiso   1.00
H724   H     0.54192   0.75252   0.36885   0.00000  Uiso   1.00
H725   H     0.50633   0.79955   0.34842   0.00000  Uiso   1.00
O726   O     0.97297   0.66337   0.47277   0.00000  Uiso   1.00
C727   C     0.98216   0.65752   0.42235   0.00000  Uiso   1.00
H728   H     0.51163   0.67860   0.41285   0.00000  Uiso   1.00
H729   H     0.95307   0.66603   0.39685   0.00000  Uiso   1.00
H730   H     0.99058   0.62034   0.41628   0.00000  Uiso   1.00
O731   O     0.97872   0.83040   0.50382   0.00000  Uiso   1.00
C732   C     0.98672   0.83727   0.55519   0.00000  Uiso   1.00
H733   H     0.51224   0.81240   0.57027   0.00000  Uiso   1.00
H734   H     0.95570   0.83454   0.57616   0.00000  Uiso   1.00
H735   H     0.50022   0.87302   0.56104   0.00000  Uiso   1.00
O736   O     0.52452   0.68894   0.55818   0.00000  Uiso   1.00
C737   C     0.51430   0.71299   0.60172   0.00000  Uiso   1.00
H738   H     0.98562   0.73678   0.59439   0.00000  Uiso   1.00
H739   H     0.54340   0.73269   0.61793   0.00000  Uiso   1.00
H740   H     0.50434   0.68710   0.62988   0.00000  Uiso   1.00
O741   O     0.61813   0.80070   0.42802   0.00000  Uiso   1.00
H742   H     0.59805   0.81781   0.40427   0.00000  Uiso   1.00
O743   O     0.88319   0.66655   0.46511   0.00000  Uiso   1.00
H744   H     0.85915   0.67479   0.44025   0.00000  Uiso   1.00
O745   O     0.88979   0.83532   0.49077   0.00000  Uiso   1.00
H746   H     0.86866   0.83630   0.46147   0.00000  Uiso   1.00
O747   O     0.61436   0.69493   0.56944   0.00000  Uiso   1.00
H748   H     0.64389   0.70873   0.57804   0.00000  Uiso   1.00
O749   O     0.70164   0.53027   0.42552   0.00000  Uiso   1.00
C750   C     0.73015   0.51789   0.38790   0.00000  Uiso   1.00
H751   H     0.75261   0.98884   0.39996   0.00000  Uiso   1.00
H752   H     0.75000   0.54844   0.37583   0.00000  Uiso   1.00
H753   H     0.70938   0.50532   0.35562   0.00000  Uiso   1.00
O754   O     0.83041   0.96893   0.51638   0.00000  Uiso   1.00
C755   C     0.84906   0.97390   0.46962   0.00000  Uiso   1.00
H756   H     0.85363   0.93938   0.45162   0.00000  Uiso   1.00
H757   H     0.82851   0.99731   0.44485   0.00000  Uiso   1.00
H758   H     0.88241   0.99023   0.47498   0.00000  Uiso   1.00
O759   O     0.79842   0.53021   0.57474   0.00000  Uiso   1.00
C760   C     0.76977   0.51734   0.61220   0.00000  Uiso   1.00
H761   H     0.74787   0.98777   0.60027   0.00000  Uiso   1.00
H762   H     0.74930   0.54747   0.62370   0.00000  Uiso   1.00
H763   H     0.79046   0.50532   0.64484   0.00000  Uiso   1.00
O764   O     0.66958   0.96882   0.48455   0.00000  Uiso   1.00
C765   C     0.65199   0.97519   0.53163   0.00000  Uiso   1.00
H766   H     0.64812   0.94128   0.55138   0.00000  Uiso   1.00
H767   H     0.67285   0.99966   0.55472   0.00000  Uiso   1.00
H768   H     0.61843   0.99095   0.52647   0.00000  Uiso   1.00
C769   C     0.16417   0.24989   0.83354   0.00000  Uiso   1.00
C770   C     0.33590   0.25005   0.82926   0.00000  Uiso   1.00
C771   C     0.22553   0.10162   0.79766   0.00000  Uiso   1.00
C772   C     0.28715   0.39831   0.84946   0.00000  Uiso   1.00
C773   C     0.27452   0.10158   0.86904   0.00000  Uiso   1.00
C774   C     0.21265   0.39830   0.81803   0.00000  Uiso   1.00
C775   C     0.22645   0.05236   0.79619   0.00000  Uiso   1.00
C776   C     0.28957   0.44714   0.84297   0.00000  Uiso   1.00
C777   C     0.27371   0.05231   0.87056   0.00000  Uiso   1.00
C778   C     0.21042   0.44712   0.82434   0.00000  Uiso   1.00
C779   C     0.24980   0.25005   0.73956   0.00000  Uiso   1.00
C780   C     0.25012   0.24995   0.92710   0.00000  Uiso   1.00
C781   C     0.25013   0.02643   0.83338   0.00000  Uiso   1.00
C782   C     0.25006   0.47317   0.83350   0.00000  Uiso   1.00
C783   C     0.24988   0.25006   0.68841   0.00000  Uiso   1.00
C784   C     0.24999   0.24991   0.97824   0.00000  Uiso   1.00
C785   C     0.04724   0.27337   0.79050   0.00000  Uiso   1.00
C786   C     0.45185   0.20581   0.81202   0.00000  Uiso   1.00
C787   C     0.45472   0.28943   0.83001   0.00000  Uiso   1.00
C788   C     0.04716   0.21876   0.86084   0.00000  Uiso   1.00
C789   C     0.09371   0.27532   0.79449   0.00000  Uiso   1.00
C790   C     0.40564   0.20723   0.81065   0.00000  Uiso   1.00
C791   C     0.40878   0.29166   0.82491   0.00000  Uiso   1.00
C792   C     0.09331   0.22078   0.86521   0.00000  Uiso   1.00
C793   C     0.11632   0.24937   0.83199   0.00000  Uiso   1.00
C794   C     0.38368   0.24986   0.82049   0.00000  Uiso   1.00
C795   C     0.02435   0.24560   0.82422   0.00000  Uiso   1.00
C796   C     0.47618   0.24670   0.82272   0.00000  Uiso   1.00
N797   N     0.25000   0.12624   0.83333   0.00000  Uiso   1.00
N798   N     0.25000   0.37377   0.83333   0.00000  Uiso   1.00
O799   O     0.18453   0.28974   0.83334   0.00000  Uiso   1.00
O800   O     0.31547   0.21026   0.83333   0.00000  Uiso   1.00
O801   O     0.31547   0.28974   0.83333   0.00000  Uiso   1.00
O802   O     0.18453   0.21026   0.83334   0.00000  Uiso   1.00
O803   O     0.25000   0.28973   0.76178   0.00000  Uiso   1.00
O804   O     0.25000   0.21027   0.90489   0.00000  Uiso   1.00
O805   O     0.25000   0.28973   0.90489   0.00000  Uiso   1.00
O806   O     0.25000   0.21027   0.76178   0.00000  Uiso   1.00
Zn807  Zn    0.25000   0.30307   0.83333   0.00000  Uiso   1.00
Zn808  Zn    0.25000   0.19693   0.83333   0.00000  Uiso   1.00
O809   O     0.19968   0.12360   0.76129   0.00000  Uiso   1.00
H810   H     0.19357   0.15540   0.77236   0.00000  Uiso   1.00
O811   O     0.32254   0.37654   0.87351   0.00000  Uiso   1.00
H812   H     0.31023   0.35012   0.89227   0.00000  Uiso   1.00
O813   O     0.30024   0.12349   0.90548   0.00000  Uiso   1.00
H814   H     0.30612   0.15549   0.89457   0.00000  Uiso   1.00
O815   O     0.17660   0.37631   0.79569   0.00000  Uiso   1.00
H816   H     0.18883   0.35144   0.77491   0.00000  Uiso   1.00
O817   O     0.02425   0.30133   0.75605   0.00000  Uiso   1.00
C818   C     0.01380   0.27504   0.71298   0.00000  Uiso   1.00
H819   H     0.48345   0.25373   0.71800   0.00000  Uiso   1.00
H820   H     0.04192   0.25252   0.70219   0.00000  Uiso   1.00
H821   H     0.00633   0.29955   0.68175   0.00000  Uiso   1.00
O822   O     0.47297   0.16337   0.80611   0.00000  Uiso   1.00
C823   C     0.48216   0.15752   0.75568   0.00000  Uiso   1.00
H824   H     0.01163   0.17860   0.74619   0.00000  Uiso   1.00
H825   H     0.45307   0.16603   0.73018   0.00000  Uiso   1.00
H826   H     0.49058   0.12034   0.74961   0.00000  Uiso   1.00
O827   O     0.47872   0.33040   0.83715   0.00000  Uiso   1.00
C828   C     0.48672   0.33727   0.88853   0.00000  Uiso   1.00
H829   H     0.01224   0.31240   0.90360   0.00000  Uiso   1.00
H830   H     0.45570   0.33454   0.90950   0.00000  Uiso   1.00
H831   H     0.00022   0.37302   0.89437   0.00000  Uiso   1.00
O832   O     0.02452   0.18894   0.89151   0.00000  Uiso   1.00
C833   C     0.01430   0.21299   0.93505   0.00000  Uiso   1.00
H834   H     0.48562   0.23678   0.92773   0.00000  Uiso   1.00
H835   H     0.04340   0.23269   0.95126   0.00000  Uiso   1.00
H836   H     0.00434   0.18710   0.96322   0.00000  Uiso   1.00
O837   O     0.11813   0.30070   0.76135   0.00000  Uiso   1.00
H838   H     0.09805   0.31781   0.73761   0.00000  Uiso   1.00
O839   O     0.38319   0.16655   0.79844   0.00000  Uiso   1.00
H840   H     0.35915   0.17479   0.77358   0.00000  Uiso   1.00
O841   O     0.38979   0.33532   0.82410   0.00000  Uiso   1.00
H842   H     0.36866   0.33630   0.79480   0.00000  Uiso   1.00
O843   O     0.11436   0.19493   0.90277   0.00000  Uiso   1.00
H844   H     0.14389   0.20873   0.91137   0.00000  Uiso   1.00
O845   O     0.20164   0.03027   0.75886   0.00000  Uiso   1.00
C846   C     0.23015   0.01789   0.72124   0.00000  Uiso   1.00
H847   H     0.25261   0.48884   0.73329   0.00000  Uiso   1.00
H848   H     0.25000   0.04844   0.70917   0.00000  Uiso   1.00
H849   H     0.20938   0.00532   0.68896   0.00000  Uiso   1.00
O850   O     0.33041   0.46893   0.84972   0.00000  Uiso   1.00
C851   C     0.34906   0.47390   0.80295   0.00000  Uiso   1.00
H852   H     0.35363   0.43938   0.78496   0.00000  Uiso   1.00
H853   H     0.32851   0.49731   0.77818   0.00000  Uiso   1.00
H854   H     0.38241   0.49023   0.80831   0.00000  Uiso   1.00
O855   O     0.29842   0.03021   0.90807   0.00000  Uiso   1.00
C856   C     0.26977   0.01734   0.94554   0.00000  Uiso   1.00
H857   H     0.24787   0.48777   0.93360   0.00000  Uiso   1.00
H858   H     0.24930   0.04747   0.95703   0.00000  Uiso   1.00
H859   H     0.29046   0.00532   0.97817   0.00000  Uiso   1.00
O860   O     0.16958   0.46882   0.81788   0.00000  Uiso   1.00
C861   C     0.15199   0.47519   0.86496   0.00000  Uiso   1.00
H862   H     0.14812   0.44128   0.88471   0.00000  Uiso   1.00
H863   H     0.17285   0.49966   0.88805   0.00000  Uiso   1.00
H864   H     0.11843   0.49095   0.85980   0.00000  Uiso   1.00
C865   C     0.66417   0.24989   0.83354   0.00000  Uiso   1.00
C866   C     0.83590   0.25005   0.82926   0.00000  Uiso   1.00
C867   C     0.72553   0.10162   0.79766   0.00000  Uiso   1.00
C868   C     0.78715   0.39831   0.84946   0.00000  Uiso   1.00
C869   C     0.77452   0.10158   0.86904   0.00000  Uiso   1.00
C870   C     0.71265   0.39830   0.81803   0.00000  Uiso   1.00
C871   C     0.72645   0.05236   0.79619   0.00000  Uiso   1.00
C872   C     0.78957   0.44714   0.84297   0.00000  Uiso   1.00
C873   C     0.77371   0.05231   0.87056   0.00000  Uiso   1.00
C874   C     0.71042   0.44712   0.82434   0.00000  Uiso   1.00
C875   C     0.74980   0.25005   0.73956   0.00000  Uiso   1.00
C876   C     0.75012   0.24995   0.92710   0.00000  Uiso   1.00
C877   C     0.75013   0.02643   0.83338   0.00000  Uiso   1.00
C878   C     0.75006   0.47317   0.83350   0.00000  Uiso   1.00
C879   C     0.74988   0.25006   0.68841   0.00000  Uiso   1.00
C880   C     0.74999   0.24991   0.97824   0.00000  Uiso   1.00
C881   C     0.54724   0.27337   0.79050   0.00000  Uiso   1.00
C882   C     0.95185   0.20581   0.81202   0.00000  Uiso   1.00
C883   C     0.95472   0.28943   0.83001   0.00000  Uiso   1.00
C884   C     0.54716   0.21876   0.86084   0.00000  Uiso   1.00
C885   C     0.59371   0.27532   0.79449   0.00000  Uiso   1.00
C886   C     0.90564   0.20723   0.81065   0.00000  Uiso   1.00
C887   C     0.90878   0.29166   0.82491   0.00000  Uiso   1.00
C888   C     0.59331   0.22078   0.86521   0.00000  Uiso   1.00
C889   C     0.61632   0.24937   0.83199   0.00000  Uiso   1.00
C890   C     0.88368   0.24986   0.82049   0.00000  Uiso   1.00
C891   C     0.52435   0.24560   0.82422   0.00000  Uiso   1.00
C892   C     0.97618   0.24670   0.82272   0.00000  Uiso   1.00
N893   N     0.75000   0.12624   0.83333   0.00000  Uiso   1.00
N894   N     0.75000   0.37377   0.83333   0.00000  Uiso   1.00
O895   O     0.68453   0.28974   0.83334   0.00000  Uiso   1.00
O896   O     0.81547   0.21026   0.83333   0.00000  Uiso   1.00
O897   O     0.81547   0.28974   0.83333   0.00000  Uiso   1.00
O898   O     0.68453   0.21026   0.83334   0.00000  Uiso   1.00
O899   O     0.75000   0.28973   0.76178   0.00000  Uiso   1.00
O900   O     0.75000   0.21027   0.90489   0.00000  Uiso   1.00
O901   O     0.75000   0.28973   0.90489   0.00000  Uiso   1.00
O902   O     0.75000   0.21027   0.76178   0.00000  Uiso   1.00
Zn903  Zn    0.75000   0.30307   0.83333   0.00000  Uiso   1.00
Zn904  Zn    0.75000   0.19693   0.83333   0.00000  Uiso   1.00
O905   O     0.69968   0.12360   0.76129   0.00000  Uiso   1.00
H906   H     0.69357   0.15540   0.77236   0.00000  Uiso   1.00
O907   O     0.82254   0.37654   0.87351   0.00000  Uiso   1.00
H908   H     0.81023   0.35012   0.89227   0.00000  Uiso   1.00
O909   O     0.80024   0.12349   0.90548   0.00000  Uiso   1.00
H910   H     0.80612   0.15549   0.89457   0.00000  Uiso   1.00
O911   O     0.67660   0.37631   0.79569   0.00000  Uiso   1.00
H912   H     0.68883   0.35144   0.77491   0.00000  Uiso   1.00
O913   O     0.52425   0.30133   0.75605   0.00000  Uiso   1.00
C914   C     0.51380   0.27504   0.71298   0.00000  Uiso   1.00
H915   H     0.98345   0.25373   0.71800   0.00000  Uiso   1.00
H916   H     0.54192   0.25252   0.70219   0.00000  Uiso   1.00
H917   H     0.50633   0.29955   0.68175   0.00000  Uiso   1.00
O918   O     0.97297   0.16337   0.80611   0.00000  Uiso   1.00
C919   C     0.98216   0.15752   0.75568   0.00000  Uiso   1.00
H920   H     0.51163   0.17860   0.74619   0.00000  Uiso   1.00
H921   H     0.95307   0.16603   0.73018   0.00000  Uiso   1.00
H922   H     0.99058   0.12034   0.74961   0.00000  Uiso   1.00
O923   O     0.97872   0.33040   0.83715   0.00000  Uiso   1.00
C924   C     0.98672   0.33727   0.88853   0.00000  Uiso   1.00
H925   H     0.51224   0.31240   0.90360   0.00000  Uiso   1.00
H926   H     0.95570   0.33454   0.90950   0.00000  Uiso   1.00
H927   H     0.50022   0.37302   0.89437   0.00000  Uiso   1.00
O928   O     0.52452   0.18894   0.89151   0.00000  Uiso   1.00
C929   C     0.51430   0.21299   0.93505   0.00000  Uiso   1.00
H930   H     0.98562   0.23678   0.92773   0.00000  Uiso   1.00
H931   H     0.54340   0.23269   0.95126   0.00000  Uiso   1.00
H932   H     0.50434   0.18710   0.96322   0.00000  Uiso   1.00
O933   O     0.61813   0.30070   0.76135   0.00000  Uiso   1.00
H934   H     0.59805   0.31781   0.73761   0.00000  Uiso   1.00
O935   O     0.88319   0.16655   0.79844   0.00000  Uiso   1.00
H936   H     0.85915   0.17479   0.77358   0.00000  Uiso   1.00
O937   O     0.88979   0.33532   0.82410   0.00000  Uiso   1.00
H938   H     0.86866   0.33630   0.79480   0.00000  Uiso   1.00
O939   O     0.61436   0.19493   0.90277   0.00000  Uiso   1.00
H940   H     0.64389   0.20873   0.91137   0.00000  Uiso   1.00
O941   O     0.70164   0.03027   0.75886   0.00000  Uiso   1.00
C942   C     0.73015   0.01789   0.72124   0.00000  Uiso   1.00
H943   H     0.75261   0.48884   0.73329   0.00000  Uiso   1.00
H944   H     0.75000   0.04844   0.70917   0.00000  Uiso   1.00
H945   H     0.70938   0.00532   0.68896   0.00000  Uiso   1.00
O946   O     0.83041   0.46893   0.84972   0.00000  Uiso   1.00
C947   C     0.84906   0.47390   0.80295   0.00000  Uiso   1.00
H948   H     0.85363   0.43938   0.78496   0.00000  Uiso   1.00
H949   H     0.82851   0.49731   0.77818   0.00000  Uiso   1.00
H950   H     0.88241   0.49023   0.80831   0.00000  Uiso   1.00
O951   O     0.79842   0.03021   0.90807   0.00000  Uiso   1.00
C952   C     0.76977   0.01734   0.94554   0.00000  Uiso   1.00
H953   H     0.74787   0.48777   0.93360   0.00000  Uiso   1.00
H954   H     0.74930   0.04747   0.95703   0.00000  Uiso   1.00
H955   H     0.79046   0.00532   0.97817   0.00000  Uiso   1.00
O956   O     0.66958   0.46882   0.81788   0.00000  Uiso   1.00
C957   C     0.65199   0.47519   0.86496   0.00000  Uiso   1.00
H958   H     0.64812   0.44128   0.88471   0.00000  Uiso   1.00
H959   H     0.67285   0.49966   0.88805   0.00000  Uiso   1.00
H960   H     0.61843   0.49095   0.85980   0.00000  Uiso   1.00
C961   C     0.16417   0.74989   0.83354   0.00000  Uiso   1.00
C962   C     0.33590   0.75005   0.82926   0.00000  Uiso   1.00
C963   C     0.22553   0.60162   0.79766   0.00000  Uiso   1.00
C964   C     0.28715   0.89831   0.84946   0.00000  Uiso   1.00
C965   C     0.27452   0.60158   0.86904   0.00000  Uiso   1.00
C966   C     0.21265   0.89830   0.81803   0.00000  Uiso   1.00
C967   C     0.22645   0.55236   0.79619   0.00000  Uiso   1.00
C968   C     0.28957   0.94714   0.84297   0.00000  Uiso   1.00
C969   C     0.27371   0.55231   0.87056   0.00000  Uiso   1.00
C970   C     0.21042   0.94712   0.82434   0.00000  Uiso   1.00
C971   C     0.24980   0.75005   0.73956   0.00000  Uiso   1.00
C972   C     0.25012   0.74995   0.92710   0.00000  Uiso   1.00
C973   C     0.25013   0.52643   0.83338   0.00000  Uiso   1.00
C974   C     0.25006   0.97317   0.83350   0.00000  Uiso   1.00
C975   C     0.24988   0.75006   0.68841   0.00000  Uiso   1.00
C976   C     0.24999   0.74991   0.97824   0.00000  Uiso   1.00
C977   C     0.04724   0.77337   0.79050   0.00000  Uiso   1.00
C978   C     0.45185   0.70581   0.81202   0.00000  Uiso   1.00
C979   C     0.45472   0.78943   0.83001   0.00000  Uiso   1.00
C980   C     0.04716   0.71876   0.86084   0.00000  Uiso   1.00
C981   C     0.09371   0.77532   0.79449   0.00000  Uiso   1.00
C982   C     0.40564   0.70723   0.81065   0.00000  Uiso   1.00
C983   C     0.40878   0.79166   0.82491   0.00000  Uiso   1.00
C984   C     0.09331   0.72078   0.86521   0.00000  Uiso   1.00
C985   C     0.11632   0.74937   0.83199   0.00000  Uiso   1.00
C986   C     0.38368   0.74986   0.82049   0.00000  Uiso   1.00
C987   C     0.02435   0.74560   0.82422   0.00000  Uiso   1.00
C988   C     0.47618   0.74670   0.82272   0.00000  Uiso   1.00
N989   N     0.25000   0.62624   0.83333   0.00000  Uiso   1.00
N990   N     0.25000   0.87377   0.83333   0.00000  Uiso   1.00
O991   O     0.18453   0.78974   0.83334   0.00000  Uiso   1.00
O992   O     0.31547   0.71026   0.83333   0.00000  Uiso   1.00
O993   O     0.31547   0.78974   0.83333   0.00000  Uiso   1.00
O994   O     0.18453   0.71026   0.83334   0.00000  Uiso   1.00
O995   O     0.25000   0.78973   0.76178   0.00000  Uiso   1.00
O996   O     0.25000   0.71027   0.90489   0.00000  Uiso   1.00
O997   O     0.25000   0.78973   0.90489   0.00000  Uiso   1.00
O998   O     0.25000   0.71027   0.76178   0.00000  Uiso   1.00
Zn999  Zn    0.25000   0.80307   0.83333   0.00000  Uiso   1.00
Zn1000 Zn    0.25000   0.69693   0.83333   0.00000  Uiso   1.00
O1001  O     0.19968   0.62360   0.76129   0.00000  Uiso   1.00
H1002  H     0.19357   0.65540   0.77236   0.00000  Uiso   1.00
O1003  O     0.32254   0.87654   0.87351   0.00000  Uiso   1.00
H1004  H     0.31023   0.85012   0.89227   0.00000  Uiso   1.00
O1005  O     0.30024   0.62349   0.90548   0.00000  Uiso   1.00
H1006  H     0.30612   0.65549   0.89457   0.00000  Uiso   1.00
O1007  O     0.17660   0.87631   0.79569   0.00000  Uiso   1.00
H1008  H     0.18883   0.85144   0.77491   0.00000  Uiso   1.00
O1009  O     0.02425   0.80133   0.75605   0.00000  Uiso   1.00
C1010  C     0.01380   0.77504   0.71298   0.00000  Uiso   1.00
H1011  H     0.48345   0.75373   0.71800   0.00000  Uiso   1.00
H1012  H     0.04192   0.75252   0.70219   0.00000  Uiso   1.00
H1013  H     0.00633   0.79955   0.68175   0.00000  Uiso   1.00
O1014  O     0.47297   0.66337   0.80611   0.00000  Uiso   1.00
C1015  C     0.48216   0.65752   0.75568   0.00000  Uiso   1.00
H1016  H     0.01163   0.67860   0.74619   0.00000  Uiso   1.00
H1017  H     0.45307   0.66603   0.73018   0.00000  Uiso   1.00
H1018  H     0.49058   0.62034   0.74961   0.00000  Uiso   1.00
O1019  O     0.47872   0.83040   0.83715   0.00000  Uiso   1.00
C1020  C     0.48672   0.83727   0.88853   0.00000  Uiso   1.00
H1021  H     0.01224   0.81240   0.90360   0.00000  Uiso   1.00
H1022  H     0.45570   0.83454   0.90950   0.00000  Uiso   1.00
H1023  H     0.00022   0.87302   0.89437   0.00000  Uiso   1.00
O1024  O     0.02452   0.68894   0.89151   0.00000  Uiso   1.00
C1025  C     0.01430   0.71299   0.93505   0.00000  Uiso   1.00
H1026  H     0.48562   0.73678   0.92773   0.00000  Uiso   1.00
H1027  H     0.04340   0.73269   0.95126   0.00000  Uiso   1.00
H1028  H     0.00434   0.68710   0.96322   0.00000  Uiso   1.00
O1029  O     0.11813   0.80070   0.76135   0.00000  Uiso   1.00
H1030  H     0.09805   0.81781   0.73761   0.00000  Uiso   1.00
O1031  O     0.38319   0.66655   0.79844   0.00000  Uiso   1.00
H1032  H     0.35915   0.67479   0.77358   0.00000  Uiso   1.00
O1033  O     0.38979   0.83532   0.82410   0.00000  Uiso   1.00
H1034  H     0.36866   0.83630   0.79480   0.00000  Uiso   1.00
O1035  O     0.11436   0.69493   0.90277   0.00000  Uiso   1.00
H1036  H     0.14389   0.70873   0.91137   0.00000  Uiso   1.00
O1037  O     0.20164   0.53027   0.75886   0.00000  Uiso   1.00
C1038  C     0.23015   0.51789   0.72124   0.00000  Uiso   1.00
H1039  H     0.25261   0.98884   0.73329   0.00000  Uiso   1.00
H1040  H     0.25000   0.54844   0.70917   0.00000  Uiso   1.00
H1041  H     0.20938   0.50532   0.68896   0.00000  Uiso   1.00
O1042  O     0.33041   0.96893   0.84972   0.00000  Uiso   1.00
C1043  C     0.34906   0.97390   0.80295   0.00000  Uiso   1.00
H1044  H     0.35363   0.93938   0.78496   0.00000  Uiso   1.00
H1045  H     0.32851   0.99731   0.77818   0.00000  Uiso   1.00
H1046  H     0.38241   0.99023   0.80831   0.00000  Uiso   1.00
O1047  O     0.29842   0.53021   0.90807   0.00000  Uiso   1.00
C1048  C     0.26977   0.51734   0.94554   0.00000  Uiso   1.00
H1049  H     0.24787   0.98777   0.93360   0.00000  Uiso   1.00
H1050  H     0.24930   0.54747   0.95703   0.00000  Uiso   1.00
H1051  H     0.29046   0.50532   0.97817   0.00000  Uiso   1.00
O1052  O     0.16958   0.96882   0.81788   0.00000  Uiso   1.00
C1053  C     0.15199   0.97519   0.86496   0.00000  Uiso   1.00
H1054  H     0.14812   0.94128   0.88471   0.00000  Uiso   1.00
H1055  H     0.17285   0.99966   0.88805   0.00000  Uiso   1.00
H1056  H     0.11843   0.99095   0.85980   0.00000  Uiso   1.00
C1057  C     0.66417   0.74989   0.83354   0.00000  Uiso   1.00
C1058  C     0.83590   0.75005   0.82926   0.00000  Uiso   1.00
C1059  C     0.72553   0.60162   0.79766   0.00000  Uiso   1.00
C1060  C     0.78715   0.89831   0.84946   0.00000  Uiso   1.00
C1061  C     0.77452   0.60158   0.86904   0.00000  Uiso   1.00
C1062  C     0.71265   0.89830   0.81803   0.00000  Uiso   1.00
C1063  C     0.72645   0.55236   0.79619   0.00000  Uiso   1.00
C1064  C     0.78957   0.94714   0.84297   0.00000  Uiso   1.00
C1065  C     0.77371   0.55231   0.87056   0.00000  Uiso   1.00
C1066  C     0.71042   0.94712   0.82434   0.00000  Uiso   1.00
C1067  C     0.74980   0.75005   0.73956   0.00000  Uiso   1.00
C1068  C     0.75012   0.74995   0.92710   0.00000  Uiso   1.00
C1069  C     0.75013   0.52643   0.83338   0.00000  Uiso   1.00
C1070  C     0.75006   0.97317   0.83350   0.00000  Uiso   1.00
C1071  C     0.74988   0.75006   0.68841   0.00000  Uiso   1.00
C1072  C     0.74999   0.74991   0.97824   0.00000  Uiso   1.00
C1073  C     0.54724   0.77337   0.79050   0.00000  Uiso   1.00
C1074  C     0.95185   0.70581   0.81202   0.00000  Uiso   1.00
C1075  C     0.95472   0.78943   0.83001   0.00000  Uiso   1.00
C1076  C     0.54716   0.71876   0.86084   0.00000  Uiso   1.00
C1077  C     0.59371   0.77532   0.79449   0.00000  Uiso   1.00
C1078  C     0.90564   0.70723   0.81065   0.00000  Uiso   1.00
C1079  C     0.90878   0.79166   0.82491   0.00000  Uiso   1.00
C1080  C     0.59331   0.72078   0.86521   0.00000  Uiso   1.00
C1081  C     0.61632   0.74937   0.83199   0.00000  Uiso   1.00
C1082  C     0.88368   0.74986   0.82049   0.00000  Uiso   1.00
C1083  C     0.52435   0.74560   0.82422   0.00000  Uiso   1.00
C1084  C     0.97618   0.74670   0.82272   0.00000  Uiso   1.00
N1085  N     0.75000   0.62624   0.83333   0.00000  Uiso   1.00
N1086  N     0.75000   0.87377   0.83333   0.00000  Uiso   1.00
O1087  O     0.68453   0.78974   0.83334   0.00000  Uiso   1.00
O1088  O     0.81547   0.71026   0.83333   0.00000  Uiso   1.00
O1089  O     0.81547   0.78974   0.83333   0.00000  Uiso   1.00
O1090  O     0.68453   0.71026   0.83334   0.00000  Uiso   1.00
O1091  O     0.75000   0.78973   0.76178   0.00000  Uiso   1.00
O1092  O     0.75000   0.71027   0.90489   0.00000  Uiso   1.00
O1093  O     0.75000   0.78973   0.90489   0.00000  Uiso   1.00
O1094  O     0.75000   0.71027   0.76178   0.00000  Uiso   1.00
Zn1095 Zn    0.75000   0.80307   0.83333   0.00000  Uiso   1.00
Zn1096 Zn    0.75000   0.69693   0.83333   0.00000  Uiso   1.00
O1097  O     0.69968   0.62360   0.76129   0.00000  Uiso   1.00
H1098  H     0.69357   0.65540   0.77236   0.00000  Uiso   1.00
O1099  O     0.82254   0.87654   0.87351   0.00000  Uiso   1.00
H1100  H     0.81023   0.85012   0.89227   0.00000  Uiso   1.00
O1101  O     0.80024   0.62349   0.90548   0.00000  Uiso   1.00
H1102  H     0.80612   0.65549   0.89457   0.00000  Uiso   1.00
O1103  O     0.67660   0.87631   0.79569   0.00000  Uiso   1.00
H1104  H     0.68883   0.85144   0.77491   0.00000  Uiso   1.00
O1105  O     0.52425   0.80133   0.75605   0.00000  Uiso   1.00
C1106  C     0.51380   0.77504   0.71298   0.00000  Uiso   1.00
H1107  H     0.98345   0.75373   0.71800   0.00000  Uiso   1.00
H1108  H     0.54192   0.75252   0.70219   0.00000  Uiso   1.00
H1109  H     0.50633   0.79955   0.68175   0.00000  Uiso   1.00
O1110  O     0.97297   0.66337   0.80611   0.00000  Uiso   1.00
C1111  C     0.98216   0.65752   0.75568   0.00000  Uiso   1.00
H1112  H     0.51163   0.67860   0.74619   0.00000  Uiso   1.00
H1113  H     0.95307   0.66603   0.73018   0.00000  Uiso   1.00
H1114  H     0.99058   0.62034   0.74961   0.00000  Uiso   1.00
O1115  O     0.97872   0.83040   0.83715   0.00000  Uiso   1.00
C1116  C     0.98672   0.83727   0.88853   0.00000  Uiso   1.00
H1117  H     0.51224   0.81240   0.90360   0.00000  Uiso   1.00
H1118  H     0.95570   0.83454   0.90950   0.00000  Uiso   1.00
H1119  H     0.50022   0.87302   0.89437   0.00000  Uiso   1.00
O1120  O     0.52452   0.68894   0.89151   0.00000  Uiso   1.00
C1121  C     0.51430   0.71299   0.93505   0.00000  Uiso   1.00
H1122  H     0.98562   0.73678   0.92773   0.00000  Uiso   1.00
H1123  H     0.54340   0.73269   0.95126   0.00000  Uiso   1.00
H1124  H     0.50434   0.68710   0.96322   0.00000  Uiso   1.00
O1125  O     0.61813   0.80070   0.76135   0.00000  Uiso   1.00
H1126  H     0.59805   0.81781   0.73761   0.00000  Uiso   1.00
O1127  O     0.88319   0.66655   0.79844   0.00000  Uiso   1.00
H1128  H     0.85915   0.67479   0.77358   0.00000  Uiso   1.00
O1129  O     0.88979   0.83532   0.82410   0.00000  Uiso   1.00
H1130  H     0.86866   0.83630   0.79480   0.00000  Uiso   1.00
O1131  O     0.61436   0.69493   0.90277   0.00000  Uiso   1.00
H1132  H     0.64389   0.70873   0.91137   0.00000  Uiso   1.00
O1133  O     0.70164   0.53027   0.75886   0.00000  Uiso   1.00
C1134  C     0.73015   0.51789   0.72124   0.00000  Uiso   1.00
H1135  H     0.75261   0.98884   0.73329   0.00000  Uiso   1.00
H1136  H     0.75000   0.54844   0.70917   0.00000  Uiso   1.00
H1137  H     0.70938   0.50532   0.68896   0.00000  Uiso   1.00
O1138  O     0.83041   0.96893   0.84972   0.00000  Uiso   1.00
C1139  C     0.84906   0.97390   0.80295   0.00000  Uiso   1.00
H1140  H     0.85363   0.93938   0.78496   0.00000  Uiso   1.00
H1141  H     0.82851   0.99731   0.77818   0.00000  Uiso   1.00
H1142  H     0.88241   0.99023   0.80831   0.00000  Uiso   1.00
O1143  O     0.79842   0.53021   0.90807   0.00000  Uiso   1.00
C1144  C     0.76977   0.51734   0.94554   0.00000  Uiso   1.00
H1145  H     0.74787   0.98777   0.93360   0.00000  Uiso   1.00
H1146  H     0.74930   0.54747   0.95703   0.00000  Uiso   1.00
H1147  H     0.79046   0.50532   0.97817   0.00000  Uiso   1.00
O1148  O     0.66958   0.96882   0.81788   0.00000  Uiso   1.00
C1149  C     0.65199   0.97519   0.86496   0.00000  Uiso   1.00
H1150  H     0.64812   0.94128   0.88471   0.00000  Uiso   1.00
H1151  H     0.67285   0.99966   0.88805   0.00000  Uiso   1.00
H1152  H     0.61843   0.99095   0.85980   0.00000  Uiso   1.00
loop_
_geom_bond_atom_site_label_1
_geom_bond_atom_site_label_2
_geom_bond_distance
_geom_bond_site_symmetry_2
_ccdc_geom_bond_type
C1     O31     1.294   .     A
C1     C25     1.438   .     S
C1     O34     1.290   .     A
C2     O32     1.299   .     A
C2     C26     1.466   .     S
C2     O33     1.300   .     A
C3     C7      1.411   .     A
C3     N29     1.379   .     A
C3     O41     1.375   .     S
C4     C8      1.410   .     A
C4     O43     1.371   .     S
C4     N30     1.373   .     A
C5     N29     1.379   .     A
C5     O45     1.375   .     S
C5     C9      1.411   .     A
C6     O47     1.369   .     S
C6     N30     1.373   .     A
C6     C10     1.410   .     A
C7     O77     1.380   .     S
C7     C13     1.413   .     A
C8     O82     1.381   .     S
C8     C14     1.417   .     A
C9     C13     1.413   .     A
C9     O87     1.380   .     S
C10    O92     1.381   .     S
C10    C14     1.417   .     A
C11    C15     1.379   .     S
C11    O38     1.285   .     A
C11    O35     1.286   .     A
C12    O37     1.285   .     A
C12    O36     1.286   .     A
C12    C16     1.379   .     S
C13    C206    1.524   1_545 S
C14    C205    1.524   .     S
C15    C784    1.173   1_554 S
C16    C399    1.173   .     S
C17    C27     1.407   .     A
C17    O49     1.386   .     S
C17    C21     1.397   .     A
C18    C28     1.403   .     A
C18    C22     1.389   .     A
C18    O54     1.385   .     S
C19    C23     1.384   .     A
C19    O59     1.385   .     S
C19    C28     1.403   .     A
C20    C24     1.388   .     A
C20    O64     1.385   .     S
C20    C27     1.404   .     A
C21    O69     1.384   .     S
C21    C25     1.404   .     A
C22    O71     1.378   .     S
C22    C26     1.420   .     A
C23    C26     1.416   .     A
C23    O73     1.375   .     S
C24    C25     1.413   .     A
C24    O75     1.383   .     S
C27    C124    1.447   1_455 S
C28    C123    1.447   .     S
N29    Zn40    2.024   .     S
N30    Zn39    2.024   .     S
O31    Zn39    2.004   .     S
O32    Zn40    2.004   .     S
O33    Zn39    2.006   .     S
O34    Zn40    2.006   .     S
O35    Zn39    1.968   .     S
O36    Zn40    1.968   .     S
O37    Zn39    1.965   .     S
O38    Zn40    1.965   .     S
O41    H42     0.979   .     S
O43    H44     0.989   .     S
O45    H46     0.979   .     S
O47    H48     0.989   .     S
O49    C50     1.409   .     S
C50    H52     1.114   .     S
C50    H53     1.109   .     S
C50    H147    1.109   1_455 S
H51    C146    1.109   .     S
O54    C55     1.410   .     S
C55    H57     1.115   .     S
C55    H58     1.109   .     S
C55    H152    1.110   .     S
H56    C151    1.110   1_455 S
O59    C60     1.409   .     S
C60    H62     1.114   .     S
C60    H157    1.110   .     S
C60    H159    1.109   .     S
H61    C156    1.110   1_455 S
H63    C156    1.109   1_455 S
O64    C65     1.409   .     S
C65    H67     1.113   .     S
C65    H68     1.109   .     S
C65    H162    1.110   1_455 S
H66    C161    1.110   .     S
O69    H70     0.989   .     S
O71    H72     0.992   .     S
O73    H74     0.992   .     S
O75    H76     0.989   .     S
O77    C78     1.404   .     S
C78    H80     1.114   .     S
C78    H81     1.109   .     S
C78    H271    1.111   1_545 S
H79    C270    1.111   .     S
O82    C83     1.409   .     S
C83    H84     1.114   .     S
C83    H85     1.113   .     S
C83    H86     1.109   .     S
O87    C88     1.404   .     S
C88    H91     1.109   .     S
C88    H90     1.114   .     S
C88    H281    1.111   1_545 S
H89    C280    1.111   .     S
O92    C93     1.409   .     S
C93    H94     1.114   .     S
C93    H95     1.113   .     S
C93    H96     1.109   .     S
C97    O127    1.294   .     A
C97    C121    1.438   .     S
C97    O130    1.290   .     A
C98    O128    1.299   .     A
C98    C122    1.466   .     S
C98    O129    1.300   .     A
C99    C103    1.411   .     A
C99    N125    1.379   .     A
C99    O137    1.375   .     S
C100   C104    1.410   .     A
C100   O139    1.371   .     S
C100   N126    1.373   .     A
C101   N125    1.379   .     A
C101   O141    1.375   .     S
C101   C105    1.411   .     A
C102   O143    1.369   .     S
C102   N126    1.373   .     A
C102   C106    1.410   .     A
C103   O173    1.380   .     S
C103   C109    1.413   .     A
C104   O178    1.381   .     S
C104   C110    1.417   .     A
C105   C109    1.413   .     A
C105   O183    1.380   .     S
C106   O188    1.381   .     S
C106   C110    1.417   .     A
C107   C111    1.379   .     S
C107   O134    1.285   .     A
C107   O131    1.286   .     A
C108   O133    1.285   .     A
C108   O132    1.286   .     A
C108   C112    1.379   .     S
C109   C302    1.524   1_545 S
C110   C301    1.524   .     S
C111   C880    1.173   1_554 S
C112   C495    1.173   .     S
C113   C123    1.407   .     A
C113   O145    1.386   .     S
C113   C117    1.397   .     A
C114   C124    1.403   .     A
C114   C118    1.389   .     A
C114   O150    1.385   .     S
C115   C119    1.384   .     A
C115   O155    1.385   .     S
C115   C124    1.403   .     A
C116   C120    1.388   .     A
C116   O160    1.385   .     S
C116   C123    1.404   .     A
C117   O165    1.384   .     S
C117   C121    1.404   .     A
C118   O167    1.378   .     S
C118   C122    1.420   .     A
C119   C122    1.416   .     A
C119   O169    1.375   .     S
C120   C121    1.413   .     A
C120   O171    1.383   .     S
C124   C27     1.447   1_655 S
N125   Zn136   2.024   .     S
N126   Zn135   2.024   .     S
O127   Zn135   2.004   .     S
O128   Zn136   2.004   .     S
O129   Zn135   2.006   .     S
O130   Zn136   2.006   .     S
O131   Zn135   1.968   .     S
O132   Zn136   1.968   .     S
O133   Zn135   1.965   .     S
O134   Zn136   1.965   .     S
O137   H138    0.979   .     S
O139   H140    0.989   .     S
O141   H142    0.979   .     S
O143   H144    0.989   .     S
O145   C146    1.409   .     S
C146   H148    1.114   .     S
C146   H149    1.109   .     S
H147   C50     1.109   1_655 S
O150   C151    1.410   .     S
C151   H153    1.115   .     S
C151   H154    1.109   .     S
C151   H56     1.110   1_655 S
O155   C156    1.409   .     S
C156   H158    1.114   .     S
C156   H61     1.110   1_655 S
C156   H63     1.109   1_655 S
O160   C161    1.409   .     S
C161   H163    1.113   .     S
C161   H164    1.109   .     S
H162   C65     1.110   1_655 S
O165   H166    0.989   .     S
O167   H168    0.992   .     S
O169   H170    0.992   .     S
O171   H172    0.989   .     S
O173   C174    1.404   .     S
C174   H176    1.114   .     S
C174   H177    1.109   .     S
C174   H367    1.111   1_545 S
H175   C366    1.111   .     S
O178   C179    1.409   .     S
C179   H180    1.114   .     S
C179   H181    1.113   .     S
C179   H182    1.109   .     S
O183   C184    1.404   .     S
C184   H187    1.109   .     S
C184   H186    1.114   .     S
C184   H377    1.111   1_545 S
H185   C376    1.111   .     S
O188   C189    1.409   .     S
C189   H190    1.114   .     S
C189   H191    1.113   .     S
C189   H192    1.109   .     S
C193   O223    1.294   .     A
C193   C217    1.438   .     S
C193   O226    1.290   .     A
C194   O224    1.299   .     A
C194   C218    1.466   .     S
C194   O225    1.300   .     A
C195   C199    1.411   .     A
C195   N221    1.379   .     A
C195   O233    1.375   .     S
C196   C200    1.410   .     A
C196   O235    1.371   .     S
C196   N222    1.373   .     A
C197   N221    1.379   .     A
C197   O237    1.375   .     S
C197   C201    1.411   .     A
C198   O239    1.369   .     S
C198   N222    1.373   .     A
C198   C202    1.410   .     A
C199   O269    1.380   .     S
C199   C205    1.413   .     A
C200   O274    1.381   .     S
C200   C206    1.417   .     A
C201   C205    1.413   .     A
C201   O279    1.380   .     S
C202   O284    1.381   .     S
C202   C206    1.417   .     A
C203   C207    1.379   .     S
C203   O230    1.285   .     A
C203   O227    1.286   .     A
C204   O229    1.285   .     A
C204   O228    1.286   .     A
C204   C208    1.379   .     S
C206   C13     1.524   1_565 S
C207   C976    1.173   1_554 S
C208   C591    1.173   .     S
C209   C219    1.407   .     A
C209   O241    1.386   .     S
C209   C213    1.397   .     A
C210   C220    1.403   .     A
C210   C214    1.389   .     A
C210   O246    1.385   .     S
C211   C215    1.384   .     A
C211   O251    1.385   .     S
C211   C220    1.403   .     A
C212   C216    1.388   .     A
C212   O256    1.385   .     S
C212   C219    1.404   .     A
C213   O261    1.384   .     S
C213   C217    1.404   .     A
C214   O263    1.378   .     S
C214   C218    1.420   .     A
C215   C218    1.416   .     A
C215   O265    1.375   .     S
C216   C217    1.413   .     A
C216   O267    1.383   .     S
C219   C316    1.447   1_455 S
C220   C315    1.447   .     S
N221   Zn232   2.024   .     S
N222   Zn231   2.024   .     S
O223   Zn231   2.004   .     S
O224   Zn232   2.004   .     S
O225   Zn231   2.006   .     S
O226   Zn232   2.006   .     S
O227   Zn231   1.968   .     S
O228   Zn232   1.968   .     S
O229   Zn231   1.965   .     S
O230   Zn232   1.965   .     S
O233   H234    0.979   .     S
O235   H236    0.989   .     S
O237   H238    0.979   .     S
O239   H240    0.989   .     S
O241   C242    1.409   .     S
C242   H244    1.114   .     S
C242   H245    1.109   .     S
C242   H339    1.109   1_455 S
H243   C338    1.109   .     S
O246   C247    1.410   .     S
C247   H249    1.115   .     S
C247   H250    1.109   .     S
C247   H344    1.110   .     S
H248   C343    1.110   1_455 S
O251   C252    1.409   .     S
C252   H254    1.114   .     S
C252   H349    1.110   .     S
C252   H351    1.109   .     S
H253   C348    1.110   1_455 S
H255   C348    1.109   1_455 S
O256   C257    1.409   .     S
C257   H259    1.113   .     S
C257   H260    1.109   .     S
C257   H354    1.110   1_455 S
H258   C353    1.110   .     S
O261   H262    0.989   .     S
O263   H264    0.992   .     S
O265   H266    0.992   .     S
O267   H268    0.989   .     S
O269   C270    1.404   .     S
C270   H272    1.114   .     S
C270   H273    1.109   .     S
H271   C78     1.111   1_565 S
O274   C275    1.409   .     S
C275   H276    1.114   .     S
C275   H277    1.113   .     S
C275   H278    1.109   .     S
O279   C280    1.404   .     S
C280   H283    1.109   .     S
C280   H282    1.114   .     S
H281   C88     1.111   1_565 S
O284   C285    1.409   .     S
C285   H286    1.114   .     S
C285   H287    1.113   .     S
C285   H288    1.109   .     S
C289   O319    1.294   .     A
C289   C313    1.438   .     S
C289   O322    1.290   .     A
C290   O320    1.299   .     A
C290   C314    1.466   .     S
C290   O321    1.300   .     A
C291   C295    1.411   .     A
C291   N317    1.379   .     A
C291   O329    1.375   .     S
C292   C296    1.410   .     A
C292   O331    1.371   .     S
C292   N318    1.373   .     A
C293   N317    1.379   .     A
C293   O333    1.375   .     S
C293   C297    1.411   .     A
C294   O335    1.369   .     S
C294   N318    1.373   .     A
C294   C298    1.410   .     A
C295   O365    1.380   .     S
C295   C301    1.413   .     A
C296   O370    1.381   .     S
C296   C302    1.417   .     A
C297   C301    1.413   .     A
C297   O375    1.380   .     S
C298   O380    1.381   .     S
C298   C302    1.417   .     A
C299   C303    1.379   .     S
C299   O326    1.285   .     A
C299   O323    1.286   .     A
C300   O325    1.285   .     A
C300   O324    1.286   .     A
C300   C304    1.379   .     S
C302   C109    1.524   1_565 S
C303   C1072   1.173   1_554 S
C304   C687    1.173   .     S
C305   C315    1.407   .     A
C305   O337    1.386   .     S
C305   C309    1.397   .     A
C306   C316    1.403   .     A
C306   C310    1.389   .     A
C306   O342    1.385   .     S
C307   C311    1.384   .     A
C307   O347    1.385   .     S
C307   C316    1.403   .     A
C308   C312    1.388   .     A
C308   O352    1.385   .     S
C308   C315    1.404   .     A
C309   O357    1.384   .     S
C309   C313    1.404   .     A
C310   O359    1.378   .     S
C310   C314    1.420   .     A
C311   C314    1.416   .     A
C311   O361    1.375   .     S
C312   C313    1.413   .     A
C312   O363    1.383   .     S
C316   C219    1.447   1_655 S
N317   Zn328   2.024   .     S
N318   Zn327   2.024   .     S
O319   Zn327   2.004   .     S
O320   Zn328   2.004   .     S
O321   Zn327   2.006   .     S
O322   Zn328   2.006   .     S
O323   Zn327   1.968   .     S
O324   Zn328   1.968   .     S
O325   Zn327   1.965   .     S
O326   Zn328   1.965   .     S
O329   H330    0.979   .     S
O331   H332    0.989   .     S
O333   H334    0.979   .     S
O335   H336    0.989   .     S
O337   C338    1.409   .     S
C338   H340    1.114   .     S
C338   H341    1.109   .     S
H339   C242    1.109   1_655 S
O342   C343    1.410   .     S
C343   H345    1.115   .     S
C343   H346    1.109   .     S
C343   H248    1.110   1_655 S
O347   C348    1.409   .     S
C348   H350    1.114   .     S
C348   H253    1.110   1_655 S
C348   H255    1.109   1_655 S
O352   C353    1.409   .     S
C353   H355    1.113   .     S
C353   H356    1.109   .     S
H354   C257    1.110   1_655 S
O357   H358    0.989   .     S
O359   H360    0.992   .     S
O361   H362    0.992   .     S
O363   H364    0.989   .     S
O365   C366    1.404   .     S
C366   H368    1.114   .     S
C366   H369    1.109   .     S
H367   C174    1.111   1_565 S
O370   C371    1.409   .     S
C371   H372    1.114   .     S
C371   H373    1.113   .     S
C371   H374    1.109   .     S
O375   C376    1.404   .     S
C376   H379    1.109   .     S
C376   H378    1.114   .     S
H377   C184    1.111   1_565 S
O380   C381    1.409   .     S
C381   H382    1.114   .     S
C381   H383    1.113   .     S
C381   H384    1.109   .     S
C385   O415    1.294   .     A
C385   C409    1.438   .     S
C385   O418    1.290   .     A
C386   O416    1.299   .     A
C386   C410    1.466   .     S
C386   O417    1.300   .     A
C387   C391    1.411   .     A
C387   N413    1.379   .     A
C387   O425    1.375   .     S
C388   C392    1.410   .     A
C388   O427    1.371   .     S
C388   N414    1.373   .     A
C389   N413    1.379   .     A
C389   O429    1.375   .     S
C389   C393    1.411   .     A
C390   O431    1.369   .     S
C390   N414    1.373   .     A
C390   C394    1.410   .     A
C391   O461    1.380   .     S
C391   C397    1.413   .     A
C392   O466    1.381   .     S
C392   C398    1.417   .     A
C393   C397    1.413   .     A
C393   O471    1.380   .     S
C394   O476    1.381   .     S
C394   C398    1.417   .     A
C395   C399    1.379   .     S
C395   O422    1.285   .     A
C395   O419    1.286   .     A
C396   O421    1.285   .     A
C396   O420    1.286   .     A
C396   C400    1.379   .     S
C397   C590    1.524   1_545 S
C398   C589    1.524   .     S
C400   C783    1.173   .     S
C401   C411    1.407   .     A
C401   O433    1.386   .     S
C401   C405    1.397   .     A
C402   C412    1.403   .     A
C402   C406    1.389   .     A
C402   O438    1.385   .     S
C403   C407    1.384   .     A
C403   O443    1.385   .     S
C403   C412    1.403   .     A
C404   C408    1.388   .     A
C404   O448    1.385   .     S
C404   C411    1.404   .     A
C405   O453    1.384   .     S
C405   C409    1.404   .     A
C406   O455    1.378   .     S
C406   C410    1.420   .     A
C407   C410    1.416   .     A
C407   O457    1.375   .     S
C408   C409    1.413   .     A
C408   O459    1.383   .     S
C411   C508    1.447   1_455 S
C412   C507    1.447   .     S
N413   Zn424   2.024   .     S
N414   Zn423   2.024   .     S
O415   Zn423   2.004   .     S
O416   Zn424   2.004   .     S
O417   Zn423   2.006   .     S
O418   Zn424   2.006   .     S
O419   Zn423   1.968   .     S
O420   Zn424   1.968   .     S
O421   Zn423   1.965   .     S
O422   Zn424   1.965   .     S
O425   H426    0.979   .     S
O427   H428    0.989   .     S
O429   H430    0.979   .     S
O431   H432    0.989   .     S
O433   C434    1.409   .     S
C434   H436    1.114   .     S
C434   H437    1.109   .     S
C434   H531    1.109   1_455 S
H435   C530    1.109   .     S
O438   C439    1.410   .     S
C439   H441    1.115   .     S
C439   H442    1.109   .     S
C439   H536    1.110   .     S
H440   C535    1.110   1_455 S
O443   C444    1.409   .     S
C444   H446    1.114   .     S
C444   H541    1.110   .     S
C444   H543    1.109   .     S
H445   C540    1.110   1_455 S
H447   C540    1.109   1_455 S
O448   C449    1.409   .     S
C449   H451    1.113   .     S
C449   H452    1.109   .     S
C449   H546    1.110   1_455 S
H450   C545    1.110   .     S
O453   H454    0.989   .     S
O455   H456    0.992   .     S
O457   H458    0.992   .     S
O459   H460    0.989   .     S
O461   C462    1.404   .     S
C462   H464    1.114   .     S
C462   H465    1.109   .     S
C462   H655    1.111   1_545 S
H463   C654    1.111   .     S
O466   C467    1.409   .     S
C467   H468    1.114   .     S
C467   H469    1.113   .     S
C467   H470    1.109   .     S
O471   C472    1.404   .     S
C472   H475    1.109   .     S
C472   H474    1.114   .     S
C472   H665    1.111   1_545 S
H473   C664    1.111   .     S
O476   C477    1.409   .     S
C477   H478    1.114   .     S
C477   H479    1.113   .     S
C477   H480    1.109   .     S
C481   O511    1.294   .     A
C481   C505    1.438   .     S
C481   O514    1.290   .     A
C482   O512    1.299   .     A
C482   C506    1.466   .     S
C482   O513    1.300   .     A
C483   C487    1.411   .     A
C483   N509    1.379   .     A
C483   O521    1.375   .     S
C484   C488    1.410   .     A
C484   O523    1.371   .     S
C484   N510    1.373   .     A
C485   N509    1.379   .     A
C485   O525    1.375   .     S
C485   C489    1.411   .     A
C486   O527    1.369   .     S
C486   N510    1.373   .     A
C486   C490    1.410   .     A
C487   O557    1.380   .     S
C487   C493    1.413   .     A
C488   O562    1.381   .     S
C488   C494    1.417   .     A
C489   C493    1.413   .     A
C489   O567    1.380   .     S
C490   O572    1.381   .     S
C490   C494    1.417   .     A
C491   C495    1.379   .     S
C491   O518    1.285   .     A
C491   O515    1.286   .     A
C492   O517    1.285   .     A
C492   O516    1.286   .     A
C492   C496    1.379   .     S
C493   C686    1.524   1_545 S
C494   C685    1.524   .     S
C496   C879    1.173   .     S
C497   C507    1.407   .     A
C497   O529    1.386   .     S
C497   C501    1.397   .     A
C498   C508    1.403   .     A
C498   C502    1.389   .     A
C498   O534    1.385   .     S
C499   C503    1.384   .     A
C499   O539    1.385   .     S
C499   C508    1.403   .     A
C500   C504    1.388   .     A
C500   O544    1.385   .     S
C500   C507    1.404   .     A
C501   O549    1.384   .     S
C501   C505    1.404   .     A
C502   O551    1.378   .     S
C502   C506    1.420   .     A
C503   C506    1.416   .     A
C503   O553    1.375   .     S
C504   C505    1.413   .     A
C504   O555    1.383   .     S
C508   C411    1.447   1_655 S
N509   Zn520   2.024   .     S
N510   Zn519   2.024   .     S
O511   Zn519   2.004   .     S
O512   Zn520   2.004   .     S
O513   Zn519   2.006   .     S
O514   Zn520   2.006   .     S
O515   Zn519   1.968   .     S
O516   Zn520   1.968   .     S
O517   Zn519   1.965   .     S
O518   Zn520   1.965   .     S
O521   H522    0.979   .     S
O523   H524    0.989   .     S
O525   H526    0.979   .     S
O527   H528    0.989   .     S
O529   C530    1.409   .     S
C530   H532    1.114   .     S
C530   H533    1.109   .     S
H531   C434    1.109   1_655 S
O534   C535    1.410   .     S
C535   H537    1.115   .     S
C535   H538    1.109   .     S
C535   H440    1.110   1_655 S
O539   C540    1.409   .     S
C540   H542    1.114   .     S
C540   H445    1.110   1_655 S
C540   H447    1.109   1_655 S
O544   C545    1.409   .     S
C545   H547    1.113   .     S
C545   H548    1.109   .     S
H546   C449    1.110   1_655 S
O549   H550    0.989   .     S
O551   H552    0.992   .     S
O553   H554    0.992   .     S
O555   H556    0.989   .     S
O557   C558    1.404   .     S
C558   H560    1.114   .     S
C558   H561    1.109   .     S
C558   H751    1.111   1_545 S
H559   C750    1.111   .     S
O562   C563    1.409   .     S
C563   H564    1.114   .     S
C563   H565    1.113   .     S
C563   H566    1.109   .     S
O567   C568    1.404   .     S
C568   H571    1.109   .     S
C568   H570    1.114   .     S
C568   H761    1.111   1_545 S
H569   C760    1.111   .     S
O572   C573    1.409   .     S
C573   H574    1.114   .     S
C573   H575    1.113   .     S
C573   H576    1.109   .     S
C577   O607    1.294   .     A
C577   C601    1.438   .     S
C577   O610    1.290   .     A
C578   O608    1.299   .     A
C578   C602    1.466   .     S
C578   O609    1.300   .     A
C579   C583    1.411   .     A
C579   N605    1.379   .     A
C579   O617    1.375   .     S
C580   C584    1.410   .     A
C580   O619    1.371   .     S
C580   N606    1.373   .     A
C581   N605    1.379   .     A
C581   O621    1.375   .     S
C581   C585    1.411   .     A
C582   O623    1.369   .     S
C582   N606    1.373   .     A
C582   C586    1.410   .     A
C583   O653    1.380   .     S
C583   C589    1.413   .     A
C584   O658    1.381   .     S
C584   C590    1.417   .     A
C585   C589    1.413   .     A
C585   O663    1.380   .     S
C586   O668    1.381   .     S
C586   C590    1.417   .     A
C587   C591    1.379   .     S
C587   O614    1.285   .     A
C587   O611    1.286   .     A
C588   O613    1.285   .     A
C588   O612    1.286   .     A
C588   C592    1.379   .     S
C590   C397    1.524   1_565 S
C592   C975    1.173   .     S
C593   C603    1.407   .     A
C593   O625    1.386   .     S
C593   C597    1.397   .     A
C594   C604    1.403   .     A
C594   C598    1.389   .     A
C594   O630    1.385   .     S
C595   C599    1.384   .     A
C595   O635    1.385   .     S
C595   C604    1.403   .     A
C596   C600    1.388   .     A
C596   O640    1.385   .     S
C596   C603    1.404   .     A
C597   O645    1.384   .     S
C597   C601    1.404   .     A
C598   O647    1.378   .     S
C598   C602    1.420   .     A
C599   C602    1.416   .     A
C599   O649    1.375   .     S
C600   C601    1.413   .     A
C600   O651    1.383   .     S
C603   C700    1.447   1_455 S
C604   C699    1.447   .     S
N605   Zn616   2.024   .     S
N606   Zn615   2.024   .     S
O607   Zn615   2.004   .     S
O608   Zn616   2.004   .     S
O609   Zn615   2.006   .     S
O610   Zn616   2.006   .     S
O611   Zn615   1.968   .     S
O612   Zn616   1.968   .     S
O613   Zn615   1.965   .     S
O614   Zn616   1.965   .     S
O617   H618    0.979   .     S
O619   H620    0.989   .     S
O621   H622    0.979   .     S
O623   H624    0.989   .     S
O625   C626    1.409   .     S
C626   H628    1.114   .     S
C626   H629    1.109   .     S
C626   H723    1.109   1_455 S
H627   C722    1.109   .     S
O630   C631    1.410   .     S
C631   H633    1.115   .     S
C631   H634    1.109   .     S
C631   H728    1.110   .     S
H632   C727    1.110   1_455 S
O635   C636    1.409   .     S
C636   H638    1.114   .     S
C636   H733    1.110   .     S
C636   H735    1.109   .     S
H637   C732    1.110   1_455 S
H639   C732    1.109   1_455 S
O640   C641    1.409   .     S
C641   H643    1.113   .     S
C641   H644    1.109   .     S
C641   H738    1.110   1_455 S
H642   C737    1.110   .     S
O645   H646    0.989   .     S
O647   H648    0.992   .     S
O649   H650    0.992   .     S
O651   H652    0.989   .     S
O653   C654    1.404   .     S
C654   H656    1.114   .     S
C654   H657    1.109   .     S
H655   C462    1.111   1_565 S
O658   C659    1.409   .     S
C659   H660    1.114   .     S
C659   H661    1.113   .     S
C659   H662    1.109   .     S
O663   C664    1.404   .     S
C664   H667    1.109   .     S
C664   H666    1.114   .     S
H665   C472    1.111   1_565 S
O668   C669    1.409   .     S
C669   H670    1.114   .     S
C669   H671    1.113   .     S
C669   H672    1.109   .     S
C673   O703    1.294   .     A
C673   C697    1.438   .     S
C673   O706    1.290   .     A
C674   O704    1.299   .     A
C674   C698    1.466   .     S
C674   O705    1.300   .     A
C675   C679    1.411   .     A
C675   N701    1.379   .     A
C675   O713    1.375   .     S
C676   C680    1.410   .     A
C676   O715    1.371   .     S
C676   N702    1.373   .     A
C677   N701    1.379   .     A
C677   O717    1.375   .     S
C677   C681    1.411   .     A
C678   O719    1.369   .     S
C678   N702    1.373   .     A
C678   C682    1.410   .     A
C679   O749    1.380   .     S
C679   C685    1.413   .     A
C680   O754    1.381   .     S
C680   C686    1.417   .     A
C681   C685    1.413   .     A
C681   O759    1.380   .     S
C682   O764    1.381   .     S
C682   C686    1.417   .     A
C683   C687    1.379   .     S
C683   O710    1.285   .     A
C683   O707    1.286   .     A
C684   O709    1.285   .     A
C684   O708    1.286   .     A
C684   C688    1.379   .     S
C686   C493    1.524   1_565 S
C688   C1071   1.173   .     S
C689   C699    1.407   .     A
C689   O721    1.386   .     S
C689   C693    1.397   .     A
C690   C700    1.403   .     A
C690   C694    1.389   .     A
C690   O726    1.385   .     S
C691   C695    1.384   .     A
C691   O731    1.385   .     S
C691   C700    1.403   .     A
C692   C696    1.388   .     A
C692   O736    1.385   .     S
C692   C699    1.404   .     A
C693   O741    1.384   .     S
C693   C697    1.404   .     A
C694   O743    1.378   .     S
C694   C698    1.420   .     A
C695   C698    1.416   .     A
C695   O745    1.375   .     S
C696   C697    1.413   .     A
C696   O747    1.383   .     S
C700   C603    1.447   1_655 S
N701   Zn712   2.024   .     S
N702   Zn711   2.024   .     S
O703   Zn711   2.004   .     S
O704   Zn712   2.004   .     S
O705   Zn711   2.006   .     S
O706   Zn712   2.006   .     S
O707   Zn711   1.968   .     S
O708   Zn712   1.968   .     S
O709   Zn711   1.965   .     S
O710   Zn712   1.965   .     S
O713   H714    0.979   .     S
O715   H716    0.989   .     S
O717   H718    0.979   .     S
O719   H720    0.989   .     S
O721   C722    1.409   .     S
C722   H724    1.114   .     S
C722   H725    1.109   .     S
H723   C626    1.109   1_655 S
O726   C727    1.410   .     S
C727   H729    1.115   .     S
C727   H730    1.109   .     S
C727   H632    1.110   1_655 S
O731   C732    1.409   .     S
C732   H734    1.114   .     S
C732   H637    1.110   1_655 S
C732   H639    1.109   1_655 S
O736   C737    1.409   .     S
C737   H739    1.113   .     S
C737   H740    1.109   .     S
H738   C641    1.110   1_655 S
O741   H742    0.989   .     S
O743   H744    0.992   .     S
O745   H746    0.992   .     S
O747   H748    0.989   .     S
O749   C750    1.404   .     S
C750   H752    1.114   .     S
C750   H753    1.109   .     S
H751   C558    1.111   1_565 S
O754   C755    1.409   .     S
C755   H756    1.114   .     S
C755   H757    1.113   .     S
C755   H758    1.109   .     S
O759   C760    1.404   .     S
C760   H763    1.109   .     S
C760   H762    1.114   .     S
H761   C568    1.111   1_565 S
O764   C765    1.409   .     S
C765   H766    1.114   .     S
C765   H767    1.113   .     S
C765   H768    1.109   .     S
C769   O799    1.294   .     A
C769   C793    1.438   .     S
C769   O802    1.290   .     A
C770   O800    1.299   .     A
C770   C794    1.466   .     S
C770   O801    1.300   .     A
C771   C775    1.411   .     A
C771   N797    1.379   .     A
C771   O809    1.375   .     S
C772   C776    1.410   .     A
C772   O811    1.371   .     S
C772   N798    1.373   .     A
C773   N797    1.379   .     A
C773   O813    1.375   .     S
C773   C777    1.411   .     A
C774   O815    1.369   .     S
C774   N798    1.373   .     A
C774   C778    1.410   .     A
C775   O845    1.380   .     S
C775   C781    1.413   .     A
C776   O850    1.381   .     S
C776   C782    1.417   .     A
C777   C781    1.413   .     A
C777   O855    1.380   .     S
C778   O860    1.381   .     S
C778   C782    1.417   .     A
C779   C783    1.379   .     S
C779   O806    1.285   .     A
C779   O803    1.286   .     A
C780   O805    1.285   .     A
C780   O804    1.286   .     A
C780   C784    1.379   .     S
C781   C974    1.524   1_545 S
C782   C973    1.524   .     S
C784   C15     1.173   1_556 S
C785   C795    1.407   .     A
C785   O817    1.386   .     S
C785   C789    1.397   .     A
C786   C796    1.403   .     A
C786   C790    1.389   .     A
C786   O822    1.385   .     S
C787   C791    1.384   .     A
C787   O827    1.385   .     S
C787   C796    1.403   .     A
C788   C792    1.388   .     A
C788   O832    1.385   .     S
C788   C795    1.404   .     A
C789   O837    1.384   .     S
C789   C793    1.404   .     A
C790   O839    1.378   .     S
C790   C794    1.420   .     A
C791   C794    1.416   .     A
C791   O841    1.375   .     S
C792   C793    1.413   .     A
C792   O843    1.383   .     S
C795   C892    1.447   1_455 S
C796   C891    1.447   .     S
N797   Zn808   2.024   .     S
N798   Zn807   2.024   .     S
O799   Zn807   2.004   .     S
O800   Zn808   2.004   .     S
O801   Zn807   2.006   .     S
O802   Zn808   2.006   .     S
O803   Zn807   1.968   .     S
O804   Zn808   1.968   .     S
O805   Zn807   1.965   .     S
O806   Zn808   1.965   .     S
O809   H810    0.979   .     S
O811   H812    0.989   .     S
O813   H814    0.979   .     S
O815   H816    0.989   .     S
O817   C818    1.409   .     S
C818   H820    1.114   .     S
C818   H821    1.109   .     S
C818   H915    1.109   1_455 S
H819   C914    1.109   .     S
O822   C823    1.410   .     S
C823   H825    1.115   .     S
C823   H826    1.109   .     S
C823   H920    1.110   .     S
H824   C919    1.110   1_455 S
O827   C828    1.409   .     S
C828   H830    1.114   .     S
C828   H925    1.110   .     S
C828   H927    1.109   .     S
H829   C924    1.110   1_455 S
H831   C924    1.109   1_455 S
O832   C833    1.409   .     S
C833   H835    1.113   .     S
C833   H836    1.109   .     S
C833   H930    1.110   1_455 S
H834   C929    1.110   .     S
O837   H838    0.989   .     S
O839   H840    0.992   .     S
O841   H842    0.992   .     S
O843   H844    0.989   .     S
O845   C846    1.404   .     S
C846   H848    1.114   .     S
C846   H849    1.109   .     S
C846   H1039   1.111   1_545 S
H847   C1038   1.111   .     S
O850   C851    1.409   .     S
C851   H852    1.114   .     S
C851   H853    1.113   .     S
C851   H854    1.109   .     S
O855   C856    1.404   .     S
C856   H859    1.109   .     S
C856   H858    1.114   .     S
C856   H1049   1.111   1_545 S
H857   C1048   1.111   .     S
O860   C861    1.409   .     S
C861   H862    1.114   .     S
C861   H863    1.113   .     S
C861   H864    1.109   .     S
C865   O895    1.294   .     A
C865   C889    1.438   .     S
C865   O898    1.290   .     A
C866   O896    1.299   .     A
C866   C890    1.466   .     S
C866   O897    1.300   .     A
C867   C871    1.411   .     A
C867   N893    1.379   .     A
C867   O905    1.375   .     S
C868   C872    1.410   .     A
C868   O907    1.371   .     S
C868   N894    1.373   .     A
C869   N893    1.379   .     A
C869   O909    1.375   .     S
C869   C873    1.411   .     A
C870   O911    1.369   .     S
C870   N894    1.373   .     A
C870   C874    1.410   .     A
C871   O941    1.380   .     S
C871   C877    1.413   .     A
C872   O946    1.381   .     S
C872   C878    1.417   .     A
C873   C877    1.413   .     A
C873   O951    1.380   .     S
C874   O956    1.381   .     S
C874   C878    1.417   .     A
C875   C879    1.379   .     S
C875   O902    1.285   .     A
C875   O899    1.286   .     A
C876   O901    1.285   .     A
C876   O900    1.286   .     A
C876   C880    1.379   .     S
C877   C1070   1.524   1_545 S
C878   C1069   1.524   .     S
C880   C111    1.173   1_556 S
C881   C891    1.407   .     A
C881   O913    1.386   .     S
C881   C885    1.397   .     A
C882   C892    1.403   .     A
C882   C886    1.389   .     A
C882   O918    1.385   .     S
C883   C887    1.384   .     A
C883   O923    1.385   .     S
C883   C892    1.403   .     A
C884   C888    1.388   .     A
C884   O928    1.385   .     S
C884   C891    1.404   .     A
C885   O933    1.384   .     S
C885   C889    1.404   .     A
C886   O935    1.378   .     S
C886   C890    1.420   .     A
C887   C890    1.416   .     A
C887   O937    1.375   .     S
C888   C889    1.413   .     A
C888   O939    1.383   .     S
C892   C795    1.447   1_655 S
N893   Zn904   2.024   .     S
N894   Zn903   2.024   .     S
O895   Zn903   2.004   .     S
O896   Zn904   2.004   .     S
O897   Zn903   2.006   .     S
O898   Zn904   2.006   .     S
O899   Zn903   1.968   .     S
O900   Zn904   1.968   .     S
O901   Zn903   1.965   .     S
O902   Zn904   1.965   .     S
O905   H906    0.979   .     S
O907   H908    0.989   .     S
O909   H910    0.979   .     S
O911   H912    0.989   .     S
O913   C914    1.409   .     S
C914   H916    1.114   .     S
C914   H917    1.109   .     S
H915   C818    1.109   1_655 S
O918   C919    1.410   .     S
C919   H921    1.115   .     S
C919   H922    1.109   .     S
C919   H824    1.110   1_655 S
O923   C924    1.409   .     S
C924   H926    1.114   .     S
C924   H829    1.110   1_655 S
C924   H831    1.109   1_655 S
O928   C929    1.409   .     S
C929   H931    1.113   .     S
C929   H932    1.109   .     S
H930   C833    1.110   1_655 S
O933   H934    0.989   .     S
O935   H936    0.992   .     S
O937   H938    0.992   .     S
O939   H940    0.989   .     S
O941   C942    1.404   .     S
C942   H944    1.114   .     S
C942   H945    1.109   .     S
C942   H1135   1.111   1_545 S
H943   C1134   1.111   .     S
O946   C947    1.409   .     S
C947   H948    1.114   .     S
C947   H949    1.113   .     S
C947   H950    1.109   .     S
O951   C952    1.404   .     S
C952   H955    1.109   .     S
C952   H954    1.114   .     S
C952   H1145   1.111   1_545 S
H953   C1144   1.111   .     S
O956   C957    1.409   .     S
C957   H958    1.114   .     S
C957   H959    1.113   .     S
C957   H960    1.109   .     S
C961   O991    1.294   .     A
C961   C985    1.438   .     S
C961   O994    1.290   .     A
C962   O992    1.299   .     A
C962   C986    1.466   .     S
C962   O993    1.300   .     A
C963   C967    1.411   .     A
C963   N989    1.379   .     A
C963   O1001   1.375   .     S
C964   C968    1.410   .     A
C964   O1003   1.371   .     S
C964   N990    1.373   .     A
C965   N989    1.379   .     A
C965   O1005   1.375   .     S
C965   C969    1.411   .     A
C966   O1007   1.369   .     S
C966   N990    1.373   .     A
C966   C970    1.410   .     A
C967   O1037   1.380   .     S
C967   C973    1.413   .     A
C968   O1042   1.381   .     S
C968   C974    1.417   .     A
C969   C973    1.413   .     A
C969   O1047   1.380   .     S
C970   O1052   1.381   .     S
C970   C974    1.417   .     A
C971   C975    1.379   .     S
C971   O998    1.285   .     A
C971   O995    1.286   .     A
C972   O997    1.285   .     A
C972   O996    1.286   .     A
C972   C976    1.379   .     S
C974   C781    1.524   1_565 S
C976   C207    1.173   1_556 S
C977   C987    1.407   .     A
C977   O1009   1.386   .     S
C977   C981    1.397   .     A
C978   C988    1.403   .     A
C978   C982    1.389   .     A
C978   O1014   1.385   .     S
C979   C983    1.384   .     A
C979   O1019   1.385   .     S
C979   C988    1.403   .     A
C980   C984    1.388   .     A
C980   O1024   1.385   .     S
C980   C987    1.404   .     A
C981   O1029   1.384   .     S
C981   C985    1.404   .     A
C982   O1031   1.378   .     S
C982   C986    1.420   .     A
C983   C986    1.416   .     A
C983   O1033   1.375   .     S
C984   C985    1.413   .     A
C984   O1035   1.383   .     S
C987   C1084   1.447   1_455 S
C988   C1083   1.447   .     S
N989   Zn1000  2.024   .     S
N990   Zn999   2.024   .     S
O991   Zn999   2.004   .     S
O992   Zn1000  2.004   .     S
O993   Zn999   2.006   .     S
O994   Zn1000  2.006   .     S
O995   Zn999   1.968   .     S
O996   Zn1000  1.968   .     S
O997   Zn999   1.965   .     S
O998   Zn1000  1.965   .     S
O1001  H1002   0.979   .     S
O1003  H1004   0.989   .     S
O1005  H1006   0.979   .     S
O1007  H1008   0.989   .     S
O1009  C1010   1.409   .     S
C1010  H1012   1.114   .     S
C1010  H1013   1.109   .     S
C1010  H1107   1.109   1_455 S
H1011  C1106   1.109   .     S
O1014  C1015   1.410   .     S
C1015  H1017   1.115   .     S
C1015  H1018   1.109   .     S
C1015  H1112   1.110   .     S
H1016  C1111   1.110   1_455 S
O1019  C1020   1.409   .     S
C1020  H1022   1.114   .     S
C1020  H1117   1.110   .     S
C1020  H1119   1.109   .     S
H1021  C1116   1.110   1_455 S
H1023  C1116   1.109   1_455 S
O1024  C1025   1.409   .     S
C1025  H1027   1.113   .     S
C1025  H1028   1.109   .     S
C1025  H1122   1.110   1_455 S
H1026  C1121   1.110   .     S
O1029  H1030   0.989   .     S
O1031  H1032   0.992   .     S
O1033  H1034   0.992   .     S
O1035  H1036   0.989   .     S
O1037  C1038   1.404   .     S
C1038  H1040   1.114   .     S
C1038  H1041   1.109   .     S
H1039  C846    1.111   1_565 S
O1042  C1043   1.409   .     S
C1043  H1044   1.114   .     S
C1043  H1045   1.113   .     S
C1043  H1046   1.109   .     S
O1047  C1048   1.404   .     S
C1048  H1051   1.109   .     S
C1048  H1050   1.114   .     S
H1049  C856    1.111   1_565 S
O1052  C1053   1.409   .     S
C1053  H1054   1.114   .     S
C1053  H1055   1.113   .     S
C1053  H1056   1.109   .     S
C1057  O1087   1.294   .     A
C1057  C1081   1.438   .     S
C1057  O1090   1.290   .     A
C1058  O1088   1.299   .     A
C1058  C1082   1.466   .     S
C1058  O1089   1.300   .     A
C1059  C1063   1.411   .     A
C1059  N1085   1.379   .     A
C1059  O1097   1.375   .     S
C1060  C1064   1.410   .     A
C1060  O1099   1.371   .     S
C1060  N1086   1.373   .     A
C1061  N1085   1.379   .     A
C1061  O1101   1.375   .     S
C1061  C1065   1.411   .     A
C1062  O1103   1.369   .     S
C1062  N1086   1.373   .     A
C1062  C1066   1.410   .     A
C1063  O1133   1.380   .     S
C1063  C1069   1.413   .     A
C1064  O1138   1.381   .     S
C1064  C1070   1.417   .     A
C1065  C1069   1.413   .     A
C1065  O1143   1.380   .     S
C1066  O1148   1.381   .     S
C1066  C1070   1.417   .     A
C1067  C1071   1.379   .     S
C1067  O1094   1.285   .     A
C1067  O1091   1.286   .     A
C1068  O1093   1.285   .     A
C1068  O1092   1.286   .     A
C1068  C1072   1.379   .     S
C1070  C877    1.524   1_565 S
C1072  C303    1.173   1_556 S
C1073  C1083   1.407   .     A
C1073  O1105   1.386   .     S
C1073  C1077   1.397   .     A
C1074  C1084   1.403   .     A
C1074  C1078   1.389   .     A
C1074  O1110   1.385   .     S
C1075  C1079   1.384   .     A
C1075  O1115   1.385   .     S
C1075  C1084   1.403   .     A
C1076  C1080   1.388   .     A
C1076  O1120   1.385   .     S
C1076  C1083   1.404   .     A
C1077  O1125   1.384   .     S
C1077  C1081   1.404   .     A
C1078  O1127   1.378   .     S
C1078  C1082   1.420   .     A
C1079  C1082   1.416   .     A
C1079  O1129   1.375   .     S
C1080  C1081   1.413   .     A
C1080  O1131   1.383   .     S
C1084  C987    1.447   1_655 S
N1085  Zn1096  2.024   .     S
N1086  Zn1095  2.024   .     S
O1087  Zn1095  2.004   .     S
O1088  Zn1096  2.004   .     S
O1089  Zn1095  2.006   .     S
O1090  Zn1096  2.006   .     S
O1091  Zn1095  1.968   .     S
O1092  Zn1096  1.968   .     S
O1093  Zn1095  1.965   .     S
O1094  Zn1096  1.965   .     S
O1097  H1098   0.979   .     S
O1099  H1100   0.989   .     S
O1101  H1102   0.979   .     S
O1103  H1104   0.989   .     S
O1105  C1106   1.409   .     S
C1106  H1108   1.114   .     S
C1106  H1109   1.109   .     S
H1107  C1010   1.109   1_655 S
O1110  C1111   1.410   .     S
C1111  H1113   1.115   .     S
C1111  H1114   1.109   .     S
C1111  H1016   1.110   1_655 S
O1115  C1116   1.409   .     S
C1116  H1118   1.114   .     S
C1116  H1021   1.110   1_655 S
C1116  H1023   1.109   1_655 S
O1120  C1121   1.409   .     S
C1121  H1123   1.113   .     S
C1121  H1124   1.109   .     S
H1122  C1025   1.110   1_655 S
O1125  H1126   0.989   .     S
O1127  H1128   0.992   .     S
O1129  H1130   0.992   .     S
O1131  H1132   0.989   .     S
O1133  C1134   1.404   .     S
C1134  H1136   1.114   .     S
C1134  H1137   1.109   .     S
H1135  C942    1.111   1_565 S
O1138  C1139   1.409   .     S
C1139  H1140   1.114   .     S
C1139  H1141   1.113   .     S
C1139  H1142   1.109   .     S
O1143  C1144   1.404   .     S
C1144  H1147   1.109   .     S
C1144  H1146   1.114   .     S
H1145  C952    1.111   1_565 S
O1148  C1149   1.409   .     S
C1149  H1150   1.114   .     S
C1149  H1151   1.113   .     S
C1149  H1152   1.109   .     S
