data_str_m3_o10_o16_pcu_sym.100
_audit_creation_date              2020-01-03
_audit_creation_method            'Materials Studio'
_symmetry_space_group_name_H-M    'P1'
_symmetry_Int_Tables_number       1
_symmetry_cell_setting            triclinic
loop_
_symmetry_equiv_pos_as_xyz
  x,y,z
_cell_length_a                    23.5315
_cell_length_b                    25.6845
_cell_length_c                    35.6124
_cell_angle_alpha                 91.9573
_cell_angle_beta                  101.1807
_cell_angle_gamma                 93.9558
loop_
_atom_site_label
_atom_site_type_symbol
_atom_site_fract_x
_atom_site_fract_y
_atom_site_fract_z
_atom_site_U_iso_or_equiv
_atom_site_adp_type
_atom_site_occupancy
C1     C     0.01453   0.26483   0.16516   0.00000  Uiso   1.00
C2     C     0.05348   0.17930   0.27871   0.00000  Uiso   1.00
C3     C     0.02160   0.31924   0.16333   0.00000  Uiso   1.00
C4     C     0.03577   0.17138   0.23720   0.00000  Uiso   1.00
C5     C     0.30973   0.01373   0.16590   0.00000  Uiso   1.00
C6     C     0.31798   0.06839   0.16641   0.00000  Uiso   1.00
C7     C     0.29747   0.16268   0.09605   0.00000  Uiso   1.00
C8     C     0.24274   0.07229   0.01281   0.00000  Uiso   1.00
C9     C     0.27639   0.14787   0.05560   0.00000  Uiso   1.00
C10    C     0.03730   0.22395   0.29696   0.00000  Uiso   1.00
C11    C     0.06253   0.23715   0.00154   0.00000  Uiso   1.00
C12    C     0.12928   0.16869   0.00033   0.00000  Uiso   1.00
C13    C     0.10807   0.20991   0.02061   0.00000  Uiso   1.00
C14    C     0.00382   0.07024   0.05759   0.00000  Uiso   1.00
C15    C     0.15786   0.10109   0.14727   0.00000  Uiso   1.00
C16    C     0.12525   0.22057   0.06260   0.00000  Uiso   1.00
C17    C     0.09389   0.14761   0.29928   0.00000  Uiso   1.00
C18    C     0.18302   0.14660   0.01272   0.00000  Uiso   1.00
C19    C     0.19093   0.09555   0.33202   0.00000  Uiso   1.00
C20    C     0.14718   0.06907   0.30399   0.00000  Uiso   1.00
C21    C     0.09927   0.09539   0.28713   0.00000  Uiso   1.00
C22    C     0.23059   0.17457   0.03681   0.00000  Uiso   1.00
C23    C     0.28493   0.09756   0.04184   0.00000  Uiso   1.00
Cl24   Cl    0.15224   0.00331   0.28889   0.00000  Uiso   1.00
Cl25   Cl    0.24027   0.24359   0.03932   0.00000  Uiso   1.00
Cl26   Cl    0.31860   0.26455   0.27375   0.00000  Uiso   1.00
Cl27   Cl    0.04099   0.05891   0.25656   0.00000  Uiso   1.00
H28    H     0.26717   0.33000   0.16857   0.00000  Uiso   1.00
H29    H     0.17657   0.21459   0.18856   0.00000  Uiso   1.00
H30    H     0.25039   0.03393   0.00218   0.00000  Uiso   1.00
H31    H     0.04644   0.26910   0.01610   0.00000  Uiso   1.00
H32    H     0.06395   0.00291   0.16036   0.00000  Uiso   1.00
H33    H     0.29088   0.00864   0.07314   0.00000  Uiso   1.00
H34    H     0.17655   0.05093   0.10736   0.00000  Uiso   1.00
H35    H     0.13202   0.27194   0.10774   0.00000  Uiso   1.00
N36    N     0.14493   0.15223   0.15695   0.00000  Uiso   1.00
N37    N     0.18840   0.18110   0.17638   0.00000  Uiso   1.00
O38    O     0.29769   0.24629   0.16905   0.00000  Uiso   1.00
O39    O     0.33234   0.02046   0.07177   0.00000  Uiso   1.00
O40    O     0.15829   0.06735   0.17070   0.00000  Uiso   1.00
O41    O     0.16821   0.08882   0.11080   0.00000  Uiso   1.00
O42    O     0.14309   0.18593   0.08320   0.00000  Uiso   1.00
O43    O     0.11926   0.26980   0.07881   0.00000  Uiso   1.00
O44    O     0.05742   0.23704   0.16282   0.00000  Uiso   1.00
O45    O     0.31490   0.17358   0.22253   0.00000  Uiso   1.00
O46    O     0.07463   0.16433   0.21631   0.00000  Uiso   1.00
O47    O     0.27592   0.09629   0.17051   0.00000  Uiso   1.00
O48    O     0.03565   0.08704   0.16428   0.00000  Uiso   1.00
O49    O     0.25870   0.16901   0.11703   0.00000  Uiso   1.00
O50    O     0.01843   0.15976   0.11080   0.00000  Uiso   1.00
O51    O     0.05199   0.09119   0.05768   0.00000  Uiso   1.00
Zn52   Zn    0.27119   0.17284   0.17082   0.00000  Uiso   1.00
Zn53   Zn    0.06214   0.16049   0.16251   0.00000  Uiso   1.00
C54    C     0.34787   0.26483   0.16516   0.00000  Uiso   1.00
C55    C     0.38681   0.17930   0.27871   0.00000  Uiso   1.00
C56    C     0.35493   0.31924   0.16333   0.00000  Uiso   1.00
C57    C     0.36910   0.17138   0.23720   0.00000  Uiso   1.00
C58    C     0.64306   0.01373   0.16590   0.00000  Uiso   1.00
C59    C     0.65131   0.06839   0.16641   0.00000  Uiso   1.00
C60    C     0.63080   0.16268   0.09605   0.00000  Uiso   1.00
C61    C     0.57607   0.07229   0.01281   0.00000  Uiso   1.00
C62    C     0.60972   0.14787   0.05560   0.00000  Uiso   1.00
C63    C     0.37063   0.22395   0.29696   0.00000  Uiso   1.00
C64    C     0.39586   0.23715   0.00154   0.00000  Uiso   1.00
C65    C     0.46262   0.16869   0.00033   0.00000  Uiso   1.00
C66    C     0.44140   0.20991   0.02061   0.00000  Uiso   1.00
C67    C     0.33716   0.07024   0.05759   0.00000  Uiso   1.00
C68    C     0.49119   0.10109   0.14727   0.00000  Uiso   1.00
C69    C     0.45858   0.22057   0.06260   0.00000  Uiso   1.00
C70    C     0.42723   0.14761   0.29928   0.00000  Uiso   1.00
C71    C     0.51635   0.14660   0.01272   0.00000  Uiso   1.00
C72    C     0.52426   0.09555   0.33202   0.00000  Uiso   1.00
C73    C     0.48052   0.06907   0.30399   0.00000  Uiso   1.00
C74    C     0.43260   0.09539   0.28713   0.00000  Uiso   1.00
C75    C     0.56393   0.17457   0.03681   0.00000  Uiso   1.00
C76    C     0.61826   0.09756   0.04184   0.00000  Uiso   1.00
Cl77   Cl    0.48557   0.00331   0.28889   0.00000  Uiso   1.00
Cl78   Cl    0.57360   0.24359   0.03932   0.00000  Uiso   1.00
Cl79   Cl    0.65194   0.26455   0.27375   0.00000  Uiso   1.00
Cl80   Cl    0.37433   0.05891   0.25656   0.00000  Uiso   1.00
H81    H     0.60050   0.33000   0.16857   0.00000  Uiso   1.00
H82    H     0.50990   0.21459   0.18856   0.00000  Uiso   1.00
H83    H     0.58372   0.03393   0.00218   0.00000  Uiso   1.00
H84    H     0.37978   0.26910   0.01610   0.00000  Uiso   1.00
H85    H     0.39728   0.00291   0.16036   0.00000  Uiso   1.00
H86    H     0.62421   0.00864   0.07314   0.00000  Uiso   1.00
H87    H     0.50988   0.05093   0.10736   0.00000  Uiso   1.00
H88    H     0.46535   0.27194   0.10774   0.00000  Uiso   1.00
N89    N     0.47827   0.15223   0.15695   0.00000  Uiso   1.00
N90    N     0.52173   0.18110   0.17638   0.00000  Uiso   1.00
O91    O     0.63102   0.24629   0.16905   0.00000  Uiso   1.00
O92    O     0.66568   0.02046   0.07177   0.00000  Uiso   1.00
O93    O     0.49162   0.06735   0.17070   0.00000  Uiso   1.00
O94    O     0.50154   0.08882   0.11080   0.00000  Uiso   1.00
O95    O     0.47643   0.18593   0.08320   0.00000  Uiso   1.00
O96    O     0.45260   0.26980   0.07881   0.00000  Uiso   1.00
O97    O     0.39075   0.23704   0.16282   0.00000  Uiso   1.00
O98    O     0.64823   0.17358   0.22253   0.00000  Uiso   1.00
O99    O     0.40796   0.16433   0.21631   0.00000  Uiso   1.00
O100   O     0.60925   0.09629   0.17051   0.00000  Uiso   1.00
O101   O     0.36898   0.08704   0.16428   0.00000  Uiso   1.00
O102   O     0.59204   0.16901   0.11703   0.00000  Uiso   1.00
O103   O     0.35177   0.15976   0.11080   0.00000  Uiso   1.00
O104   O     0.38533   0.09119   0.05768   0.00000  Uiso   1.00
Zn105  Zn    0.60453   0.17284   0.17082   0.00000  Uiso   1.00
Zn106  Zn    0.39547   0.16049   0.16251   0.00000  Uiso   1.00
C107   C     0.68120   0.26483   0.16516   0.00000  Uiso   1.00
C108   C     0.72015   0.17930   0.27871   0.00000  Uiso   1.00
C109   C     0.68826   0.31924   0.16333   0.00000  Uiso   1.00
C110   C     0.70244   0.17138   0.23720   0.00000  Uiso   1.00
C111   C     0.97639   0.01373   0.16590   0.00000  Uiso   1.00
C112   C     0.98465   0.06839   0.16641   0.00000  Uiso   1.00
C113   C     0.96413   0.16268   0.09605   0.00000  Uiso   1.00
C114   C     0.90940   0.07229   0.01281   0.00000  Uiso   1.00
C115   C     0.94305   0.14787   0.05560   0.00000  Uiso   1.00
C116   C     0.70397   0.22395   0.29696   0.00000  Uiso   1.00
C117   C     0.72920   0.23715   0.00154   0.00000  Uiso   1.00
C118   C     0.79595   0.16869   0.00033   0.00000  Uiso   1.00
C119   C     0.77473   0.20991   0.02061   0.00000  Uiso   1.00
C120   C     0.67049   0.07024   0.05759   0.00000  Uiso   1.00
C121   C     0.82452   0.10109   0.14727   0.00000  Uiso   1.00
C122   C     0.79192   0.22057   0.06260   0.00000  Uiso   1.00
C123   C     0.76056   0.14761   0.29928   0.00000  Uiso   1.00
C124   C     0.84969   0.14660   0.01272   0.00000  Uiso   1.00
C125   C     0.85759   0.09555   0.33202   0.00000  Uiso   1.00
C126   C     0.81385   0.06907   0.30399   0.00000  Uiso   1.00
C127   C     0.76593   0.09539   0.28713   0.00000  Uiso   1.00
C128   C     0.89726   0.17457   0.03681   0.00000  Uiso   1.00
C129   C     0.95159   0.09756   0.04184   0.00000  Uiso   1.00
Cl130  Cl    0.81890   0.00331   0.28889   0.00000  Uiso   1.00
Cl131  Cl    0.90693   0.24359   0.03932   0.00000  Uiso   1.00
Cl132  Cl    0.98527   0.26455   0.27375   0.00000  Uiso   1.00
Cl133  Cl    0.70766   0.05891   0.25656   0.00000  Uiso   1.00
H134   H     0.93384   0.33000   0.16857   0.00000  Uiso   1.00
H135   H     0.84324   0.21459   0.18856   0.00000  Uiso   1.00
H136   H     0.91706   0.03393   0.00218   0.00000  Uiso   1.00
H137   H     0.71311   0.26910   0.01610   0.00000  Uiso   1.00
H138   H     0.73062   0.00291   0.16036   0.00000  Uiso   1.00
H139   H     0.95754   0.00864   0.07314   0.00000  Uiso   1.00
H140   H     0.84321   0.05093   0.10736   0.00000  Uiso   1.00
H141   H     0.79869   0.27194   0.10774   0.00000  Uiso   1.00
N142   N     0.81160   0.15223   0.15695   0.00000  Uiso   1.00
N143   N     0.85507   0.18110   0.17638   0.00000  Uiso   1.00
O144   O     0.96435   0.24629   0.16905   0.00000  Uiso   1.00
O145   O     0.99901   0.02046   0.07177   0.00000  Uiso   1.00
O146   O     0.82495   0.06735   0.17070   0.00000  Uiso   1.00
O147   O     0.83487   0.08882   0.11080   0.00000  Uiso   1.00
O148   O     0.80976   0.18593   0.08320   0.00000  Uiso   1.00
O149   O     0.78593   0.26980   0.07881   0.00000  Uiso   1.00
O150   O     0.72408   0.23704   0.16282   0.00000  Uiso   1.00
O151   O     0.98157   0.17358   0.22253   0.00000  Uiso   1.00
O152   O     0.74130   0.16433   0.21631   0.00000  Uiso   1.00
O153   O     0.94258   0.09629   0.17051   0.00000  Uiso   1.00
O154   O     0.70231   0.08704   0.16428   0.00000  Uiso   1.00
O155   O     0.92537   0.16901   0.11703   0.00000  Uiso   1.00
O156   O     0.68510   0.15976   0.11080   0.00000  Uiso   1.00
O157   O     0.71866   0.09119   0.05768   0.00000  Uiso   1.00
Zn158  Zn    0.93786   0.17284   0.17082   0.00000  Uiso   1.00
Zn159  Zn    0.72881   0.16049   0.16251   0.00000  Uiso   1.00
C160   C     0.01453   0.59816   0.16516   0.00000  Uiso   1.00
C161   C     0.05348   0.51264   0.27871   0.00000  Uiso   1.00
C162   C     0.02160   0.65258   0.16333   0.00000  Uiso   1.00
C163   C     0.03577   0.50471   0.23720   0.00000  Uiso   1.00
C164   C     0.30973   0.34707   0.16590   0.00000  Uiso   1.00
C165   C     0.31798   0.40172   0.16641   0.00000  Uiso   1.00
C166   C     0.29747   0.49601   0.09605   0.00000  Uiso   1.00
C167   C     0.24274   0.40562   0.01281   0.00000  Uiso   1.00
C168   C     0.27639   0.48120   0.05560   0.00000  Uiso   1.00
C169   C     0.03730   0.55728   0.29696   0.00000  Uiso   1.00
C170   C     0.06253   0.57049   0.00154   0.00000  Uiso   1.00
C171   C     0.12928   0.50202   0.00033   0.00000  Uiso   1.00
C172   C     0.10807   0.54325   0.02061   0.00000  Uiso   1.00
C173   C     0.00382   0.40358   0.05759   0.00000  Uiso   1.00
C174   C     0.15786   0.43442   0.14727   0.00000  Uiso   1.00
C175   C     0.12525   0.55390   0.06260   0.00000  Uiso   1.00
C176   C     0.09389   0.48095   0.29928   0.00000  Uiso   1.00
C177   C     0.18302   0.47993   0.01272   0.00000  Uiso   1.00
C178   C     0.19093   0.42888   0.33202   0.00000  Uiso   1.00
C179   C     0.14718   0.40241   0.30399   0.00000  Uiso   1.00
C180   C     0.09927   0.42872   0.28713   0.00000  Uiso   1.00
C181   C     0.23059   0.50790   0.03681   0.00000  Uiso   1.00
C182   C     0.28493   0.43089   0.04184   0.00000  Uiso   1.00
Cl183  Cl    0.15224   0.33664   0.28889   0.00000  Uiso   1.00
Cl184  Cl    0.24027   0.57693   0.03932   0.00000  Uiso   1.00
Cl185  Cl    0.31860   0.59788   0.27375   0.00000  Uiso   1.00
Cl186  Cl    0.04099   0.39225   0.25656   0.00000  Uiso   1.00
H187   H     0.26717   0.66333   0.16857   0.00000  Uiso   1.00
H188   H     0.17657   0.54792   0.18856   0.00000  Uiso   1.00
H189   H     0.25039   0.36726   0.00218   0.00000  Uiso   1.00
H190   H     0.04644   0.60243   0.01610   0.00000  Uiso   1.00
H191   H     0.06395   0.33624   0.16036   0.00000  Uiso   1.00
H192   H     0.29088   0.34198   0.07314   0.00000  Uiso   1.00
H193   H     0.17655   0.38426   0.10736   0.00000  Uiso   1.00
H194   H     0.13202   0.60527   0.10774   0.00000  Uiso   1.00
N195   N     0.14493   0.48556   0.15695   0.00000  Uiso   1.00
N196   N     0.18840   0.51444   0.17638   0.00000  Uiso   1.00
O197   O     0.29769   0.57963   0.16905   0.00000  Uiso   1.00
O198   O     0.33234   0.35379   0.07177   0.00000  Uiso   1.00
O199   O     0.15829   0.40069   0.17070   0.00000  Uiso   1.00
O200   O     0.16821   0.42215   0.11080   0.00000  Uiso   1.00
O201   O     0.14309   0.51926   0.08320   0.00000  Uiso   1.00
O202   O     0.11926   0.60313   0.07881   0.00000  Uiso   1.00
O203   O     0.05742   0.57038   0.16282   0.00000  Uiso   1.00
O204   O     0.31490   0.50691   0.22253   0.00000  Uiso   1.00
O205   O     0.07463   0.49766   0.21631   0.00000  Uiso   1.00
O206   O     0.27592   0.42962   0.17051   0.00000  Uiso   1.00
O207   O     0.03565   0.42037   0.16428   0.00000  Uiso   1.00
O208   O     0.25870   0.50234   0.11703   0.00000  Uiso   1.00
O209   O     0.01843   0.49309   0.11080   0.00000  Uiso   1.00
O210   O     0.05199   0.42453   0.05768   0.00000  Uiso   1.00
Zn211  Zn    0.27119   0.50618   0.17082   0.00000  Uiso   1.00
Zn212  Zn    0.06214   0.49382   0.16251   0.00000  Uiso   1.00
C213   C     0.34787   0.59816   0.16516   0.00000  Uiso   1.00
C214   C     0.38681   0.51264   0.27871   0.00000  Uiso   1.00
C215   C     0.35493   0.65258   0.16333   0.00000  Uiso   1.00
C216   C     0.36910   0.50471   0.23720   0.00000  Uiso   1.00
C217   C     0.64306   0.34707   0.16590   0.00000  Uiso   1.00
C218   C     0.65131   0.40172   0.16641   0.00000  Uiso   1.00
C219   C     0.63080   0.49601   0.09605   0.00000  Uiso   1.00
C220   C     0.57607   0.40562   0.01281   0.00000  Uiso   1.00
C221   C     0.60972   0.48120   0.05560   0.00000  Uiso   1.00
C222   C     0.37063   0.55728   0.29696   0.00000  Uiso   1.00
C223   C     0.39586   0.57049   0.00154   0.00000  Uiso   1.00
C224   C     0.46262   0.50202   0.00033   0.00000  Uiso   1.00
C225   C     0.44140   0.54325   0.02061   0.00000  Uiso   1.00
C226   C     0.33716   0.40358   0.05759   0.00000  Uiso   1.00
C227   C     0.49119   0.43442   0.14727   0.00000  Uiso   1.00
C228   C     0.45858   0.55390   0.06260   0.00000  Uiso   1.00
C229   C     0.42723   0.48095   0.29928   0.00000  Uiso   1.00
C230   C     0.51635   0.47993   0.01272   0.00000  Uiso   1.00
C231   C     0.52426   0.42888   0.33202   0.00000  Uiso   1.00
C232   C     0.48052   0.40241   0.30399   0.00000  Uiso   1.00
C233   C     0.43260   0.42872   0.28713   0.00000  Uiso   1.00
C234   C     0.56393   0.50790   0.03681   0.00000  Uiso   1.00
C235   C     0.61826   0.43089   0.04184   0.00000  Uiso   1.00
Cl236  Cl    0.48557   0.33664   0.28889   0.00000  Uiso   1.00
Cl237  Cl    0.57360   0.57693   0.03932   0.00000  Uiso   1.00
Cl238  Cl    0.65194   0.59788   0.27375   0.00000  Uiso   1.00
Cl239  Cl    0.37433   0.39225   0.25656   0.00000  Uiso   1.00
H240   H     0.60050   0.66333   0.16857   0.00000  Uiso   1.00
H241   H     0.50990   0.54792   0.18856   0.00000  Uiso   1.00
H242   H     0.58372   0.36726   0.00218   0.00000  Uiso   1.00
H243   H     0.37978   0.60243   0.01610   0.00000  Uiso   1.00
H244   H     0.39728   0.33624   0.16036   0.00000  Uiso   1.00
H245   H     0.62421   0.34198   0.07314   0.00000  Uiso   1.00
H246   H     0.50988   0.38426   0.10736   0.00000  Uiso   1.00
H247   H     0.46535   0.60527   0.10774   0.00000  Uiso   1.00
N248   N     0.47827   0.48556   0.15695   0.00000  Uiso   1.00
N249   N     0.52173   0.51444   0.17638   0.00000  Uiso   1.00
O250   O     0.63102   0.57963   0.16905   0.00000  Uiso   1.00
O251   O     0.66568   0.35379   0.07177   0.00000  Uiso   1.00
O252   O     0.49162   0.40069   0.17070   0.00000  Uiso   1.00
O253   O     0.50154   0.42215   0.11080   0.00000  Uiso   1.00
O254   O     0.47643   0.51926   0.08320   0.00000  Uiso   1.00
O255   O     0.45260   0.60313   0.07881   0.00000  Uiso   1.00
O256   O     0.39075   0.57038   0.16282   0.00000  Uiso   1.00
O257   O     0.64823   0.50691   0.22253   0.00000  Uiso   1.00
O258   O     0.40796   0.49766   0.21631   0.00000  Uiso   1.00
O259   O     0.60925   0.42962   0.17051   0.00000  Uiso   1.00
O260   O     0.36898   0.42037   0.16428   0.00000  Uiso   1.00
O261   O     0.59204   0.50234   0.11703   0.00000  Uiso   1.00
O262   O     0.35177   0.49309   0.11080   0.00000  Uiso   1.00
O263   O     0.38533   0.42453   0.05768   0.00000  Uiso   1.00
Zn264  Zn    0.60453   0.50618   0.17082   0.00000  Uiso   1.00
Zn265  Zn    0.39547   0.49382   0.16251   0.00000  Uiso   1.00
C266   C     0.68120   0.59816   0.16516   0.00000  Uiso   1.00
C267   C     0.72015   0.51264   0.27871   0.00000  Uiso   1.00
C268   C     0.68826   0.65258   0.16333   0.00000  Uiso   1.00
C269   C     0.70244   0.50471   0.23720   0.00000  Uiso   1.00
C270   C     0.97639   0.34707   0.16590   0.00000  Uiso   1.00
C271   C     0.98465   0.40172   0.16641   0.00000  Uiso   1.00
C272   C     0.96413   0.49601   0.09605   0.00000  Uiso   1.00
C273   C     0.90940   0.40562   0.01281   0.00000  Uiso   1.00
C274   C     0.94305   0.48120   0.05560   0.00000  Uiso   1.00
C275   C     0.70397   0.55728   0.29696   0.00000  Uiso   1.00
C276   C     0.72920   0.57049   0.00154   0.00000  Uiso   1.00
C277   C     0.79595   0.50202   0.00033   0.00000  Uiso   1.00
C278   C     0.77473   0.54325   0.02061   0.00000  Uiso   1.00
C279   C     0.67049   0.40358   0.05759   0.00000  Uiso   1.00
C280   C     0.82452   0.43442   0.14727   0.00000  Uiso   1.00
C281   C     0.79192   0.55390   0.06260   0.00000  Uiso   1.00
C282   C     0.76056   0.48095   0.29928   0.00000  Uiso   1.00
C283   C     0.84969   0.47993   0.01272   0.00000  Uiso   1.00
C284   C     0.85759   0.42888   0.33202   0.00000  Uiso   1.00
C285   C     0.81385   0.40241   0.30399   0.00000  Uiso   1.00
C286   C     0.76593   0.42872   0.28713   0.00000  Uiso   1.00
C287   C     0.89726   0.50790   0.03681   0.00000  Uiso   1.00
C288   C     0.95159   0.43089   0.04184   0.00000  Uiso   1.00
Cl289  Cl    0.81890   0.33664   0.28889   0.00000  Uiso   1.00
Cl290  Cl    0.90693   0.57693   0.03932   0.00000  Uiso   1.00
Cl291  Cl    0.98527   0.59788   0.27375   0.00000  Uiso   1.00
Cl292  Cl    0.70766   0.39225   0.25656   0.00000  Uiso   1.00
H293   H     0.93384   0.66333   0.16857   0.00000  Uiso   1.00
H294   H     0.84324   0.54792   0.18856   0.00000  Uiso   1.00
H295   H     0.91706   0.36726   0.00218   0.00000  Uiso   1.00
H296   H     0.71311   0.60243   0.01610   0.00000  Uiso   1.00
H297   H     0.73062   0.33624   0.16036   0.00000  Uiso   1.00
H298   H     0.95754   0.34198   0.07314   0.00000  Uiso   1.00
H299   H     0.84321   0.38426   0.10736   0.00000  Uiso   1.00
H300   H     0.79869   0.60527   0.10774   0.00000  Uiso   1.00
N301   N     0.81160   0.48556   0.15695   0.00000  Uiso   1.00
N302   N     0.85507   0.51444   0.17638   0.00000  Uiso   1.00
O303   O     0.96435   0.57963   0.16905   0.00000  Uiso   1.00
O304   O     0.99901   0.35379   0.07177   0.00000  Uiso   1.00
O305   O     0.82495   0.40069   0.17070   0.00000  Uiso   1.00
O306   O     0.83487   0.42215   0.11080   0.00000  Uiso   1.00
O307   O     0.80976   0.51926   0.08320   0.00000  Uiso   1.00
O308   O     0.78593   0.60313   0.07881   0.00000  Uiso   1.00
O309   O     0.72408   0.57038   0.16282   0.00000  Uiso   1.00
O310   O     0.98157   0.50691   0.22253   0.00000  Uiso   1.00
O311   O     0.74130   0.49766   0.21631   0.00000  Uiso   1.00
O312   O     0.94258   0.42962   0.17051   0.00000  Uiso   1.00
O313   O     0.70231   0.42037   0.16428   0.00000  Uiso   1.00
O314   O     0.92537   0.50234   0.11703   0.00000  Uiso   1.00
O315   O     0.68510   0.49309   0.11080   0.00000  Uiso   1.00
O316   O     0.71866   0.42453   0.05768   0.00000  Uiso   1.00
Zn317  Zn    0.93786   0.50618   0.17082   0.00000  Uiso   1.00
Zn318  Zn    0.72881   0.49382   0.16251   0.00000  Uiso   1.00
C319   C     0.01453   0.93150   0.16516   0.00000  Uiso   1.00
C320   C     0.05348   0.84597   0.27871   0.00000  Uiso   1.00
C321   C     0.02160   0.98591   0.16333   0.00000  Uiso   1.00
C322   C     0.03577   0.83805   0.23720   0.00000  Uiso   1.00
C323   C     0.30973   0.68040   0.16590   0.00000  Uiso   1.00
C324   C     0.31798   0.73506   0.16641   0.00000  Uiso   1.00
C325   C     0.29747   0.82935   0.09605   0.00000  Uiso   1.00
C326   C     0.24274   0.73895   0.01281   0.00000  Uiso   1.00
C327   C     0.27639   0.81453   0.05560   0.00000  Uiso   1.00
C328   C     0.03730   0.89061   0.29696   0.00000  Uiso   1.00
C329   C     0.06253   0.90382   0.00154   0.00000  Uiso   1.00
C330   C     0.12928   0.83535   0.00033   0.00000  Uiso   1.00
C331   C     0.10807   0.87658   0.02061   0.00000  Uiso   1.00
C332   C     0.00382   0.73691   0.05759   0.00000  Uiso   1.00
C333   C     0.15786   0.76775   0.14727   0.00000  Uiso   1.00
C334   C     0.12525   0.88723   0.06260   0.00000  Uiso   1.00
C335   C     0.09389   0.81428   0.29928   0.00000  Uiso   1.00
C336   C     0.18302   0.81327   0.01272   0.00000  Uiso   1.00
C337   C     0.19093   0.76221   0.33202   0.00000  Uiso   1.00
C338   C     0.14718   0.73574   0.30399   0.00000  Uiso   1.00
C339   C     0.09927   0.76205   0.28713   0.00000  Uiso   1.00
C340   C     0.23059   0.84124   0.03681   0.00000  Uiso   1.00
C341   C     0.28493   0.76423   0.04184   0.00000  Uiso   1.00
Cl342  Cl    0.15224   0.66997   0.28889   0.00000  Uiso   1.00
Cl343  Cl    0.24027   0.91026   0.03932   0.00000  Uiso   1.00
Cl344  Cl    0.31860   0.93122   0.27375   0.00000  Uiso   1.00
Cl345  Cl    0.04099   0.72558   0.25656   0.00000  Uiso   1.00
H346   H     0.26717   0.99666   0.16857   0.00000  Uiso   1.00
H347   H     0.17657   0.88125   0.18856   0.00000  Uiso   1.00
H348   H     0.25039   0.70060   0.00218   0.00000  Uiso   1.00
H349   H     0.04644   0.93576   0.01610   0.00000  Uiso   1.00
H350   H     0.06395   0.66958   0.16036   0.00000  Uiso   1.00
H351   H     0.29088   0.67531   0.07314   0.00000  Uiso   1.00
H352   H     0.17655   0.71760   0.10736   0.00000  Uiso   1.00
H353   H     0.13202   0.93861   0.10774   0.00000  Uiso   1.00
N354   N     0.14493   0.81890   0.15695   0.00000  Uiso   1.00
N355   N     0.18840   0.84777   0.17638   0.00000  Uiso   1.00
O356   O     0.29769   0.91296   0.16905   0.00000  Uiso   1.00
O357   O     0.33234   0.68712   0.07177   0.00000  Uiso   1.00
O358   O     0.15829   0.73402   0.17070   0.00000  Uiso   1.00
O359   O     0.16821   0.75549   0.11080   0.00000  Uiso   1.00
O360   O     0.14309   0.85260   0.08320   0.00000  Uiso   1.00
O361   O     0.11926   0.93646   0.07881   0.00000  Uiso   1.00
O362   O     0.05742   0.90371   0.16282   0.00000  Uiso   1.00
O363   O     0.31490   0.84024   0.22253   0.00000  Uiso   1.00
O364   O     0.07463   0.83099   0.21631   0.00000  Uiso   1.00
O365   O     0.27592   0.76296   0.17051   0.00000  Uiso   1.00
O366   O     0.03565   0.75371   0.16428   0.00000  Uiso   1.00
O367   O     0.25870   0.83567   0.11703   0.00000  Uiso   1.00
O368   O     0.01843   0.82642   0.11080   0.00000  Uiso   1.00
O369   O     0.05199   0.75786   0.05768   0.00000  Uiso   1.00
Zn370  Zn    0.27119   0.83951   0.17082   0.00000  Uiso   1.00
Zn371  Zn    0.06214   0.82716   0.16251   0.00000  Uiso   1.00
C372   C     0.34787   0.93150   0.16516   0.00000  Uiso   1.00
C373   C     0.38681   0.84597   0.27871   0.00000  Uiso   1.00
C374   C     0.35493   0.98591   0.16333   0.00000  Uiso   1.00
C375   C     0.36910   0.83805   0.23720   0.00000  Uiso   1.00
C376   C     0.64306   0.68040   0.16590   0.00000  Uiso   1.00
C377   C     0.65131   0.73506   0.16641   0.00000  Uiso   1.00
C378   C     0.63080   0.82935   0.09605   0.00000  Uiso   1.00
C379   C     0.57607   0.73895   0.01281   0.00000  Uiso   1.00
C380   C     0.60972   0.81453   0.05560   0.00000  Uiso   1.00
C381   C     0.37063   0.89061   0.29696   0.00000  Uiso   1.00
C382   C     0.39586   0.90382   0.00154   0.00000  Uiso   1.00
C383   C     0.46262   0.83535   0.00033   0.00000  Uiso   1.00
C384   C     0.44140   0.87658   0.02061   0.00000  Uiso   1.00
C385   C     0.33716   0.73691   0.05759   0.00000  Uiso   1.00
C386   C     0.49119   0.76775   0.14727   0.00000  Uiso   1.00
C387   C     0.45858   0.88723   0.06260   0.00000  Uiso   1.00
C388   C     0.42723   0.81428   0.29928   0.00000  Uiso   1.00
C389   C     0.51635   0.81327   0.01272   0.00000  Uiso   1.00
C390   C     0.52426   0.76221   0.33202   0.00000  Uiso   1.00
C391   C     0.48052   0.73574   0.30399   0.00000  Uiso   1.00
C392   C     0.43260   0.76205   0.28713   0.00000  Uiso   1.00
C393   C     0.56393   0.84124   0.03681   0.00000  Uiso   1.00
C394   C     0.61826   0.76423   0.04184   0.00000  Uiso   1.00
Cl395  Cl    0.48557   0.66997   0.28889   0.00000  Uiso   1.00
Cl396  Cl    0.57360   0.91026   0.03932   0.00000  Uiso   1.00
Cl397  Cl    0.65194   0.93122   0.27375   0.00000  Uiso   1.00
Cl398  Cl    0.37433   0.72558   0.25656   0.00000  Uiso   1.00
H399   H     0.60050   0.99666   0.16857   0.00000  Uiso   1.00
H400   H     0.50990   0.88125   0.18856   0.00000  Uiso   1.00
H401   H     0.58372   0.70060   0.00218   0.00000  Uiso   1.00
H402   H     0.37978   0.93576   0.01610   0.00000  Uiso   1.00
H403   H     0.39728   0.66958   0.16036   0.00000  Uiso   1.00
H404   H     0.62421   0.67531   0.07314   0.00000  Uiso   1.00
H405   H     0.50988   0.71760   0.10736   0.00000  Uiso   1.00
H406   H     0.46535   0.93861   0.10774   0.00000  Uiso   1.00
N407   N     0.47827   0.81890   0.15695   0.00000  Uiso   1.00
N408   N     0.52173   0.84777   0.17638   0.00000  Uiso   1.00
O409   O     0.63102   0.91296   0.16905   0.00000  Uiso   1.00
O410   O     0.66568   0.68712   0.07177   0.00000  Uiso   1.00
O411   O     0.49162   0.73402   0.17070   0.00000  Uiso   1.00
O412   O     0.50154   0.75549   0.11080   0.00000  Uiso   1.00
O413   O     0.47643   0.85260   0.08320   0.00000  Uiso   1.00
O414   O     0.45260   0.93646   0.07881   0.00000  Uiso   1.00
O415   O     0.39075   0.90371   0.16282   0.00000  Uiso   1.00
O416   O     0.64823   0.84024   0.22253   0.00000  Uiso   1.00
O417   O     0.40796   0.83099   0.21631   0.00000  Uiso   1.00
O418   O     0.60925   0.76296   0.17051   0.00000  Uiso   1.00
O419   O     0.36898   0.75371   0.16428   0.00000  Uiso   1.00
O420   O     0.59204   0.83567   0.11703   0.00000  Uiso   1.00
O421   O     0.35177   0.82642   0.11080   0.00000  Uiso   1.00
O422   O     0.38533   0.75786   0.05768   0.00000  Uiso   1.00
Zn423  Zn    0.60453   0.83951   0.17082   0.00000  Uiso   1.00
Zn424  Zn    0.39547   0.82716   0.16251   0.00000  Uiso   1.00
C425   C     0.68120   0.93150   0.16516   0.00000  Uiso   1.00
C426   C     0.72015   0.84597   0.27871   0.00000  Uiso   1.00
C427   C     0.68826   0.98591   0.16333   0.00000  Uiso   1.00
C428   C     0.70244   0.83805   0.23720   0.00000  Uiso   1.00
C429   C     0.97639   0.68040   0.16590   0.00000  Uiso   1.00
C430   C     0.98465   0.73506   0.16641   0.00000  Uiso   1.00
C431   C     0.96413   0.82935   0.09605   0.00000  Uiso   1.00
C432   C     0.90940   0.73895   0.01281   0.00000  Uiso   1.00
C433   C     0.94305   0.81453   0.05560   0.00000  Uiso   1.00
C434   C     0.70397   0.89061   0.29696   0.00000  Uiso   1.00
C435   C     0.72920   0.90382   0.00154   0.00000  Uiso   1.00
C436   C     0.79595   0.83535   0.00033   0.00000  Uiso   1.00
C437   C     0.77473   0.87658   0.02061   0.00000  Uiso   1.00
C438   C     0.67049   0.73691   0.05759   0.00000  Uiso   1.00
C439   C     0.82452   0.76775   0.14727   0.00000  Uiso   1.00
C440   C     0.79192   0.88723   0.06260   0.00000  Uiso   1.00
C441   C     0.76056   0.81428   0.29928   0.00000  Uiso   1.00
C442   C     0.84969   0.81327   0.01272   0.00000  Uiso   1.00
C443   C     0.85759   0.76221   0.33202   0.00000  Uiso   1.00
C444   C     0.81385   0.73574   0.30399   0.00000  Uiso   1.00
C445   C     0.76593   0.76205   0.28713   0.00000  Uiso   1.00
C446   C     0.89726   0.84124   0.03681   0.00000  Uiso   1.00
C447   C     0.95159   0.76423   0.04184   0.00000  Uiso   1.00
Cl448  Cl    0.81890   0.66997   0.28889   0.00000  Uiso   1.00
Cl449  Cl    0.90693   0.91026   0.03932   0.00000  Uiso   1.00
Cl450  Cl    0.98527   0.93122   0.27375   0.00000  Uiso   1.00
Cl451  Cl    0.70766   0.72558   0.25656   0.00000  Uiso   1.00
H452   H     0.93384   0.99666   0.16857   0.00000  Uiso   1.00
H453   H     0.84324   0.88125   0.18856   0.00000  Uiso   1.00
H454   H     0.91706   0.70060   0.00218   0.00000  Uiso   1.00
H455   H     0.71311   0.93576   0.01610   0.00000  Uiso   1.00
H456   H     0.73062   0.66958   0.16036   0.00000  Uiso   1.00
H457   H     0.95754   0.67531   0.07314   0.00000  Uiso   1.00
H458   H     0.84321   0.71760   0.10736   0.00000  Uiso   1.00
H459   H     0.79869   0.93861   0.10774   0.00000  Uiso   1.00
N460   N     0.81160   0.81890   0.15695   0.00000  Uiso   1.00
N461   N     0.85507   0.84777   0.17638   0.00000  Uiso   1.00
O462   O     0.96435   0.91296   0.16905   0.00000  Uiso   1.00
O463   O     0.99901   0.68712   0.07177   0.00000  Uiso   1.00
O464   O     0.82495   0.73402   0.17070   0.00000  Uiso   1.00
O465   O     0.83487   0.75549   0.11080   0.00000  Uiso   1.00
O466   O     0.80976   0.85260   0.08320   0.00000  Uiso   1.00
O467   O     0.78593   0.93646   0.07881   0.00000  Uiso   1.00
O468   O     0.72408   0.90371   0.16282   0.00000  Uiso   1.00
O469   O     0.98157   0.84024   0.22253   0.00000  Uiso   1.00
O470   O     0.74130   0.83099   0.21631   0.00000  Uiso   1.00
O471   O     0.94258   0.76296   0.17051   0.00000  Uiso   1.00
O472   O     0.70231   0.75371   0.16428   0.00000  Uiso   1.00
O473   O     0.92537   0.83567   0.11703   0.00000  Uiso   1.00
O474   O     0.68510   0.82642   0.11080   0.00000  Uiso   1.00
O475   O     0.71866   0.75786   0.05768   0.00000  Uiso   1.00
Zn476  Zn    0.93786   0.83951   0.17082   0.00000  Uiso   1.00
Zn477  Zn    0.72881   0.82716   0.16251   0.00000  Uiso   1.00
C478   C     0.01453   0.26483   0.49849   0.00000  Uiso   1.00
C479   C     0.05348   0.17930   0.61204   0.00000  Uiso   1.00
C480   C     0.02160   0.31924   0.49666   0.00000  Uiso   1.00
C481   C     0.03577   0.17138   0.57054   0.00000  Uiso   1.00
C482   C     0.30973   0.01373   0.49923   0.00000  Uiso   1.00
C483   C     0.31798   0.06839   0.49974   0.00000  Uiso   1.00
C484   C     0.29747   0.16268   0.42938   0.00000  Uiso   1.00
C485   C     0.24274   0.07229   0.34614   0.00000  Uiso   1.00
C486   C     0.27639   0.14787   0.38893   0.00000  Uiso   1.00
C487   C     0.03730   0.22395   0.63029   0.00000  Uiso   1.00
C488   C     0.06253   0.23715   0.33487   0.00000  Uiso   1.00
C489   C     0.12928   0.16869   0.33366   0.00000  Uiso   1.00
C490   C     0.10807   0.20991   0.35394   0.00000  Uiso   1.00
C491   C     0.00382   0.07024   0.39092   0.00000  Uiso   1.00
C492   C     0.15786   0.10109   0.48061   0.00000  Uiso   1.00
C493   C     0.12525   0.22057   0.39593   0.00000  Uiso   1.00
C494   C     0.09389   0.14761   0.63261   0.00000  Uiso   1.00
C495   C     0.18302   0.14660   0.34605   0.00000  Uiso   1.00
C496   C     0.19093   0.09555   0.66535   0.00000  Uiso   1.00
C497   C     0.14718   0.06907   0.63733   0.00000  Uiso   1.00
C498   C     0.09927   0.09539   0.62047   0.00000  Uiso   1.00
C499   C     0.23059   0.17457   0.37014   0.00000  Uiso   1.00
C500   C     0.28493   0.09756   0.37517   0.00000  Uiso   1.00
Cl501  Cl    0.15224   0.00331   0.62222   0.00000  Uiso   1.00
Cl502  Cl    0.24027   0.24359   0.37265   0.00000  Uiso   1.00
Cl503  Cl    0.31860   0.26455   0.60708   0.00000  Uiso   1.00
Cl504  Cl    0.04099   0.05891   0.58989   0.00000  Uiso   1.00
H505   H     0.26717   0.33000   0.50190   0.00000  Uiso   1.00
H506   H     0.17657   0.21459   0.52189   0.00000  Uiso   1.00
H507   H     0.25039   0.03393   0.33551   0.00000  Uiso   1.00
H508   H     0.04644   0.26910   0.34943   0.00000  Uiso   1.00
H509   H     0.06395   0.00291   0.49370   0.00000  Uiso   1.00
H510   H     0.29088   0.00864   0.40647   0.00000  Uiso   1.00
H511   H     0.17655   0.05093   0.44070   0.00000  Uiso   1.00
H512   H     0.13202   0.27194   0.44107   0.00000  Uiso   1.00
N513   N     0.14493   0.15223   0.49028   0.00000  Uiso   1.00
N514   N     0.18840   0.18110   0.50972   0.00000  Uiso   1.00
O515   O     0.29769   0.24629   0.50238   0.00000  Uiso   1.00
O516   O     0.33234   0.02046   0.40510   0.00000  Uiso   1.00
O517   O     0.15829   0.06735   0.50403   0.00000  Uiso   1.00
O518   O     0.16821   0.08882   0.44413   0.00000  Uiso   1.00
O519   O     0.14309   0.18593   0.41654   0.00000  Uiso   1.00
O520   O     0.11926   0.26980   0.41215   0.00000  Uiso   1.00
O521   O     0.05742   0.23704   0.49616   0.00000  Uiso   1.00
O522   O     0.31490   0.17358   0.55587   0.00000  Uiso   1.00
O523   O     0.07463   0.16433   0.54964   0.00000  Uiso   1.00
O524   O     0.27592   0.09629   0.50384   0.00000  Uiso   1.00
O525   O     0.03565   0.08704   0.49762   0.00000  Uiso   1.00
O526   O     0.25870   0.16901   0.45036   0.00000  Uiso   1.00
O527   O     0.01843   0.15976   0.44413   0.00000  Uiso   1.00
O528   O     0.05199   0.09119   0.39101   0.00000  Uiso   1.00
Zn529  Zn    0.27119   0.17284   0.50416   0.00000  Uiso   1.00
Zn530  Zn    0.06214   0.16049   0.49584   0.00000  Uiso   1.00
C531   C     0.34787   0.26483   0.49849   0.00000  Uiso   1.00
C532   C     0.38681   0.17930   0.61204   0.00000  Uiso   1.00
C533   C     0.35493   0.31924   0.49666   0.00000  Uiso   1.00
C534   C     0.36910   0.17138   0.57054   0.00000  Uiso   1.00
C535   C     0.64306   0.01373   0.49923   0.00000  Uiso   1.00
C536   C     0.65131   0.06839   0.49974   0.00000  Uiso   1.00
C537   C     0.63080   0.16268   0.42938   0.00000  Uiso   1.00
C538   C     0.57607   0.07229   0.34614   0.00000  Uiso   1.00
C539   C     0.60972   0.14787   0.38893   0.00000  Uiso   1.00
C540   C     0.37063   0.22395   0.63029   0.00000  Uiso   1.00
C541   C     0.39586   0.23715   0.33487   0.00000  Uiso   1.00
C542   C     0.46262   0.16869   0.33366   0.00000  Uiso   1.00
C543   C     0.44140   0.20991   0.35394   0.00000  Uiso   1.00
C544   C     0.33716   0.07024   0.39092   0.00000  Uiso   1.00
C545   C     0.49119   0.10109   0.48061   0.00000  Uiso   1.00
C546   C     0.45858   0.22057   0.39593   0.00000  Uiso   1.00
C547   C     0.42723   0.14761   0.63261   0.00000  Uiso   1.00
C548   C     0.51635   0.14660   0.34605   0.00000  Uiso   1.00
C549   C     0.52426   0.09555   0.66535   0.00000  Uiso   1.00
C550   C     0.48052   0.06907   0.63733   0.00000  Uiso   1.00
C551   C     0.43260   0.09539   0.62047   0.00000  Uiso   1.00
C552   C     0.56393   0.17457   0.37014   0.00000  Uiso   1.00
C553   C     0.61826   0.09756   0.37517   0.00000  Uiso   1.00
Cl554  Cl    0.48557   0.00331   0.62222   0.00000  Uiso   1.00
Cl555  Cl    0.57360   0.24359   0.37265   0.00000  Uiso   1.00
Cl556  Cl    0.65194   0.26455   0.60708   0.00000  Uiso   1.00
Cl557  Cl    0.37433   0.05891   0.58989   0.00000  Uiso   1.00
H558   H     0.60050   0.33000   0.50190   0.00000  Uiso   1.00
H559   H     0.50990   0.21459   0.52189   0.00000  Uiso   1.00
H560   H     0.58372   0.03393   0.33551   0.00000  Uiso   1.00
H561   H     0.37978   0.26910   0.34943   0.00000  Uiso   1.00
H562   H     0.39728   0.00291   0.49370   0.00000  Uiso   1.00
H563   H     0.62421   0.00864   0.40647   0.00000  Uiso   1.00
H564   H     0.50988   0.05093   0.44070   0.00000  Uiso   1.00
H565   H     0.46535   0.27194   0.44107   0.00000  Uiso   1.00
N566   N     0.47827   0.15223   0.49028   0.00000  Uiso   1.00
N567   N     0.52173   0.18110   0.50972   0.00000  Uiso   1.00
O568   O     0.63102   0.24629   0.50238   0.00000  Uiso   1.00
O569   O     0.66568   0.02046   0.40510   0.00000  Uiso   1.00
O570   O     0.49162   0.06735   0.50403   0.00000  Uiso   1.00
O571   O     0.50154   0.08882   0.44413   0.00000  Uiso   1.00
O572   O     0.47643   0.18593   0.41654   0.00000  Uiso   1.00
O573   O     0.45260   0.26980   0.41215   0.00000  Uiso   1.00
O574   O     0.39075   0.23704   0.49616   0.00000  Uiso   1.00
O575   O     0.64823   0.17358   0.55587   0.00000  Uiso   1.00
O576   O     0.40796   0.16433   0.54964   0.00000  Uiso   1.00
O577   O     0.60925   0.09629   0.50384   0.00000  Uiso   1.00
O578   O     0.36898   0.08704   0.49762   0.00000  Uiso   1.00
O579   O     0.59204   0.16901   0.45036   0.00000  Uiso   1.00
O580   O     0.35177   0.15976   0.44413   0.00000  Uiso   1.00
O581   O     0.38533   0.09119   0.39101   0.00000  Uiso   1.00
Zn582  Zn    0.60453   0.17284   0.50416   0.00000  Uiso   1.00
Zn583  Zn    0.39547   0.16049   0.49584   0.00000  Uiso   1.00
C584   C     0.68120   0.26483   0.49849   0.00000  Uiso   1.00
C585   C     0.72015   0.17930   0.61204   0.00000  Uiso   1.00
C586   C     0.68826   0.31924   0.49666   0.00000  Uiso   1.00
C587   C     0.70244   0.17138   0.57054   0.00000  Uiso   1.00
C588   C     0.97639   0.01373   0.49923   0.00000  Uiso   1.00
C589   C     0.98465   0.06839   0.49974   0.00000  Uiso   1.00
C590   C     0.96413   0.16268   0.42938   0.00000  Uiso   1.00
C591   C     0.90940   0.07229   0.34614   0.00000  Uiso   1.00
C592   C     0.94305   0.14787   0.38893   0.00000  Uiso   1.00
C593   C     0.70397   0.22395   0.63029   0.00000  Uiso   1.00
C594   C     0.72920   0.23715   0.33487   0.00000  Uiso   1.00
C595   C     0.79595   0.16869   0.33366   0.00000  Uiso   1.00
C596   C     0.77473   0.20991   0.35394   0.00000  Uiso   1.00
C597   C     0.67049   0.07024   0.39092   0.00000  Uiso   1.00
C598   C     0.82452   0.10109   0.48061   0.00000  Uiso   1.00
C599   C     0.79192   0.22057   0.39593   0.00000  Uiso   1.00
C600   C     0.76056   0.14761   0.63261   0.00000  Uiso   1.00
C601   C     0.84969   0.14660   0.34605   0.00000  Uiso   1.00
C602   C     0.85759   0.09555   0.66535   0.00000  Uiso   1.00
C603   C     0.81385   0.06907   0.63733   0.00000  Uiso   1.00
C604   C     0.76593   0.09539   0.62047   0.00000  Uiso   1.00
C605   C     0.89726   0.17457   0.37014   0.00000  Uiso   1.00
C606   C     0.95159   0.09756   0.37517   0.00000  Uiso   1.00
Cl607  Cl    0.81890   0.00331   0.62222   0.00000  Uiso   1.00
Cl608  Cl    0.90693   0.24359   0.37265   0.00000  Uiso   1.00
Cl609  Cl    0.98527   0.26455   0.60708   0.00000  Uiso   1.00
Cl610  Cl    0.70766   0.05891   0.58989   0.00000  Uiso   1.00
H611   H     0.93384   0.33000   0.50190   0.00000  Uiso   1.00
H612   H     0.84324   0.21459   0.52189   0.00000  Uiso   1.00
H613   H     0.91706   0.03393   0.33551   0.00000  Uiso   1.00
H614   H     0.71311   0.26910   0.34943   0.00000  Uiso   1.00
H615   H     0.73062   0.00291   0.49370   0.00000  Uiso   1.00
H616   H     0.95754   0.00864   0.40647   0.00000  Uiso   1.00
H617   H     0.84321   0.05093   0.44070   0.00000  Uiso   1.00
H618   H     0.79869   0.27194   0.44107   0.00000  Uiso   1.00
N619   N     0.81160   0.15223   0.49028   0.00000  Uiso   1.00
N620   N     0.85507   0.18110   0.50972   0.00000  Uiso   1.00
O621   O     0.96435   0.24629   0.50238   0.00000  Uiso   1.00
O622   O     0.99901   0.02046   0.40510   0.00000  Uiso   1.00
O623   O     0.82495   0.06735   0.50403   0.00000  Uiso   1.00
O624   O     0.83487   0.08882   0.44413   0.00000  Uiso   1.00
O625   O     0.80976   0.18593   0.41654   0.00000  Uiso   1.00
O626   O     0.78593   0.26980   0.41215   0.00000  Uiso   1.00
O627   O     0.72408   0.23704   0.49616   0.00000  Uiso   1.00
O628   O     0.98157   0.17358   0.55587   0.00000  Uiso   1.00
O629   O     0.74130   0.16433   0.54964   0.00000  Uiso   1.00
O630   O     0.94258   0.09629   0.50384   0.00000  Uiso   1.00
O631   O     0.70231   0.08704   0.49762   0.00000  Uiso   1.00
O632   O     0.92537   0.16901   0.45036   0.00000  Uiso   1.00
O633   O     0.68510   0.15976   0.44413   0.00000  Uiso   1.00
O634   O     0.71866   0.09119   0.39101   0.00000  Uiso   1.00
Zn635  Zn    0.93786   0.17284   0.50416   0.00000  Uiso   1.00
Zn636  Zn    0.72881   0.16049   0.49584   0.00000  Uiso   1.00
C637   C     0.01453   0.59816   0.49849   0.00000  Uiso   1.00
C638   C     0.05348   0.51264   0.61204   0.00000  Uiso   1.00
C639   C     0.02160   0.65258   0.49666   0.00000  Uiso   1.00
C640   C     0.03577   0.50471   0.57054   0.00000  Uiso   1.00
C641   C     0.30973   0.34707   0.49923   0.00000  Uiso   1.00
C642   C     0.31798   0.40172   0.49974   0.00000  Uiso   1.00
C643   C     0.29747   0.49601   0.42938   0.00000  Uiso   1.00
C644   C     0.24274   0.40562   0.34614   0.00000  Uiso   1.00
C645   C     0.27639   0.48120   0.38893   0.00000  Uiso   1.00
C646   C     0.03730   0.55728   0.63029   0.00000  Uiso   1.00
C647   C     0.06253   0.57049   0.33487   0.00000  Uiso   1.00
C648   C     0.12928   0.50202   0.33366   0.00000  Uiso   1.00
C649   C     0.10807   0.54325   0.35394   0.00000  Uiso   1.00
C650   C     0.00382   0.40358   0.39092   0.00000  Uiso   1.00
C651   C     0.15786   0.43442   0.48061   0.00000  Uiso   1.00
C652   C     0.12525   0.55390   0.39593   0.00000  Uiso   1.00
C653   C     0.09389   0.48095   0.63261   0.00000  Uiso   1.00
C654   C     0.18302   0.47993   0.34605   0.00000  Uiso   1.00
C655   C     0.19093   0.42888   0.66535   0.00000  Uiso   1.00
C656   C     0.14718   0.40241   0.63733   0.00000  Uiso   1.00
C657   C     0.09927   0.42872   0.62047   0.00000  Uiso   1.00
C658   C     0.23059   0.50790   0.37014   0.00000  Uiso   1.00
C659   C     0.28493   0.43089   0.37517   0.00000  Uiso   1.00
Cl660  Cl    0.15224   0.33664   0.62222   0.00000  Uiso   1.00
Cl661  Cl    0.24027   0.57693   0.37265   0.00000  Uiso   1.00
Cl662  Cl    0.31860   0.59788   0.60708   0.00000  Uiso   1.00
Cl663  Cl    0.04099   0.39225   0.58989   0.00000  Uiso   1.00
H664   H     0.26717   0.66333   0.50190   0.00000  Uiso   1.00
H665   H     0.17657   0.54792   0.52189   0.00000  Uiso   1.00
H666   H     0.25039   0.36726   0.33551   0.00000  Uiso   1.00
H667   H     0.04644   0.60243   0.34943   0.00000  Uiso   1.00
H668   H     0.06395   0.33624   0.49370   0.00000  Uiso   1.00
H669   H     0.29088   0.34198   0.40647   0.00000  Uiso   1.00
H670   H     0.17655   0.38426   0.44070   0.00000  Uiso   1.00
H671   H     0.13202   0.60527   0.44107   0.00000  Uiso   1.00
N672   N     0.14493   0.48556   0.49028   0.00000  Uiso   1.00
N673   N     0.18840   0.51444   0.50972   0.00000  Uiso   1.00
O674   O     0.29769   0.57963   0.50238   0.00000  Uiso   1.00
O675   O     0.33234   0.35379   0.40510   0.00000  Uiso   1.00
O676   O     0.15829   0.40069   0.50403   0.00000  Uiso   1.00
O677   O     0.16821   0.42215   0.44413   0.00000  Uiso   1.00
O678   O     0.14309   0.51926   0.41654   0.00000  Uiso   1.00
O679   O     0.11926   0.60313   0.41215   0.00000  Uiso   1.00
O680   O     0.05742   0.57038   0.49616   0.00000  Uiso   1.00
O681   O     0.31490   0.50691   0.55587   0.00000  Uiso   1.00
O682   O     0.07463   0.49766   0.54964   0.00000  Uiso   1.00
O683   O     0.27592   0.42962   0.50384   0.00000  Uiso   1.00
O684   O     0.03565   0.42037   0.49762   0.00000  Uiso   1.00
O685   O     0.25870   0.50234   0.45036   0.00000  Uiso   1.00
O686   O     0.01843   0.49309   0.44413   0.00000  Uiso   1.00
O687   O     0.05199   0.42453   0.39101   0.00000  Uiso   1.00
Zn688  Zn    0.27119   0.50618   0.50416   0.00000  Uiso   1.00
Zn689  Zn    0.06214   0.49382   0.49584   0.00000  Uiso   1.00
C690   C     0.34787   0.59816   0.49849   0.00000  Uiso   1.00
C691   C     0.38681   0.51264   0.61204   0.00000  Uiso   1.00
C692   C     0.35493   0.65258   0.49666   0.00000  Uiso   1.00
C693   C     0.36910   0.50471   0.57054   0.00000  Uiso   1.00
C694   C     0.64306   0.34707   0.49923   0.00000  Uiso   1.00
C695   C     0.65131   0.40172   0.49974   0.00000  Uiso   1.00
C696   C     0.63080   0.49601   0.42938   0.00000  Uiso   1.00
C697   C     0.57607   0.40562   0.34614   0.00000  Uiso   1.00
C698   C     0.60972   0.48120   0.38893   0.00000  Uiso   1.00
C699   C     0.37063   0.55728   0.63029   0.00000  Uiso   1.00
C700   C     0.39586   0.57049   0.33487   0.00000  Uiso   1.00
C701   C     0.46262   0.50202   0.33366   0.00000  Uiso   1.00
C702   C     0.44140   0.54325   0.35394   0.00000  Uiso   1.00
C703   C     0.33716   0.40358   0.39092   0.00000  Uiso   1.00
C704   C     0.49119   0.43442   0.48061   0.00000  Uiso   1.00
C705   C     0.45858   0.55390   0.39593   0.00000  Uiso   1.00
C706   C     0.42723   0.48095   0.63261   0.00000  Uiso   1.00
C707   C     0.51635   0.47993   0.34605   0.00000  Uiso   1.00
C708   C     0.52426   0.42888   0.66535   0.00000  Uiso   1.00
C709   C     0.48052   0.40241   0.63733   0.00000  Uiso   1.00
C710   C     0.43260   0.42872   0.62047   0.00000  Uiso   1.00
C711   C     0.56393   0.50790   0.37014   0.00000  Uiso   1.00
C712   C     0.61826   0.43089   0.37517   0.00000  Uiso   1.00
Cl713  Cl    0.48557   0.33664   0.62222   0.00000  Uiso   1.00
Cl714  Cl    0.57360   0.57693   0.37265   0.00000  Uiso   1.00
Cl715  Cl    0.65194   0.59788   0.60708   0.00000  Uiso   1.00
Cl716  Cl    0.37433   0.39225   0.58989   0.00000  Uiso   1.00
H717   H     0.60050   0.66333   0.50190   0.00000  Uiso   1.00
H718   H     0.50990   0.54792   0.52189   0.00000  Uiso   1.00
H719   H     0.58372   0.36726   0.33551   0.00000  Uiso   1.00
H720   H     0.37978   0.60243   0.34943   0.00000  Uiso   1.00
H721   H     0.39728   0.33624   0.49370   0.00000  Uiso   1.00
H722   H     0.62421   0.34198   0.40647   0.00000  Uiso   1.00
H723   H     0.50988   0.38426   0.44070   0.00000  Uiso   1.00
H724   H     0.46535   0.60527   0.44107   0.00000  Uiso   1.00
N725   N     0.47827   0.48556   0.49028   0.00000  Uiso   1.00
N726   N     0.52173   0.51444   0.50972   0.00000  Uiso   1.00
O727   O     0.63102   0.57963   0.50238   0.00000  Uiso   1.00
O728   O     0.66568   0.35379   0.40510   0.00000  Uiso   1.00
O729   O     0.49162   0.40069   0.50403   0.00000  Uiso   1.00
O730   O     0.50154   0.42215   0.44413   0.00000  Uiso   1.00
O731   O     0.47643   0.51926   0.41654   0.00000  Uiso   1.00
O732   O     0.45260   0.60313   0.41215   0.00000  Uiso   1.00
O733   O     0.39075   0.57038   0.49616   0.00000  Uiso   1.00
O734   O     0.64823   0.50691   0.55587   0.00000  Uiso   1.00
O735   O     0.40796   0.49766   0.54964   0.00000  Uiso   1.00
O736   O     0.60925   0.42962   0.50384   0.00000  Uiso   1.00
O737   O     0.36898   0.42037   0.49762   0.00000  Uiso   1.00
O738   O     0.59204   0.50234   0.45036   0.00000  Uiso   1.00
O739   O     0.35177   0.49309   0.44413   0.00000  Uiso   1.00
O740   O     0.38533   0.42453   0.39101   0.00000  Uiso   1.00
Zn741  Zn    0.60453   0.50618   0.50416   0.00000  Uiso   1.00
Zn742  Zn    0.39547   0.49382   0.49584   0.00000  Uiso   1.00
C743   C     0.68120   0.59816   0.49849   0.00000  Uiso   1.00
C744   C     0.72015   0.51264   0.61204   0.00000  Uiso   1.00
C745   C     0.68826   0.65258   0.49666   0.00000  Uiso   1.00
C746   C     0.70244   0.50471   0.57054   0.00000  Uiso   1.00
C747   C     0.97639   0.34707   0.49923   0.00000  Uiso   1.00
C748   C     0.98465   0.40172   0.49974   0.00000  Uiso   1.00
C749   C     0.96413   0.49601   0.42938   0.00000  Uiso   1.00
C750   C     0.90940   0.40562   0.34614   0.00000  Uiso   1.00
C751   C     0.94305   0.48120   0.38893   0.00000  Uiso   1.00
C752   C     0.70397   0.55728   0.63029   0.00000  Uiso   1.00
C753   C     0.72920   0.57049   0.33487   0.00000  Uiso   1.00
C754   C     0.79595   0.50202   0.33366   0.00000  Uiso   1.00
C755   C     0.77473   0.54325   0.35394   0.00000  Uiso   1.00
C756   C     0.67049   0.40358   0.39092   0.00000  Uiso   1.00
C757   C     0.82452   0.43442   0.48061   0.00000  Uiso   1.00
C758   C     0.79192   0.55390   0.39593   0.00000  Uiso   1.00
C759   C     0.76056   0.48095   0.63261   0.00000  Uiso   1.00
C760   C     0.84969   0.47993   0.34605   0.00000  Uiso   1.00
C761   C     0.85759   0.42888   0.66535   0.00000  Uiso   1.00
C762   C     0.81385   0.40241   0.63733   0.00000  Uiso   1.00
C763   C     0.76593   0.42872   0.62047   0.00000  Uiso   1.00
C764   C     0.89726   0.50790   0.37014   0.00000  Uiso   1.00
C765   C     0.95159   0.43089   0.37517   0.00000  Uiso   1.00
Cl766  Cl    0.81890   0.33664   0.62222   0.00000  Uiso   1.00
Cl767  Cl    0.90693   0.57693   0.37265   0.00000  Uiso   1.00
Cl768  Cl    0.98527   0.59788   0.60708   0.00000  Uiso   1.00
Cl769  Cl    0.70766   0.39225   0.58989   0.00000  Uiso   1.00
H770   H     0.93384   0.66333   0.50190   0.00000  Uiso   1.00
H771   H     0.84324   0.54792   0.52189   0.00000  Uiso   1.00
H772   H     0.91706   0.36726   0.33551   0.00000  Uiso   1.00
H773   H     0.71311   0.60243   0.34943   0.00000  Uiso   1.00
H774   H     0.73062   0.33624   0.49370   0.00000  Uiso   1.00
H775   H     0.95754   0.34198   0.40647   0.00000  Uiso   1.00
H776   H     0.84321   0.38426   0.44070   0.00000  Uiso   1.00
H777   H     0.79869   0.60527   0.44107   0.00000  Uiso   1.00
N778   N     0.81160   0.48556   0.49028   0.00000  Uiso   1.00
N779   N     0.85507   0.51444   0.50972   0.00000  Uiso   1.00
O780   O     0.96435   0.57963   0.50238   0.00000  Uiso   1.00
O781   O     0.99901   0.35379   0.40510   0.00000  Uiso   1.00
O782   O     0.82495   0.40069   0.50403   0.00000  Uiso   1.00
O783   O     0.83487   0.42215   0.44413   0.00000  Uiso   1.00
O784   O     0.80976   0.51926   0.41654   0.00000  Uiso   1.00
O785   O     0.78593   0.60313   0.41215   0.00000  Uiso   1.00
O786   O     0.72408   0.57038   0.49616   0.00000  Uiso   1.00
O787   O     0.98157   0.50691   0.55587   0.00000  Uiso   1.00
O788   O     0.74130   0.49766   0.54964   0.00000  Uiso   1.00
O789   O     0.94258   0.42962   0.50384   0.00000  Uiso   1.00
O790   O     0.70231   0.42037   0.49762   0.00000  Uiso   1.00
O791   O     0.92537   0.50234   0.45036   0.00000  Uiso   1.00
O792   O     0.68510   0.49309   0.44413   0.00000  Uiso   1.00
O793   O     0.71866   0.42453   0.39101   0.00000  Uiso   1.00
Zn794  Zn    0.93786   0.50618   0.50416   0.00000  Uiso   1.00
Zn795  Zn    0.72881   0.49382   0.49584   0.00000  Uiso   1.00
C796   C     0.01453   0.93150   0.49849   0.00000  Uiso   1.00
C797   C     0.05348   0.84597   0.61204   0.00000  Uiso   1.00
C798   C     0.02160   0.98591   0.49666   0.00000  Uiso   1.00
C799   C     0.03577   0.83805   0.57054   0.00000  Uiso   1.00
C800   C     0.30973   0.68040   0.49923   0.00000  Uiso   1.00
C801   C     0.31798   0.73506   0.49974   0.00000  Uiso   1.00
C802   C     0.29747   0.82935   0.42938   0.00000  Uiso   1.00
C803   C     0.24274   0.73895   0.34614   0.00000  Uiso   1.00
C804   C     0.27639   0.81453   0.38893   0.00000  Uiso   1.00
C805   C     0.03730   0.89061   0.63029   0.00000  Uiso   1.00
C806   C     0.06253   0.90382   0.33487   0.00000  Uiso   1.00
C807   C     0.12928   0.83535   0.33366   0.00000  Uiso   1.00
C808   C     0.10807   0.87658   0.35394   0.00000  Uiso   1.00
C809   C     0.00382   0.73691   0.39092   0.00000  Uiso   1.00
C810   C     0.15786   0.76775   0.48061   0.00000  Uiso   1.00
C811   C     0.12525   0.88723   0.39593   0.00000  Uiso   1.00
C812   C     0.09389   0.81428   0.63261   0.00000  Uiso   1.00
C813   C     0.18302   0.81327   0.34605   0.00000  Uiso   1.00
C814   C     0.19093   0.76221   0.66535   0.00000  Uiso   1.00
C815   C     0.14718   0.73574   0.63733   0.00000  Uiso   1.00
C816   C     0.09927   0.76205   0.62047   0.00000  Uiso   1.00
C817   C     0.23059   0.84124   0.37014   0.00000  Uiso   1.00
C818   C     0.28493   0.76423   0.37517   0.00000  Uiso   1.00
Cl819  Cl    0.15224   0.66997   0.62222   0.00000  Uiso   1.00
Cl820  Cl    0.24027   0.91026   0.37265   0.00000  Uiso   1.00
Cl821  Cl    0.31860   0.93122   0.60708   0.00000  Uiso   1.00
Cl822  Cl    0.04099   0.72558   0.58989   0.00000  Uiso   1.00
H823   H     0.26717   0.99666   0.50190   0.00000  Uiso   1.00
H824   H     0.17657   0.88125   0.52189   0.00000  Uiso   1.00
H825   H     0.25039   0.70060   0.33551   0.00000  Uiso   1.00
H826   H     0.04644   0.93576   0.34943   0.00000  Uiso   1.00
H827   H     0.06395   0.66958   0.49370   0.00000  Uiso   1.00
H828   H     0.29088   0.67531   0.40647   0.00000  Uiso   1.00
H829   H     0.17655   0.71760   0.44070   0.00000  Uiso   1.00
H830   H     0.13202   0.93861   0.44107   0.00000  Uiso   1.00
N831   N     0.14493   0.81890   0.49028   0.00000  Uiso   1.00
N832   N     0.18840   0.84777   0.50972   0.00000  Uiso   1.00
O833   O     0.29769   0.91296   0.50238   0.00000  Uiso   1.00
O834   O     0.33234   0.68712   0.40510   0.00000  Uiso   1.00
O835   O     0.15829   0.73402   0.50403   0.00000  Uiso   1.00
O836   O     0.16821   0.75549   0.44413   0.00000  Uiso   1.00
O837   O     0.14309   0.85260   0.41654   0.00000  Uiso   1.00
O838   O     0.11926   0.93646   0.41215   0.00000  Uiso   1.00
O839   O     0.05742   0.90371   0.49616   0.00000  Uiso   1.00
O840   O     0.31490   0.84024   0.55587   0.00000  Uiso   1.00
O841   O     0.07463   0.83099   0.54964   0.00000  Uiso   1.00
O842   O     0.27592   0.76296   0.50384   0.00000  Uiso   1.00
O843   O     0.03565   0.75371   0.49762   0.00000  Uiso   1.00
O844   O     0.25870   0.83567   0.45036   0.00000  Uiso   1.00
O845   O     0.01843   0.82642   0.44413   0.00000  Uiso   1.00
O846   O     0.05199   0.75786   0.39101   0.00000  Uiso   1.00
Zn847  Zn    0.27119   0.83951   0.50416   0.00000  Uiso   1.00
Zn848  Zn    0.06214   0.82716   0.49584   0.00000  Uiso   1.00
C849   C     0.34787   0.93150   0.49849   0.00000  Uiso   1.00
C850   C     0.38681   0.84597   0.61204   0.00000  Uiso   1.00
C851   C     0.35493   0.98591   0.49666   0.00000  Uiso   1.00
C852   C     0.36910   0.83805   0.57054   0.00000  Uiso   1.00
C853   C     0.64306   0.68040   0.49923   0.00000  Uiso   1.00
C854   C     0.65131   0.73506   0.49974   0.00000  Uiso   1.00
C855   C     0.63080   0.82935   0.42938   0.00000  Uiso   1.00
C856   C     0.57607   0.73895   0.34614   0.00000  Uiso   1.00
C857   C     0.60972   0.81453   0.38893   0.00000  Uiso   1.00
C858   C     0.37063   0.89061   0.63029   0.00000  Uiso   1.00
C859   C     0.39586   0.90382   0.33487   0.00000  Uiso   1.00
C860   C     0.46262   0.83535   0.33366   0.00000  Uiso   1.00
C861   C     0.44140   0.87658   0.35394   0.00000  Uiso   1.00
C862   C     0.33716   0.73691   0.39092   0.00000  Uiso   1.00
C863   C     0.49119   0.76775   0.48061   0.00000  Uiso   1.00
C864   C     0.45858   0.88723   0.39593   0.00000  Uiso   1.00
C865   C     0.42723   0.81428   0.63261   0.00000  Uiso   1.00
C866   C     0.51635   0.81327   0.34605   0.00000  Uiso   1.00
C867   C     0.52426   0.76221   0.66535   0.00000  Uiso   1.00
C868   C     0.48052   0.73574   0.63733   0.00000  Uiso   1.00
C869   C     0.43260   0.76205   0.62047   0.00000  Uiso   1.00
C870   C     0.56393   0.84124   0.37014   0.00000  Uiso   1.00
C871   C     0.61826   0.76423   0.37517   0.00000  Uiso   1.00
Cl872  Cl    0.48557   0.66997   0.62222   0.00000  Uiso   1.00
Cl873  Cl    0.57360   0.91026   0.37265   0.00000  Uiso   1.00
Cl874  Cl    0.65194   0.93122   0.60708   0.00000  Uiso   1.00
Cl875  Cl    0.37433   0.72558   0.58989   0.00000  Uiso   1.00
H876   H     0.60050   0.99666   0.50190   0.00000  Uiso   1.00
H877   H     0.50990   0.88125   0.52189   0.00000  Uiso   1.00
H878   H     0.58372   0.70060   0.33551   0.00000  Uiso   1.00
H879   H     0.37978   0.93576   0.34943   0.00000  Uiso   1.00
H880   H     0.39728   0.66958   0.49370   0.00000  Uiso   1.00
H881   H     0.62421   0.67531   0.40647   0.00000  Uiso   1.00
H882   H     0.50988   0.71760   0.44070   0.00000  Uiso   1.00
H883   H     0.46535   0.93861   0.44107   0.00000  Uiso   1.00
N884   N     0.47827   0.81890   0.49028   0.00000  Uiso   1.00
N885   N     0.52173   0.84777   0.50972   0.00000  Uiso   1.00
O886   O     0.63102   0.91296   0.50238   0.00000  Uiso   1.00
O887   O     0.66568   0.68712   0.40510   0.00000  Uiso   1.00
O888   O     0.49162   0.73402   0.50403   0.00000  Uiso   1.00
O889   O     0.50154   0.75549   0.44413   0.00000  Uiso   1.00
O890   O     0.47643   0.85260   0.41654   0.00000  Uiso   1.00
O891   O     0.45260   0.93646   0.41215   0.00000  Uiso   1.00
O892   O     0.39075   0.90371   0.49616   0.00000  Uiso   1.00
O893   O     0.64823   0.84024   0.55587   0.00000  Uiso   1.00
O894   O     0.40796   0.83099   0.54964   0.00000  Uiso   1.00
O895   O     0.60925   0.76296   0.50384   0.00000  Uiso   1.00
O896   O     0.36898   0.75371   0.49762   0.00000  Uiso   1.00
O897   O     0.59204   0.83567   0.45036   0.00000  Uiso   1.00
O898   O     0.35177   0.82642   0.44413   0.00000  Uiso   1.00
O899   O     0.38533   0.75786   0.39101   0.00000  Uiso   1.00
Zn900  Zn    0.60453   0.83951   0.50416   0.00000  Uiso   1.00
Zn901  Zn    0.39547   0.82716   0.49584   0.00000  Uiso   1.00
C902   C     0.68120   0.93150   0.49849   0.00000  Uiso   1.00
C903   C     0.72015   0.84597   0.61204   0.00000  Uiso   1.00
C904   C     0.68826   0.98591   0.49666   0.00000  Uiso   1.00
C905   C     0.70244   0.83805   0.57054   0.00000  Uiso   1.00
C906   C     0.97639   0.68040   0.49923   0.00000  Uiso   1.00
C907   C     0.98465   0.73506   0.49974   0.00000  Uiso   1.00
C908   C     0.96413   0.82935   0.42938   0.00000  Uiso   1.00
C909   C     0.90940   0.73895   0.34614   0.00000  Uiso   1.00
C910   C     0.94305   0.81453   0.38893   0.00000  Uiso   1.00
C911   C     0.70397   0.89061   0.63029   0.00000  Uiso   1.00
C912   C     0.72920   0.90382   0.33487   0.00000  Uiso   1.00
C913   C     0.79595   0.83535   0.33366   0.00000  Uiso   1.00
C914   C     0.77473   0.87658   0.35394   0.00000  Uiso   1.00
C915   C     0.67049   0.73691   0.39092   0.00000  Uiso   1.00
C916   C     0.82452   0.76775   0.48061   0.00000  Uiso   1.00
C917   C     0.79192   0.88723   0.39593   0.00000  Uiso   1.00
C918   C     0.76056   0.81428   0.63261   0.00000  Uiso   1.00
C919   C     0.84969   0.81327   0.34605   0.00000  Uiso   1.00
C920   C     0.85759   0.76221   0.66535   0.00000  Uiso   1.00
C921   C     0.81385   0.73574   0.63733   0.00000  Uiso   1.00
C922   C     0.76593   0.76205   0.62047   0.00000  Uiso   1.00
C923   C     0.89726   0.84124   0.37014   0.00000  Uiso   1.00
C924   C     0.95159   0.76423   0.37517   0.00000  Uiso   1.00
Cl925  Cl    0.81890   0.66997   0.62222   0.00000  Uiso   1.00
Cl926  Cl    0.90693   0.91026   0.37265   0.00000  Uiso   1.00
Cl927  Cl    0.98527   0.93122   0.60708   0.00000  Uiso   1.00
Cl928  Cl    0.70766   0.72558   0.58989   0.00000  Uiso   1.00
H929   H     0.93384   0.99666   0.50190   0.00000  Uiso   1.00
H930   H     0.84324   0.88125   0.52189   0.00000  Uiso   1.00
H931   H     0.91706   0.70060   0.33551   0.00000  Uiso   1.00
H932   H     0.71311   0.93576   0.34943   0.00000  Uiso   1.00
H933   H     0.73062   0.66958   0.49370   0.00000  Uiso   1.00
H934   H     0.95754   0.67531   0.40647   0.00000  Uiso   1.00
H935   H     0.84321   0.71760   0.44070   0.00000  Uiso   1.00
H936   H     0.79869   0.93861   0.44107   0.00000  Uiso   1.00
N937   N     0.81160   0.81890   0.49028   0.00000  Uiso   1.00
N938   N     0.85507   0.84777   0.50972   0.00000  Uiso   1.00
O939   O     0.96435   0.91296   0.50238   0.00000  Uiso   1.00
O940   O     0.99901   0.68712   0.40510   0.00000  Uiso   1.00
O941   O     0.82495   0.73402   0.50403   0.00000  Uiso   1.00
O942   O     0.83487   0.75549   0.44413   0.00000  Uiso   1.00
O943   O     0.80976   0.85260   0.41654   0.00000  Uiso   1.00
O944   O     0.78593   0.93646   0.41215   0.00000  Uiso   1.00
O945   O     0.72408   0.90371   0.49616   0.00000  Uiso   1.00
O946   O     0.98157   0.84024   0.55587   0.00000  Uiso   1.00
O947   O     0.74130   0.83099   0.54964   0.00000  Uiso   1.00
O948   O     0.94258   0.76296   0.50384   0.00000  Uiso   1.00
O949   O     0.70231   0.75371   0.49762   0.00000  Uiso   1.00
O950   O     0.92537   0.83567   0.45036   0.00000  Uiso   1.00
O951   O     0.68510   0.82642   0.44413   0.00000  Uiso   1.00
O952   O     0.71866   0.75786   0.39101   0.00000  Uiso   1.00
Zn953  Zn    0.93786   0.83951   0.50416   0.00000  Uiso   1.00
Zn954  Zn    0.72881   0.82716   0.49584   0.00000  Uiso   1.00
C955   C     0.01453   0.26483   0.83183   0.00000  Uiso   1.00
C956   C     0.05348   0.17930   0.94537   0.00000  Uiso   1.00
C957   C     0.02160   0.31924   0.83000   0.00000  Uiso   1.00
C958   C     0.03577   0.17138   0.90387   0.00000  Uiso   1.00
C959   C     0.30973   0.01373   0.83256   0.00000  Uiso   1.00
C960   C     0.31798   0.06839   0.83308   0.00000  Uiso   1.00
C961   C     0.29747   0.16268   0.76272   0.00000  Uiso   1.00
C962   C     0.24274   0.07229   0.67948   0.00000  Uiso   1.00
C963   C     0.27639   0.14787   0.72227   0.00000  Uiso   1.00
C964   C     0.03730   0.22395   0.96363   0.00000  Uiso   1.00
C965   C     0.06253   0.23715   0.66821   0.00000  Uiso   1.00
C966   C     0.12928   0.16869   0.66700   0.00000  Uiso   1.00
C967   C     0.10807   0.20991   0.68727   0.00000  Uiso   1.00
C968   C     0.00382   0.07024   0.72425   0.00000  Uiso   1.00
C969   C     0.15786   0.10109   0.81394   0.00000  Uiso   1.00
C970   C     0.12525   0.22057   0.72927   0.00000  Uiso   1.00
C971   C     0.09389   0.14761   0.96594   0.00000  Uiso   1.00
C972   C     0.18302   0.14660   0.67938   0.00000  Uiso   1.00
C973   C     0.19093   0.09555   0.99868   0.00000  Uiso   1.00
C974   C     0.14718   0.06907   0.97066   0.00000  Uiso   1.00
C975   C     0.09927   0.09539   0.95380   0.00000  Uiso   1.00
C976   C     0.23059   0.17457   0.70347   0.00000  Uiso   1.00
C977   C     0.28493   0.09756   0.70851   0.00000  Uiso   1.00
Cl978  Cl    0.15224   0.00331   0.95556   0.00000  Uiso   1.00
Cl979  Cl    0.24027   0.24359   0.70598   0.00000  Uiso   1.00
Cl980  Cl    0.31860   0.26455   0.94042   0.00000  Uiso   1.00
Cl981  Cl    0.04099   0.05891   0.92322   0.00000  Uiso   1.00
H982   H     0.26717   0.33000   0.83524   0.00000  Uiso   1.00
H983   H     0.17657   0.21459   0.85523   0.00000  Uiso   1.00
H984   H     0.25039   0.03393   0.66885   0.00000  Uiso   1.00
H985   H     0.04644   0.26910   0.68276   0.00000  Uiso   1.00
H986   H     0.06395   0.00291   0.82703   0.00000  Uiso   1.00
H987   H     0.29088   0.00864   0.73980   0.00000  Uiso   1.00
H988   H     0.17655   0.05093   0.77403   0.00000  Uiso   1.00
H989   H     0.13202   0.27194   0.77441   0.00000  Uiso   1.00
N990   N     0.14493   0.15223   0.82362   0.00000  Uiso   1.00
N991   N     0.18840   0.18110   0.84305   0.00000  Uiso   1.00
O992   O     0.29769   0.24629   0.83572   0.00000  Uiso   1.00
O993   O     0.33234   0.02046   0.73844   0.00000  Uiso   1.00
O994   O     0.15829   0.06735   0.83736   0.00000  Uiso   1.00
O995   O     0.16821   0.08882   0.77746   0.00000  Uiso   1.00
O996   O     0.14309   0.18593   0.74987   0.00000  Uiso   1.00
O997   O     0.11926   0.26980   0.74548   0.00000  Uiso   1.00
O998   O     0.05742   0.23704   0.82949   0.00000  Uiso   1.00
O999   O     0.31490   0.17358   0.88920   0.00000  Uiso   1.00
O1000  O     0.07463   0.16433   0.88297   0.00000  Uiso   1.00
O1001  O     0.27592   0.09629   0.83718   0.00000  Uiso   1.00
O1002  O     0.03565   0.08704   0.83095   0.00000  Uiso   1.00
O1003  O     0.25870   0.16901   0.78369   0.00000  Uiso   1.00
O1004  O     0.01843   0.15976   0.77747   0.00000  Uiso   1.00
O1005  O     0.05199   0.09119   0.72434   0.00000  Uiso   1.00
Zn1006 Zn    0.27119   0.17284   0.83749   0.00000  Uiso   1.00
Zn1007 Zn    0.06214   0.16049   0.82918   0.00000  Uiso   1.00
C1008  C     0.34787   0.26483   0.83183   0.00000  Uiso   1.00
C1009  C     0.38681   0.17930   0.94537   0.00000  Uiso   1.00
C1010  C     0.35493   0.31924   0.83000   0.00000  Uiso   1.00
C1011  C     0.36910   0.17138   0.90387   0.00000  Uiso   1.00
C1012  C     0.64306   0.01373   0.83256   0.00000  Uiso   1.00
C1013  C     0.65131   0.06839   0.83308   0.00000  Uiso   1.00
C1014  C     0.63080   0.16268   0.76272   0.00000  Uiso   1.00
C1015  C     0.57607   0.07229   0.67948   0.00000  Uiso   1.00
C1016  C     0.60972   0.14787   0.72227   0.00000  Uiso   1.00
C1017  C     0.37063   0.22395   0.96363   0.00000  Uiso   1.00
C1018  C     0.39586   0.23715   0.66821   0.00000  Uiso   1.00
C1019  C     0.46262   0.16869   0.66700   0.00000  Uiso   1.00
C1020  C     0.44140   0.20991   0.68727   0.00000  Uiso   1.00
C1021  C     0.33716   0.07024   0.72425   0.00000  Uiso   1.00
C1022  C     0.49119   0.10109   0.81394   0.00000  Uiso   1.00
C1023  C     0.45858   0.22057   0.72927   0.00000  Uiso   1.00
C1024  C     0.42723   0.14761   0.96594   0.00000  Uiso   1.00
C1025  C     0.51635   0.14660   0.67938   0.00000  Uiso   1.00
C1026  C     0.52426   0.09555   0.99868   0.00000  Uiso   1.00
C1027  C     0.48052   0.06907   0.97066   0.00000  Uiso   1.00
C1028  C     0.43260   0.09539   0.95380   0.00000  Uiso   1.00
C1029  C     0.56393   0.17457   0.70347   0.00000  Uiso   1.00
C1030  C     0.61826   0.09756   0.70851   0.00000  Uiso   1.00
Cl1031 Cl    0.48557   0.00331   0.95556   0.00000  Uiso   1.00
Cl1032 Cl    0.57360   0.24359   0.70598   0.00000  Uiso   1.00
Cl1033 Cl    0.65194   0.26455   0.94042   0.00000  Uiso   1.00
Cl1034 Cl    0.37433   0.05891   0.92322   0.00000  Uiso   1.00
H1035  H     0.60050   0.33000   0.83524   0.00000  Uiso   1.00
H1036  H     0.50990   0.21459   0.85523   0.00000  Uiso   1.00
H1037  H     0.58372   0.03393   0.66885   0.00000  Uiso   1.00
H1038  H     0.37978   0.26910   0.68276   0.00000  Uiso   1.00
H1039  H     0.39728   0.00291   0.82703   0.00000  Uiso   1.00
H1040  H     0.62421   0.00864   0.73980   0.00000  Uiso   1.00
H1041  H     0.50988   0.05093   0.77403   0.00000  Uiso   1.00
H1042  H     0.46535   0.27194   0.77441   0.00000  Uiso   1.00
N1043  N     0.47827   0.15223   0.82362   0.00000  Uiso   1.00
N1044  N     0.52173   0.18110   0.84305   0.00000  Uiso   1.00
O1045  O     0.63102   0.24629   0.83572   0.00000  Uiso   1.00
O1046  O     0.66568   0.02046   0.73844   0.00000  Uiso   1.00
O1047  O     0.49162   0.06735   0.83736   0.00000  Uiso   1.00
O1048  O     0.50154   0.08882   0.77746   0.00000  Uiso   1.00
O1049  O     0.47643   0.18593   0.74987   0.00000  Uiso   1.00
O1050  O     0.45260   0.26980   0.74548   0.00000  Uiso   1.00
O1051  O     0.39075   0.23704   0.82949   0.00000  Uiso   1.00
O1052  O     0.64823   0.17358   0.88920   0.00000  Uiso   1.00
O1053  O     0.40796   0.16433   0.88297   0.00000  Uiso   1.00
O1054  O     0.60925   0.09629   0.83718   0.00000  Uiso   1.00
O1055  O     0.36898   0.08704   0.83095   0.00000  Uiso   1.00
O1056  O     0.59204   0.16901   0.78369   0.00000  Uiso   1.00
O1057  O     0.35177   0.15976   0.77747   0.00000  Uiso   1.00
O1058  O     0.38533   0.09119   0.72434   0.00000  Uiso   1.00
Zn1059 Zn    0.60453   0.17284   0.83749   0.00000  Uiso   1.00
Zn1060 Zn    0.39547   0.16049   0.82918   0.00000  Uiso   1.00
C1061  C     0.68120   0.26483   0.83183   0.00000  Uiso   1.00
C1062  C     0.72015   0.17930   0.94537   0.00000  Uiso   1.00
C1063  C     0.68826   0.31924   0.83000   0.00000  Uiso   1.00
C1064  C     0.70244   0.17138   0.90387   0.00000  Uiso   1.00
C1065  C     0.97639   0.01373   0.83256   0.00000  Uiso   1.00
C1066  C     0.98465   0.06839   0.83308   0.00000  Uiso   1.00
C1067  C     0.96413   0.16268   0.76272   0.00000  Uiso   1.00
C1068  C     0.90940   0.07229   0.67948   0.00000  Uiso   1.00
C1069  C     0.94305   0.14787   0.72227   0.00000  Uiso   1.00
C1070  C     0.70397   0.22395   0.96363   0.00000  Uiso   1.00
C1071  C     0.72920   0.23715   0.66821   0.00000  Uiso   1.00
C1072  C     0.79595   0.16869   0.66700   0.00000  Uiso   1.00
C1073  C     0.77473   0.20991   0.68727   0.00000  Uiso   1.00
C1074  C     0.67049   0.07024   0.72425   0.00000  Uiso   1.00
C1075  C     0.82452   0.10109   0.81394   0.00000  Uiso   1.00
C1076  C     0.79192   0.22057   0.72927   0.00000  Uiso   1.00
C1077  C     0.76056   0.14761   0.96594   0.00000  Uiso   1.00
C1078  C     0.84969   0.14660   0.67938   0.00000  Uiso   1.00
C1079  C     0.85759   0.09555   0.99868   0.00000  Uiso   1.00
C1080  C     0.81385   0.06907   0.97066   0.00000  Uiso   1.00
C1081  C     0.76593   0.09539   0.95380   0.00000  Uiso   1.00
C1082  C     0.89726   0.17457   0.70347   0.00000  Uiso   1.00
C1083  C     0.95159   0.09756   0.70851   0.00000  Uiso   1.00
Cl1084 Cl    0.81890   0.00331   0.95556   0.00000  Uiso   1.00
Cl1085 Cl    0.90693   0.24359   0.70598   0.00000  Uiso   1.00
Cl1086 Cl    0.98527   0.26455   0.94042   0.00000  Uiso   1.00
Cl1087 Cl    0.70766   0.05891   0.92322   0.00000  Uiso   1.00
H1088  H     0.93384   0.33000   0.83524   0.00000  Uiso   1.00
H1089  H     0.84324   0.21459   0.85523   0.00000  Uiso   1.00
H1090  H     0.91706   0.03393   0.66885   0.00000  Uiso   1.00
H1091  H     0.71311   0.26910   0.68276   0.00000  Uiso   1.00
H1092  H     0.73062   0.00291   0.82703   0.00000  Uiso   1.00
H1093  H     0.95754   0.00864   0.73980   0.00000  Uiso   1.00
H1094  H     0.84321   0.05093   0.77403   0.00000  Uiso   1.00
H1095  H     0.79869   0.27194   0.77441   0.00000  Uiso   1.00
N1096  N     0.81160   0.15223   0.82362   0.00000  Uiso   1.00
N1097  N     0.85507   0.18110   0.84305   0.00000  Uiso   1.00
O1098  O     0.96435   0.24629   0.83572   0.00000  Uiso   1.00
O1099  O     0.99901   0.02046   0.73844   0.00000  Uiso   1.00
O1100  O     0.82495   0.06735   0.83736   0.00000  Uiso   1.00
O1101  O     0.83487   0.08882   0.77746   0.00000  Uiso   1.00
O1102  O     0.80976   0.18593   0.74987   0.00000  Uiso   1.00
O1103  O     0.78593   0.26980   0.74548   0.00000  Uiso   1.00
O1104  O     0.72408   0.23704   0.82949   0.00000  Uiso   1.00
O1105  O     0.98157   0.17358   0.88920   0.00000  Uiso   1.00
O1106  O     0.74130   0.16433   0.88297   0.00000  Uiso   1.00
O1107  O     0.94258   0.09629   0.83718   0.00000  Uiso   1.00
O1108  O     0.70231   0.08704   0.83095   0.00000  Uiso   1.00
O1109  O     0.92537   0.16901   0.78369   0.00000  Uiso   1.00
O1110  O     0.68510   0.15976   0.77747   0.00000  Uiso   1.00
O1111  O     0.71866   0.09119   0.72434   0.00000  Uiso   1.00
Zn1112 Zn    0.93786   0.17284   0.83749   0.00000  Uiso   1.00
Zn1113 Zn    0.72881   0.16049   0.82918   0.00000  Uiso   1.00
C1114  C     0.01453   0.59816   0.83183   0.00000  Uiso   1.00
C1115  C     0.05348   0.51264   0.94537   0.00000  Uiso   1.00
C1116  C     0.02160   0.65258   0.83000   0.00000  Uiso   1.00
C1117  C     0.03577   0.50471   0.90387   0.00000  Uiso   1.00
C1118  C     0.30973   0.34707   0.83256   0.00000  Uiso   1.00
C1119  C     0.31798   0.40172   0.83308   0.00000  Uiso   1.00
C1120  C     0.29747   0.49601   0.76272   0.00000  Uiso   1.00
C1121  C     0.24274   0.40562   0.67948   0.00000  Uiso   1.00
C1122  C     0.27639   0.48120   0.72227   0.00000  Uiso   1.00
C1123  C     0.03730   0.55728   0.96363   0.00000  Uiso   1.00
C1124  C     0.06253   0.57049   0.66821   0.00000  Uiso   1.00
C1125  C     0.12928   0.50202   0.66700   0.00000  Uiso   1.00
C1126  C     0.10807   0.54325   0.68727   0.00000  Uiso   1.00
C1127  C     0.00382   0.40358   0.72425   0.00000  Uiso   1.00
C1128  C     0.15786   0.43442   0.81394   0.00000  Uiso   1.00
C1129  C     0.12525   0.55390   0.72927   0.00000  Uiso   1.00
C1130  C     0.09389   0.48095   0.96594   0.00000  Uiso   1.00
C1131  C     0.18302   0.47993   0.67938   0.00000  Uiso   1.00
C1132  C     0.19093   0.42888   0.99868   0.00000  Uiso   1.00
C1133  C     0.14718   0.40241   0.97066   0.00000  Uiso   1.00
C1134  C     0.09927   0.42872   0.95380   0.00000  Uiso   1.00
C1135  C     0.23059   0.50790   0.70347   0.00000  Uiso   1.00
C1136  C     0.28493   0.43089   0.70851   0.00000  Uiso   1.00
Cl1137 Cl    0.15224   0.33664   0.95556   0.00000  Uiso   1.00
Cl1138 Cl    0.24027   0.57693   0.70598   0.00000  Uiso   1.00
Cl1139 Cl    0.31860   0.59788   0.94042   0.00000  Uiso   1.00
Cl1140 Cl    0.04099   0.39225   0.92322   0.00000  Uiso   1.00
H1141  H     0.26717   0.66333   0.83524   0.00000  Uiso   1.00
H1142  H     0.17657   0.54792   0.85523   0.00000  Uiso   1.00
H1143  H     0.25039   0.36726   0.66885   0.00000  Uiso   1.00
H1144  H     0.04644   0.60243   0.68276   0.00000  Uiso   1.00
H1145  H     0.06395   0.33624   0.82703   0.00000  Uiso   1.00
H1146  H     0.29088   0.34198   0.73980   0.00000  Uiso   1.00
H1147  H     0.17655   0.38426   0.77403   0.00000  Uiso   1.00
H1148  H     0.13202   0.60527   0.77441   0.00000  Uiso   1.00
N1149  N     0.14493   0.48556   0.82362   0.00000  Uiso   1.00
N1150  N     0.18840   0.51444   0.84305   0.00000  Uiso   1.00
O1151  O     0.29769   0.57963   0.83572   0.00000  Uiso   1.00
O1152  O     0.33234   0.35379   0.73844   0.00000  Uiso   1.00
O1153  O     0.15829   0.40069   0.83736   0.00000  Uiso   1.00
O1154  O     0.16821   0.42215   0.77746   0.00000  Uiso   1.00
O1155  O     0.14309   0.51926   0.74987   0.00000  Uiso   1.00
O1156  O     0.11926   0.60313   0.74548   0.00000  Uiso   1.00
O1157  O     0.05742   0.57038   0.82949   0.00000  Uiso   1.00
O1158  O     0.31490   0.50691   0.88920   0.00000  Uiso   1.00
O1159  O     0.07463   0.49766   0.88297   0.00000  Uiso   1.00
O1160  O     0.27592   0.42962   0.83718   0.00000  Uiso   1.00
O1161  O     0.03565   0.42037   0.83095   0.00000  Uiso   1.00
O1162  O     0.25870   0.50234   0.78369   0.00000  Uiso   1.00
O1163  O     0.01843   0.49309   0.77747   0.00000  Uiso   1.00
O1164  O     0.05199   0.42453   0.72434   0.00000  Uiso   1.00
Zn1165 Zn    0.27119   0.50618   0.83749   0.00000  Uiso   1.00
Zn1166 Zn    0.06214   0.49382   0.82918   0.00000  Uiso   1.00
C1167  C     0.34787   0.59816   0.83183   0.00000  Uiso   1.00
C1168  C     0.38681   0.51264   0.94537   0.00000  Uiso   1.00
C1169  C     0.35493   0.65258   0.83000   0.00000  Uiso   1.00
C1170  C     0.36910   0.50471   0.90387   0.00000  Uiso   1.00
C1171  C     0.64306   0.34707   0.83256   0.00000  Uiso   1.00
C1172  C     0.65131   0.40172   0.83308   0.00000  Uiso   1.00
C1173  C     0.63080   0.49601   0.76272   0.00000  Uiso   1.00
C1174  C     0.57607   0.40562   0.67948   0.00000  Uiso   1.00
C1175  C     0.60972   0.48120   0.72227   0.00000  Uiso   1.00
C1176  C     0.37063   0.55728   0.96363   0.00000  Uiso   1.00
C1177  C     0.39586   0.57049   0.66821   0.00000  Uiso   1.00
C1178  C     0.46262   0.50202   0.66700   0.00000  Uiso   1.00
C1179  C     0.44140   0.54325   0.68727   0.00000  Uiso   1.00
C1180  C     0.33716   0.40358   0.72425   0.00000  Uiso   1.00
C1181  C     0.49119   0.43442   0.81394   0.00000  Uiso   1.00
C1182  C     0.45858   0.55390   0.72927   0.00000  Uiso   1.00
C1183  C     0.42723   0.48095   0.96594   0.00000  Uiso   1.00
C1184  C     0.51635   0.47993   0.67938   0.00000  Uiso   1.00
C1185  C     0.52426   0.42888   0.99868   0.00000  Uiso   1.00
C1186  C     0.48052   0.40241   0.97066   0.00000  Uiso   1.00
C1187  C     0.43260   0.42872   0.95380   0.00000  Uiso   1.00
C1188  C     0.56393   0.50790   0.70347   0.00000  Uiso   1.00
C1189  C     0.61826   0.43089   0.70851   0.00000  Uiso   1.00
Cl1190 Cl    0.48557   0.33664   0.95556   0.00000  Uiso   1.00
Cl1191 Cl    0.57360   0.57693   0.70598   0.00000  Uiso   1.00
Cl1192 Cl    0.65194   0.59788   0.94042   0.00000  Uiso   1.00
Cl1193 Cl    0.37433   0.39225   0.92322   0.00000  Uiso   1.00
H1194  H     0.60050   0.66333   0.83524   0.00000  Uiso   1.00
H1195  H     0.50990   0.54792   0.85523   0.00000  Uiso   1.00
H1196  H     0.58372   0.36726   0.66885   0.00000  Uiso   1.00
H1197  H     0.37978   0.60243   0.68276   0.00000  Uiso   1.00
H1198  H     0.39728   0.33624   0.82703   0.00000  Uiso   1.00
H1199  H     0.62421   0.34198   0.73980   0.00000  Uiso   1.00
H1200  H     0.50988   0.38426   0.77403   0.00000  Uiso   1.00
H1201  H     0.46535   0.60527   0.77441   0.00000  Uiso   1.00
N1202  N     0.47827   0.48556   0.82362   0.00000  Uiso   1.00
N1203  N     0.52173   0.51444   0.84305   0.00000  Uiso   1.00
O1204  O     0.63102   0.57963   0.83572   0.00000  Uiso   1.00
O1205  O     0.66568   0.35379   0.73844   0.00000  Uiso   1.00
O1206  O     0.49162   0.40069   0.83736   0.00000  Uiso   1.00
O1207  O     0.50154   0.42215   0.77746   0.00000  Uiso   1.00
O1208  O     0.47643   0.51926   0.74987   0.00000  Uiso   1.00
O1209  O     0.45260   0.60313   0.74548   0.00000  Uiso   1.00
O1210  O     0.39075   0.57038   0.82949   0.00000  Uiso   1.00
O1211  O     0.64823   0.50691   0.88920   0.00000  Uiso   1.00
O1212  O     0.40796   0.49766   0.88297   0.00000  Uiso   1.00
O1213  O     0.60925   0.42962   0.83718   0.00000  Uiso   1.00
O1214  O     0.36898   0.42037   0.83095   0.00000  Uiso   1.00
O1215  O     0.59204   0.50234   0.78369   0.00000  Uiso   1.00
O1216  O     0.35177   0.49309   0.77747   0.00000  Uiso   1.00
O1217  O     0.38533   0.42453   0.72434   0.00000  Uiso   1.00
Zn1218 Zn    0.60453   0.50618   0.83749   0.00000  Uiso   1.00
Zn1219 Zn    0.39547   0.49382   0.82918   0.00000  Uiso   1.00
C1220  C     0.68120   0.59816   0.83183   0.00000  Uiso   1.00
C1221  C     0.72015   0.51264   0.94537   0.00000  Uiso   1.00
C1222  C     0.68826   0.65258   0.83000   0.00000  Uiso   1.00
C1223  C     0.70244   0.50471   0.90387   0.00000  Uiso   1.00
C1224  C     0.97639   0.34707   0.83256   0.00000  Uiso   1.00
C1225  C     0.98465   0.40172   0.83308   0.00000  Uiso   1.00
C1226  C     0.96413   0.49601   0.76272   0.00000  Uiso   1.00
C1227  C     0.90940   0.40562   0.67948   0.00000  Uiso   1.00
C1228  C     0.94305   0.48120   0.72227   0.00000  Uiso   1.00
C1229  C     0.70397   0.55728   0.96363   0.00000  Uiso   1.00
C1230  C     0.72920   0.57049   0.66821   0.00000  Uiso   1.00
C1231  C     0.79595   0.50202   0.66700   0.00000  Uiso   1.00
C1232  C     0.77473   0.54325   0.68727   0.00000  Uiso   1.00
C1233  C     0.67049   0.40358   0.72425   0.00000  Uiso   1.00
C1234  C     0.82452   0.43442   0.81394   0.00000  Uiso   1.00
C1235  C     0.79192   0.55390   0.72927   0.00000  Uiso   1.00
C1236  C     0.76056   0.48095   0.96594   0.00000  Uiso   1.00
C1237  C     0.84969   0.47993   0.67938   0.00000  Uiso   1.00
C1238  C     0.85759   0.42888   0.99868   0.00000  Uiso   1.00
C1239  C     0.81385   0.40241   0.97066   0.00000  Uiso   1.00
C1240  C     0.76593   0.42872   0.95380   0.00000  Uiso   1.00
C1241  C     0.89726   0.50790   0.70347   0.00000  Uiso   1.00
C1242  C     0.95159   0.43089   0.70851   0.00000  Uiso   1.00
Cl1243 Cl    0.81890   0.33664   0.95556   0.00000  Uiso   1.00
Cl1244 Cl    0.90693   0.57693   0.70598   0.00000  Uiso   1.00
Cl1245 Cl    0.98527   0.59788   0.94042   0.00000  Uiso   1.00
Cl1246 Cl    0.70766   0.39225   0.92322   0.00000  Uiso   1.00
H1247  H     0.93384   0.66333   0.83524   0.00000  Uiso   1.00
H1248  H     0.84324   0.54792   0.85523   0.00000  Uiso   1.00
H1249  H     0.91706   0.36726   0.66885   0.00000  Uiso   1.00
H1250  H     0.71311   0.60243   0.68276   0.00000  Uiso   1.00
H1251  H     0.73062   0.33624   0.82703   0.00000  Uiso   1.00
H1252  H     0.95754   0.34198   0.73980   0.00000  Uiso   1.00
H1253  H     0.84321   0.38426   0.77403   0.00000  Uiso   1.00
H1254  H     0.79869   0.60527   0.77441   0.00000  Uiso   1.00
N1255  N     0.81160   0.48556   0.82362   0.00000  Uiso   1.00
N1256  N     0.85507   0.51444   0.84305   0.00000  Uiso   1.00
O1257  O     0.96435   0.57963   0.83572   0.00000  Uiso   1.00
O1258  O     0.99901   0.35379   0.73844   0.00000  Uiso   1.00
O1259  O     0.82495   0.40069   0.83736   0.00000  Uiso   1.00
O1260  O     0.83487   0.42215   0.77746   0.00000  Uiso   1.00
O1261  O     0.80976   0.51926   0.74987   0.00000  Uiso   1.00
O1262  O     0.78593   0.60313   0.74548   0.00000  Uiso   1.00
O1263  O     0.72408   0.57038   0.82949   0.00000  Uiso   1.00
O1264  O     0.98157   0.50691   0.88920   0.00000  Uiso   1.00
O1265  O     0.74130   0.49766   0.88297   0.00000  Uiso   1.00
O1266  O     0.94258   0.42962   0.83718   0.00000  Uiso   1.00
O1267  O     0.70231   0.42037   0.83095   0.00000  Uiso   1.00
O1268  O     0.92537   0.50234   0.78369   0.00000  Uiso   1.00
O1269  O     0.68510   0.49309   0.77747   0.00000  Uiso   1.00
O1270  O     0.71866   0.42453   0.72434   0.00000  Uiso   1.00
Zn1271 Zn    0.93786   0.50618   0.83749   0.00000  Uiso   1.00
Zn1272 Zn    0.72881   0.49382   0.82918   0.00000  Uiso   1.00
C1273  C     0.01453   0.93150   0.83183   0.00000  Uiso   1.00
C1274  C     0.05348   0.84597   0.94537   0.00000  Uiso   1.00
C1275  C     0.02160   0.98591   0.83000   0.00000  Uiso   1.00
C1276  C     0.03577   0.83805   0.90387   0.00000  Uiso   1.00
C1277  C     0.30973   0.68040   0.83256   0.00000  Uiso   1.00
C1278  C     0.31798   0.73506   0.83308   0.00000  Uiso   1.00
C1279  C     0.29747   0.82935   0.76272   0.00000  Uiso   1.00
C1280  C     0.24274   0.73895   0.67948   0.00000  Uiso   1.00
C1281  C     0.27639   0.81453   0.72227   0.00000  Uiso   1.00
C1282  C     0.03730   0.89061   0.96363   0.00000  Uiso   1.00
C1283  C     0.06253   0.90382   0.66821   0.00000  Uiso   1.00
C1284  C     0.12928   0.83535   0.66700   0.00000  Uiso   1.00
C1285  C     0.10807   0.87658   0.68727   0.00000  Uiso   1.00
C1286  C     0.00382   0.73691   0.72425   0.00000  Uiso   1.00
C1287  C     0.15786   0.76775   0.81394   0.00000  Uiso   1.00
C1288  C     0.12525   0.88723   0.72927   0.00000  Uiso   1.00
C1289  C     0.09389   0.81428   0.96594   0.00000  Uiso   1.00
C1290  C     0.18302   0.81327   0.67938   0.00000  Uiso   1.00
C1291  C     0.19093   0.76221   0.99868   0.00000  Uiso   1.00
C1292  C     0.14718   0.73574   0.97066   0.00000  Uiso   1.00
C1293  C     0.09927   0.76205   0.95380   0.00000  Uiso   1.00
C1294  C     0.23059   0.84124   0.70347   0.00000  Uiso   1.00
C1295  C     0.28493   0.76423   0.70851   0.00000  Uiso   1.00
Cl1296 Cl    0.15224   0.66997   0.95556   0.00000  Uiso   1.00
Cl1297 Cl    0.24027   0.91026   0.70598   0.00000  Uiso   1.00
Cl1298 Cl    0.31860   0.93122   0.94042   0.00000  Uiso   1.00
Cl1299 Cl    0.04099   0.72558   0.92322   0.00000  Uiso   1.00
H1300  H     0.26717   0.99666   0.83524   0.00000  Uiso   1.00
H1301  H     0.17657   0.88125   0.85523   0.00000  Uiso   1.00
H1302  H     0.25039   0.70060   0.66885   0.00000  Uiso   1.00
H1303  H     0.04644   0.93576   0.68276   0.00000  Uiso   1.00
H1304  H     0.06395   0.66958   0.82703   0.00000  Uiso   1.00
H1305  H     0.29088   0.67531   0.73980   0.00000  Uiso   1.00
H1306  H     0.17655   0.71760   0.77403   0.00000  Uiso   1.00
H1307  H     0.13202   0.93861   0.77441   0.00000  Uiso   1.00
N1308  N     0.14493   0.81890   0.82362   0.00000  Uiso   1.00
N1309  N     0.18840   0.84777   0.84305   0.00000  Uiso   1.00
O1310  O     0.29769   0.91296   0.83572   0.00000  Uiso   1.00
O1311  O     0.33234   0.68712   0.73844   0.00000  Uiso   1.00
O1312  O     0.15829   0.73402   0.83736   0.00000  Uiso   1.00
O1313  O     0.16821   0.75549   0.77746   0.00000  Uiso   1.00
O1314  O     0.14309   0.85260   0.74987   0.00000  Uiso   1.00
O1315  O     0.11926   0.93646   0.74548   0.00000  Uiso   1.00
O1316  O     0.05742   0.90371   0.82949   0.00000  Uiso   1.00
O1317  O     0.31490   0.84024   0.88920   0.00000  Uiso   1.00
O1318  O     0.07463   0.83099   0.88297   0.00000  Uiso   1.00
O1319  O     0.27592   0.76296   0.83718   0.00000  Uiso   1.00
O1320  O     0.03565   0.75371   0.83095   0.00000  Uiso   1.00
O1321  O     0.25870   0.83567   0.78369   0.00000  Uiso   1.00
O1322  O     0.01843   0.82642   0.77747   0.00000  Uiso   1.00
O1323  O     0.05199   0.75786   0.72434   0.00000  Uiso   1.00
Zn1324 Zn    0.27119   0.83951   0.83749   0.00000  Uiso   1.00
Zn1325 Zn    0.06214   0.82716   0.82918   0.00000  Uiso   1.00
C1326  C     0.34787   0.93150   0.83183   0.00000  Uiso   1.00
C1327  C     0.38681   0.84597   0.94537   0.00000  Uiso   1.00
C1328  C     0.35493   0.98591   0.83000   0.00000  Uiso   1.00
C1329  C     0.36910   0.83805   0.90387   0.00000  Uiso   1.00
C1330  C     0.64306   0.68040   0.83256   0.00000  Uiso   1.00
C1331  C     0.65131   0.73506   0.83308   0.00000  Uiso   1.00
C1332  C     0.63080   0.82935   0.76272   0.00000  Uiso   1.00
C1333  C     0.57607   0.73895   0.67948   0.00000  Uiso   1.00
C1334  C     0.60972   0.81453   0.72227   0.00000  Uiso   1.00
C1335  C     0.37063   0.89061   0.96363   0.00000  Uiso   1.00
C1336  C     0.39586   0.90382   0.66821   0.00000  Uiso   1.00
C1337  C     0.46262   0.83535   0.66700   0.00000  Uiso   1.00
C1338  C     0.44140   0.87658   0.68727   0.00000  Uiso   1.00
C1339  C     0.33716   0.73691   0.72425   0.00000  Uiso   1.00
C1340  C     0.49119   0.76775   0.81394   0.00000  Uiso   1.00
C1341  C     0.45858   0.88723   0.72927   0.00000  Uiso   1.00
C1342  C     0.42723   0.81428   0.96594   0.00000  Uiso   1.00
C1343  C     0.51635   0.81327   0.67938   0.00000  Uiso   1.00
C1344  C     0.52426   0.76221   0.99868   0.00000  Uiso   1.00
C1345  C     0.48052   0.73574   0.97066   0.00000  Uiso   1.00
C1346  C     0.43260   0.76205   0.95380   0.00000  Uiso   1.00
C1347  C     0.56393   0.84124   0.70347   0.00000  Uiso   1.00
C1348  C     0.61826   0.76423   0.70851   0.00000  Uiso   1.00
Cl1349 Cl    0.48557   0.66997   0.95556   0.00000  Uiso   1.00
Cl1350 Cl    0.57360   0.91026   0.70598   0.00000  Uiso   1.00
Cl1351 Cl    0.65194   0.93122   0.94042   0.00000  Uiso   1.00
Cl1352 Cl    0.37433   0.72558   0.92322   0.00000  Uiso   1.00
H1353  H     0.60050   0.99666   0.83524   0.00000  Uiso   1.00
H1354  H     0.50990   0.88125   0.85523   0.00000  Uiso   1.00
H1355  H     0.58372   0.70060   0.66885   0.00000  Uiso   1.00
H1356  H     0.37978   0.93576   0.68276   0.00000  Uiso   1.00
H1357  H     0.39728   0.66958   0.82703   0.00000  Uiso   1.00
H1358  H     0.62421   0.67531   0.73980   0.00000  Uiso   1.00
H1359  H     0.50988   0.71760   0.77403   0.00000  Uiso   1.00
H1360  H     0.46535   0.93861   0.77441   0.00000  Uiso   1.00
N1361  N     0.47827   0.81890   0.82362   0.00000  Uiso   1.00
N1362  N     0.52173   0.84777   0.84305   0.00000  Uiso   1.00
O1363  O     0.63102   0.91296   0.83572   0.00000  Uiso   1.00
O1364  O     0.66568   0.68712   0.73844   0.00000  Uiso   1.00
O1365  O     0.49162   0.73402   0.83736   0.00000  Uiso   1.00
O1366  O     0.50154   0.75549   0.77746   0.00000  Uiso   1.00
O1367  O     0.47643   0.85260   0.74987   0.00000  Uiso   1.00
O1368  O     0.45260   0.93646   0.74548   0.00000  Uiso   1.00
O1369  O     0.39075   0.90371   0.82949   0.00000  Uiso   1.00
O1370  O     0.64823   0.84024   0.88920   0.00000  Uiso   1.00
O1371  O     0.40796   0.83099   0.88297   0.00000  Uiso   1.00
O1372  O     0.60925   0.76296   0.83718   0.00000  Uiso   1.00
O1373  O     0.36898   0.75371   0.83095   0.00000  Uiso   1.00
O1374  O     0.59204   0.83567   0.78369   0.00000  Uiso   1.00
O1375  O     0.35177   0.82642   0.77747   0.00000  Uiso   1.00
O1376  O     0.38533   0.75786   0.72434   0.00000  Uiso   1.00
Zn1377 Zn    0.60453   0.83951   0.83749   0.00000  Uiso   1.00
Zn1378 Zn    0.39547   0.82716   0.82918   0.00000  Uiso   1.00
C1379  C     0.68120   0.93150   0.83183   0.00000  Uiso   1.00
C1380  C     0.72015   0.84597   0.94537   0.00000  Uiso   1.00
C1381  C     0.68826   0.98591   0.83000   0.00000  Uiso   1.00
C1382  C     0.70244   0.83805   0.90387   0.00000  Uiso   1.00
C1383  C     0.97639   0.68040   0.83256   0.00000  Uiso   1.00
C1384  C     0.98465   0.73506   0.83308   0.00000  Uiso   1.00
C1385  C     0.96413   0.82935   0.76272   0.00000  Uiso   1.00
C1386  C     0.90940   0.73895   0.67948   0.00000  Uiso   1.00
C1387  C     0.94305   0.81453   0.72227   0.00000  Uiso   1.00
C1388  C     0.70397   0.89061   0.96363   0.00000  Uiso   1.00
C1389  C     0.72920   0.90382   0.66821   0.00000  Uiso   1.00
C1390  C     0.79595   0.83535   0.66700   0.00000  Uiso   1.00
C1391  C     0.77473   0.87658   0.68727   0.00000  Uiso   1.00
C1392  C     0.67049   0.73691   0.72425   0.00000  Uiso   1.00
C1393  C     0.82452   0.76775   0.81394   0.00000  Uiso   1.00
C1394  C     0.79192   0.88723   0.72927   0.00000  Uiso   1.00
C1395  C     0.76056   0.81428   0.96594   0.00000  Uiso   1.00
C1396  C     0.84969   0.81327   0.67938   0.00000  Uiso   1.00
C1397  C     0.85759   0.76221   0.99868   0.00000  Uiso   1.00
C1398  C     0.81385   0.73574   0.97066   0.00000  Uiso   1.00
C1399  C     0.76593   0.76205   0.95380   0.00000  Uiso   1.00
C1400  C     0.89726   0.84124   0.70347   0.00000  Uiso   1.00
C1401  C     0.95159   0.76423   0.70851   0.00000  Uiso   1.00
Cl1402 Cl    0.81890   0.66997   0.95556   0.00000  Uiso   1.00
Cl1403 Cl    0.90693   0.91026   0.70598   0.00000  Uiso   1.00
Cl1404 Cl    0.98527   0.93122   0.94042   0.00000  Uiso   1.00
Cl1405 Cl    0.70766   0.72558   0.92322   0.00000  Uiso   1.00
H1406  H     0.93384   0.99666   0.83524   0.00000  Uiso   1.00
H1407  H     0.84324   0.88125   0.85523   0.00000  Uiso   1.00
H1408  H     0.91706   0.70060   0.66885   0.00000  Uiso   1.00
H1409  H     0.71311   0.93576   0.68276   0.00000  Uiso   1.00
H1410  H     0.73062   0.66958   0.82703   0.00000  Uiso   1.00
H1411  H     0.95754   0.67531   0.73980   0.00000  Uiso   1.00
H1412  H     0.84321   0.71760   0.77403   0.00000  Uiso   1.00
H1413  H     0.79869   0.93861   0.77441   0.00000  Uiso   1.00
N1414  N     0.81160   0.81890   0.82362   0.00000  Uiso   1.00
N1415  N     0.85507   0.84777   0.84305   0.00000  Uiso   1.00
O1416  O     0.96435   0.91296   0.83572   0.00000  Uiso   1.00
O1417  O     0.99901   0.68712   0.73844   0.00000  Uiso   1.00
O1418  O     0.82495   0.73402   0.83736   0.00000  Uiso   1.00
O1419  O     0.83487   0.75549   0.77746   0.00000  Uiso   1.00
O1420  O     0.80976   0.85260   0.74987   0.00000  Uiso   1.00
O1421  O     0.78593   0.93646   0.74548   0.00000  Uiso   1.00
O1422  O     0.72408   0.90371   0.82949   0.00000  Uiso   1.00
O1423  O     0.98157   0.84024   0.88920   0.00000  Uiso   1.00
O1424  O     0.74130   0.83099   0.88297   0.00000  Uiso   1.00
O1425  O     0.94258   0.76296   0.83718   0.00000  Uiso   1.00
O1426  O     0.70231   0.75371   0.83095   0.00000  Uiso   1.00
O1427  O     0.92537   0.83567   0.78369   0.00000  Uiso   1.00
O1428  O     0.68510   0.82642   0.77747   0.00000  Uiso   1.00
O1429  O     0.71866   0.75786   0.72434   0.00000  Uiso   1.00
Zn1430 Zn    0.93786   0.83951   0.83749   0.00000  Uiso   1.00
Zn1431 Zn    0.72881   0.82716   0.82918   0.00000  Uiso   1.00
loop_
_geom_bond_atom_site_label_1
_geom_bond_atom_site_label_2
_geom_bond_distance
_geom_bond_site_symmetry_2
_ccdc_geom_bond_type
C1     O44     1.289   .     A
C1     C3      1.401   .     S
C1     O144    1.277   1_455 S
C2     C4      1.459   .     S
C2     C17     1.407   .     A
C2     C10     1.410   .     A
C3     C270    1.337   1_455 S
C3     H191    1.086   .     S
C4     O46     1.304   .     A
C4     O151    1.287   1_455 S
C5     C6      1.403   .     S
C5     C374    1.337   1_545 S
C5     H346    1.088   1_545 S
C6     O47     1.289   .     A
C6     O101    1.278   .     S
C7     O49     1.301   .     A
C7     C9      1.458   .     S
C7     O103    1.292   .     S
C8     H30     1.082   .     S
C8     C23     1.394   .     A
C8     C973    1.407   1_554 S
C9     C22     1.390   .     A
C9     C23     1.407   .     A
C10    C488    1.386   .     S
C10    Cl132   1.764   1_455 S
C11    H31     1.084   .     S
C11    C13     1.397   .     A
C11    C964    1.386   1_554 S
C12    C18     1.420   .     A
C12    C13     1.433   .     A
C12    C971    1.408   1_554 S
C13    C16     1.482   .     S
C14    O51     1.220   .     D
C14    C129    1.482   1_455 S
C14    O145    1.396   1_455 S
C15    O41     1.397   .     S
C15    O40     1.222   .     D
C15    N36     1.415   .     S
C16    O43     1.399   .     S
C16    O42     1.218   .     D
C17    C21     1.417   .     A
C17    C489    1.408   .     S
C18    C22     1.407   .     A
C18    C973    1.424   1_554 S
C19    C20     1.406   .     A
C19    C495    1.424   .     S
C19    C485    1.407   .     S
C20    C21     1.400   .     A
C20    Cl24    1.774   .     S
C21    Cl27    1.766   .     S
C22    Cl25    1.769   .     S
C23    C67     1.482   .     S
Cl26   C63     1.764   .     S
H28    C164    1.088   .     S
H29    N37     1.029   .     S
H32    C321    1.086   1_545 S
H33    O39     1.012   .     S
H34    O41     1.014   .     S
H35    O43     1.014   .     S
N36    N37     1.289   .     D
N36    Zn53    2.021   .     S
N37    Zn52    2.021   .     S
O38    Zn52    1.953   .     S
O38    C54     1.277   .     S
O39    C67     1.396   .     S
O44    Zn53    1.977   .     S
O45    Zn52    1.926   .     S
O45    C57     1.287   .     S
O46    Zn53    1.879   .     S
O47    Zn52    1.977   .     S
O48    Zn53    1.953   .     S
O48    C112    1.278   1_455 S
O49    Zn52    1.879   .     S
O50    Zn53    1.926   .     S
O50    C113    1.292   1_455 S
C54    O97     1.289   .     A
C54    C56     1.401   .     S
C55    C57     1.459   .     S
C55    C70     1.407   .     A
C55    C63     1.410   .     A
C56    C164    1.337   .     S
C56    H244    1.086   .     S
C57    O99     1.304   .     A
C58    C59     1.403   .     S
C58    C427    1.337   1_545 S
C58    H399    1.088   1_545 S
C59    O100    1.289   .     A
C59    O154    1.278   .     S
C60    O102    1.301   .     A
C60    C62     1.458   .     S
C60    O156    1.292   .     S
C61    H83     1.082   .     S
C61    C76     1.394   .     A
C61    C1026   1.407   1_554 S
C62    C75     1.390   .     A
C62    C76     1.407   .     A
C63    C541    1.386   .     S
C64    H84     1.084   .     S
C64    C66     1.397   .     A
C64    C1017   1.386   1_554 S
C65    C71     1.420   .     A
C65    C66     1.433   .     A
C65    C1024   1.408   1_554 S
C66    C69     1.482   .     S
C67    O104    1.220   .     D
C68    O94     1.397   .     S
C68    O93     1.222   .     D
C68    N89     1.415   .     S
C69    O96     1.399   .     S
C69    O95     1.218   .     D
C70    C74     1.417   .     A
C70    C542    1.408   .     S
C71    C75     1.407   .     A
C71    C1026   1.424   1_554 S
C72    C73     1.406   .     A
C72    C548    1.424   .     S
C72    C538    1.407   .     S
C73    C74     1.400   .     A
C73    Cl77    1.774   .     S
C74    Cl80    1.766   .     S
C75    Cl78    1.769   .     S
C76    C120    1.482   .     S
Cl79   C116    1.764   .     S
H81    C217    1.088   .     S
H82    N90     1.029   .     S
H85    C374    1.086   1_545 S
H86    O92     1.012   .     S
H87    O94     1.014   .     S
H88    O96     1.014   .     S
N89    N90     1.289   .     D
N89    Zn106   2.021   .     S
N90    Zn105   2.021   .     S
O91    Zn105   1.953   .     S
O91    C107    1.277   .     S
O92    C120    1.396   .     S
O97    Zn106   1.977   .     S
O98    Zn105   1.926   .     S
O98    C110    1.287   .     S
O99    Zn106   1.879   .     S
O100   Zn105   1.977   .     S
O101   Zn106   1.953   .     S
O102   Zn105   1.879   .     S
O103   Zn106   1.926   .     S
C107   O150    1.289   .     A
C107   C109    1.401   .     S
C108   C110    1.459   .     S
C108   C123    1.407   .     A
C108   C116    1.410   .     A
C109   C217    1.337   .     S
C109   H297    1.086   .     S
C110   O152    1.304   .     A
C111   C112    1.403   .     S
C111   C321    1.337   1_645 S
C111   H452    1.088   1_545 S
C112   O153    1.289   .     A
C112   O48     1.278   1_655 S
C113   O155    1.301   .     A
C113   C115    1.458   .     S
C113   O50     1.292   1_655 S
C114   H136    1.082   .     S
C114   C129    1.394   .     A
C114   C1079   1.407   1_554 S
C115   C128    1.390   .     A
C115   C129    1.407   .     A
C116   C594    1.386   .     S
C117   H137    1.084   .     S
C117   C119    1.397   .     A
C117   C1070   1.386   1_554 S
C118   C124    1.420   .     A
C118   C119    1.433   .     A
C118   C1077   1.408   1_554 S
C119   C122    1.482   .     S
C120   O157    1.220   .     D
C121   O147    1.397   .     S
C121   O146    1.222   .     D
C121   N142    1.415   .     S
C122   O149    1.399   .     S
C122   O148    1.218   .     D
C123   C127    1.417   .     A
C123   C595    1.408   .     S
C124   C128    1.407   .     A
C124   C1079   1.424   1_554 S
C125   C126    1.406   .     A
C125   C601    1.424   .     S
C125   C591    1.407   .     S
C126   C127    1.400   .     A
C126   Cl130   1.774   .     S
C127   Cl133   1.766   .     S
C128   Cl131   1.769   .     S
C129   C14     1.482   1_655 S
Cl132  C10     1.764   1_655 S
H134   C270    1.088   .     S
H135   N143    1.029   .     S
H138   C427    1.086   1_545 S
H139   O145    1.012   .     S
H140   O147    1.014   .     S
H141   O149    1.014   .     S
N142   N143    1.289   .     D
N142   Zn159   2.021   .     S
N143   Zn158   2.021   .     S
O144   Zn158   1.953   .     S
O144   C1      1.277   1_655 S
O145   C14     1.396   1_655 S
O150   Zn159   1.977   .     S
O151   Zn158   1.926   .     S
O151   C4      1.287   1_655 S
O152   Zn159   1.879   .     S
O153   Zn158   1.977   .     S
O154   Zn159   1.953   .     S
O155   Zn158   1.879   .     S
O156   Zn159   1.926   .     S
C160   O203    1.289   .     A
C160   C162    1.401   .     S
C160   O303    1.277   1_455 S
C161   C163    1.459   .     S
C161   C176    1.407   .     A
C161   C169    1.410   .     A
C162   C429    1.337   1_455 S
C162   H350    1.086   .     S
C163   O205    1.304   .     A
C163   O310    1.287   1_455 S
C164   C165    1.403   .     S
C165   O206    1.289   .     A
C165   O260    1.278   .     S
C166   O208    1.301   .     A
C166   C168    1.458   .     S
C166   O262    1.292   .     S
C167   H189    1.082   .     S
C167   C182    1.394   .     A
C167   C1132   1.407   1_554 S
C168   C181    1.390   .     A
C168   C182    1.407   .     A
C169   C647    1.386   .     S
C169   Cl291   1.764   1_455 S
C170   H190    1.084   .     S
C170   C172    1.397   .     A
C170   C1123   1.386   1_554 S
C171   C177    1.420   .     A
C171   C172    1.433   .     A
C171   C1130   1.408   1_554 S
C172   C175    1.482   .     S
C173   O210    1.220   .     D
C173   C288    1.482   1_455 S
C173   O304    1.396   1_455 S
C174   O200    1.397   .     S
C174   O199    1.222   .     D
C174   N195    1.415   .     S
C175   O202    1.399   .     S
C175   O201    1.218   .     D
C176   C180    1.417   .     A
C176   C648    1.408   .     S
C177   C181    1.407   .     A
C177   C1132   1.424   1_554 S
C178   C179    1.406   .     A
C178   C654    1.424   .     S
C178   C644    1.407   .     S
C179   C180    1.400   .     A
C179   Cl183   1.774   .     S
C180   Cl186   1.766   .     S
C181   Cl184   1.769   .     S
C182   C226    1.482   .     S
Cl185  C222    1.764   .     S
H187   C323    1.088   .     S
H188   N196    1.029   .     S
H192   O198    1.012   .     S
H193   O200    1.014   .     S
H194   O202    1.014   .     S
N195   N196    1.289   .     D
N195   Zn212   2.021   .     S
N196   Zn211   2.021   .     S
O197   Zn211   1.953   .     S
O197   C213    1.277   .     S
O198   C226    1.396   .     S
O203   Zn212   1.977   .     S
O204   Zn211   1.926   .     S
O204   C216    1.287   .     S
O205   Zn212   1.879   .     S
O206   Zn211   1.977   .     S
O207   Zn212   1.953   .     S
O207   C271    1.278   1_455 S
O208   Zn211   1.879   .     S
O209   Zn212   1.926   .     S
O209   C272    1.292   1_455 S
C213   O256    1.289   .     A
C213   C215    1.401   .     S
C214   C216    1.459   .     S
C214   C229    1.407   .     A
C214   C222    1.410   .     A
C215   C323    1.337   .     S
C215   H403    1.086   .     S
C216   O258    1.304   .     A
C217   C218    1.403   .     S
C218   O259    1.289   .     A
C218   O313    1.278   .     S
C219   O261    1.301   .     A
C219   C221    1.458   .     S
C219   O315    1.292   .     S
C220   H242    1.082   .     S
C220   C235    1.394   .     A
C220   C1185   1.407   1_554 S
C221   C234    1.390   .     A
C221   C235    1.407   .     A
C222   C700    1.386   .     S
C223   H243    1.084   .     S
C223   C225    1.397   .     A
C223   C1176   1.386   1_554 S
C224   C230    1.420   .     A
C224   C225    1.433   .     A
C224   C1183   1.408   1_554 S
C225   C228    1.482   .     S
C226   O263    1.220   .     D
C227   O253    1.397   .     S
C227   O252    1.222   .     D
C227   N248    1.415   .     S
C228   O255    1.399   .     S
C228   O254    1.218   .     D
C229   C233    1.417   .     A
C229   C701    1.408   .     S
C230   C234    1.407   .     A
C230   C1185   1.424   1_554 S
C231   C232    1.406   .     A
C231   C707    1.424   .     S
C231   C697    1.407   .     S
C232   C233    1.400   .     A
C232   Cl236   1.774   .     S
C233   Cl239   1.766   .     S
C234   Cl237   1.769   .     S
C235   C279    1.482   .     S
Cl238  C275    1.764   .     S
H240   C376    1.088   .     S
H241   N249    1.029   .     S
H245   O251    1.012   .     S
H246   O253    1.014   .     S
H247   O255    1.014   .     S
N248   N249    1.289   .     D
N248   Zn265   2.021   .     S
N249   Zn264   2.021   .     S
O250   Zn264   1.953   .     S
O250   C266    1.277   .     S
O251   C279    1.396   .     S
O256   Zn265   1.977   .     S
O257   Zn264   1.926   .     S
O257   C269    1.287   .     S
O258   Zn265   1.879   .     S
O259   Zn264   1.977   .     S
O260   Zn265   1.953   .     S
O261   Zn264   1.879   .     S
O262   Zn265   1.926   .     S
C266   O309    1.289   .     A
C266   C268    1.401   .     S
C267   C269    1.459   .     S
C267   C282    1.407   .     A
C267   C275    1.410   .     A
C268   C376    1.337   .     S
C268   H456    1.086   .     S
C269   O311    1.304   .     A
C270   C271    1.403   .     S
C270   C3      1.337   1_655 S
C271   O312    1.289   .     A
C271   O207    1.278   1_655 S
C272   O314    1.301   .     A
C272   C274    1.458   .     S
C272   O209    1.292   1_655 S
C273   H295    1.082   .     S
C273   C288    1.394   .     A
C273   C1238   1.407   1_554 S
C274   C287    1.390   .     A
C274   C288    1.407   .     A
C275   C753    1.386   .     S
C276   H296    1.084   .     S
C276   C278    1.397   .     A
C276   C1229   1.386   1_554 S
C277   C283    1.420   .     A
C277   C278    1.433   .     A
C277   C1236   1.408   1_554 S
C278   C281    1.482   .     S
C279   O316    1.220   .     D
C280   O306    1.397   .     S
C280   O305    1.222   .     D
C280   N301    1.415   .     S
C281   O308    1.399   .     S
C281   O307    1.218   .     D
C282   C286    1.417   .     A
C282   C754    1.408   .     S
C283   C287    1.407   .     A
C283   C1238   1.424   1_554 S
C284   C285    1.406   .     A
C284   C760    1.424   .     S
C284   C750    1.407   .     S
C285   C286    1.400   .     A
C285   Cl289   1.774   .     S
C286   Cl292   1.766   .     S
C287   Cl290   1.769   .     S
C288   C173    1.482   1_655 S
Cl291  C169    1.764   1_655 S
H293   C429    1.088   .     S
H294   N302    1.029   .     S
H298   O304    1.012   .     S
H299   O306    1.014   .     S
H300   O308    1.014   .     S
N301   N302    1.289   .     D
N301   Zn318   2.021   .     S
N302   Zn317   2.021   .     S
O303   Zn317   1.953   .     S
O303   C160    1.277   1_655 S
O304   C173    1.396   1_655 S
O309   Zn318   1.977   .     S
O310   Zn317   1.926   .     S
O310   C163    1.287   1_655 S
O311   Zn318   1.879   .     S
O312   Zn317   1.977   .     S
O313   Zn318   1.953   .     S
O314   Zn317   1.879   .     S
O315   Zn318   1.926   .     S
C319   O362    1.289   .     A
C319   C321    1.401   .     S
C319   O462    1.277   1_455 S
C320   C322    1.459   .     S
C320   C335    1.407   .     A
C320   C328    1.410   .     A
C321   C111    1.337   1_465 S
C321   H32     1.086   1_565 S
C322   O364    1.304   .     A
C322   O469    1.287   1_455 S
C323   C324    1.403   .     S
C324   O365    1.289   .     A
C324   O419    1.278   .     S
C325   O367    1.301   .     A
C325   C327    1.458   .     S
C325   O421    1.292   .     S
C326   H348    1.082   .     S
C326   C341    1.394   .     A
C326   C1291   1.407   1_554 S
C327   C340    1.390   .     A
C327   C341    1.407   .     A
C328   C806    1.386   .     S
C328   Cl450   1.764   1_455 S
C329   H349    1.084   .     S
C329   C331    1.397   .     A
C329   C1282   1.386   1_554 S
C330   C336    1.420   .     A
C330   C331    1.433   .     A
C330   C1289   1.408   1_554 S
C331   C334    1.482   .     S
C332   O369    1.220   .     D
C332   C447    1.482   1_455 S
C332   O463    1.396   1_455 S
C333   O359    1.397   .     S
C333   O358    1.222   .     D
C333   N354    1.415   .     S
C334   O361    1.399   .     S
C334   O360    1.218   .     D
C335   C339    1.417   .     A
C335   C807    1.408   .     S
C336   C340    1.407   .     A
C336   C1291   1.424   1_554 S
C337   C338    1.406   .     A
C337   C813    1.424   .     S
C337   C803    1.407   .     S
C338   C339    1.400   .     A
C338   Cl342   1.774   .     S
C339   Cl345   1.766   .     S
C340   Cl343   1.769   .     S
C341   C385    1.482   .     S
Cl344  C381    1.764   .     S
H346   C5      1.088   1_565 S
H347   N355    1.029   .     S
H351   O357    1.012   .     S
H352   O359    1.014   .     S
H353   O361    1.014   .     S
N354   N355    1.289   .     D
N354   Zn371   2.021   .     S
N355   Zn370   2.021   .     S
O356   Zn370   1.953   .     S
O356   C372    1.277   .     S
O357   C385    1.396   .     S
O362   Zn371   1.977   .     S
O363   Zn370   1.926   .     S
O363   C375    1.287   .     S
O364   Zn371   1.879   .     S
O365   Zn370   1.977   .     S
O366   Zn371   1.953   .     S
O366   C430    1.278   1_455 S
O367   Zn370   1.879   .     S
O368   Zn371   1.926   .     S
O368   C431    1.292   1_455 S
C372   O415    1.289   .     A
C372   C374    1.401   .     S
C373   C375    1.459   .     S
C373   C388    1.407   .     A
C373   C381    1.410   .     A
C374   C5      1.337   1_565 S
C374   H85     1.086   1_565 S
C375   O417    1.304   .     A
C376   C377    1.403   .     S
C377   O418    1.289   .     A
C377   O472    1.278   .     S
C378   O420    1.301   .     A
C378   C380    1.458   .     S
C378   O474    1.292   .     S
C379   H401    1.082   .     S
C379   C394    1.394   .     A
C379   C1344   1.407   1_554 S
C380   C393    1.390   .     A
C380   C394    1.407   .     A
C381   C859    1.386   .     S
C382   H402    1.084   .     S
C382   C384    1.397   .     A
C382   C1335   1.386   1_554 S
C383   C389    1.420   .     A
C383   C384    1.433   .     A
C383   C1342   1.408   1_554 S
C384   C387    1.482   .     S
C385   O422    1.220   .     D
C386   O412    1.397   .     S
C386   O411    1.222   .     D
C386   N407    1.415   .     S
C387   O414    1.399   .     S
C387   O413    1.218   .     D
C388   C392    1.417   .     A
C388   C860    1.408   .     S
C389   C393    1.407   .     A
C389   C1344   1.424   1_554 S
C390   C391    1.406   .     A
C390   C866    1.424   .     S
C390   C856    1.407   .     S
C391   C392    1.400   .     A
C391   Cl395   1.774   .     S
C392   Cl398   1.766   .     S
C393   Cl396   1.769   .     S
C394   C438    1.482   .     S
Cl397  C434    1.764   .     S
H399   C58     1.088   1_565 S
H400   N408    1.029   .     S
H404   O410    1.012   .     S
H405   O412    1.014   .     S
H406   O414    1.014   .     S
N407   N408    1.289   .     D
N407   Zn424   2.021   .     S
N408   Zn423   2.021   .     S
O409   Zn423   1.953   .     S
O409   C425    1.277   .     S
O410   C438    1.396   .     S
O415   Zn424   1.977   .     S
O416   Zn423   1.926   .     S
O416   C428    1.287   .     S
O417   Zn424   1.879   .     S
O418   Zn423   1.977   .     S
O419   Zn424   1.953   .     S
O420   Zn423   1.879   .     S
O421   Zn424   1.926   .     S
C425   O468    1.289   .     A
C425   C427    1.401   .     S
C426   C428    1.459   .     S
C426   C441    1.407   .     A
C426   C434    1.410   .     A
C427   C58     1.337   1_565 S
C427   H138    1.086   1_565 S
C428   O470    1.304   .     A
C429   C430    1.403   .     S
C429   C162    1.337   1_655 S
C430   O471    1.289   .     A
C430   O366    1.278   1_655 S
C431   O473    1.301   .     A
C431   C433    1.458   .     S
C431   O368    1.292   1_655 S
C432   H454    1.082   .     S
C432   C447    1.394   .     A
C432   C1397   1.407   1_554 S
C433   C446    1.390   .     A
C433   C447    1.407   .     A
C434   C912    1.386   .     S
C435   H455    1.084   .     S
C435   C437    1.397   .     A
C435   C1388   1.386   1_554 S
C436   C442    1.420   .     A
C436   C437    1.433   .     A
C436   C1395   1.408   1_554 S
C437   C440    1.482   .     S
C438   O475    1.220   .     D
C439   O465    1.397   .     S
C439   O464    1.222   .     D
C439   N460    1.415   .     S
C440   O467    1.399   .     S
C440   O466    1.218   .     D
C441   C445    1.417   .     A
C441   C913    1.408   .     S
C442   C446    1.407   .     A
C442   C1397   1.424   1_554 S
C443   C444    1.406   .     A
C443   C919    1.424   .     S
C443   C909    1.407   .     S
C444   C445    1.400   .     A
C444   Cl448   1.774   .     S
C445   Cl451   1.766   .     S
C446   Cl449   1.769   .     S
C447   C332    1.482   1_655 S
Cl450  C328    1.764   1_655 S
H452   C111    1.088   1_565 S
H453   N461    1.029   .     S
H457   O463    1.012   .     S
H458   O465    1.014   .     S
H459   O467    1.014   .     S
N460   N461    1.289   .     D
N460   Zn477   2.021   .     S
N461   Zn476   2.021   .     S
O462   Zn476   1.953   .     S
O462   C319    1.277   1_655 S
O463   C332    1.396   1_655 S
O468   Zn477   1.977   .     S
O469   Zn476   1.926   .     S
O469   C322    1.287   1_655 S
O470   Zn477   1.879   .     S
O471   Zn476   1.977   .     S
O472   Zn477   1.953   .     S
O473   Zn476   1.879   .     S
O474   Zn477   1.926   .     S
C478   O521    1.289   .     A
C478   C480    1.401   .     S
C478   O621    1.277   1_455 S
C479   C481    1.459   .     S
C479   C494    1.407   .     A
C479   C487    1.410   .     A
C480   C747    1.337   1_455 S
C480   H668    1.086   .     S
C481   O523    1.304   .     A
C481   O628    1.287   1_455 S
C482   C483    1.403   .     S
C482   C851    1.337   1_545 S
C482   H823    1.088   1_545 S
C483   O524    1.289   .     A
C483   O578    1.278   .     S
C484   O526    1.301   .     A
C484   C486    1.458   .     S
C484   O580    1.292   .     S
C485   H507    1.082   .     S
C485   C500    1.394   .     A
C486   C499    1.390   .     A
C486   C500    1.407   .     A
C487   C965    1.386   .     S
C487   Cl609   1.764   1_455 S
C488   H508    1.084   .     S
C488   C490    1.397   .     A
C489   C495    1.420   .     A
C489   C490    1.433   .     A
C490   C493    1.482   .     S
C491   O528    1.220   .     D
C491   C606    1.482   1_455 S
C491   O622    1.396   1_455 S
C492   O518    1.397   .     S
C492   O517    1.222   .     D
C492   N513    1.415   .     S
C493   O520    1.399   .     S
C493   O519    1.218   .     D
C494   C498    1.417   .     A
C494   C966    1.408   .     S
C495   C499    1.407   .     A
C496   C497    1.406   .     A
C496   C972    1.424   .     S
C496   C962    1.407   .     S
C497   C498    1.400   .     A
C497   Cl501   1.774   .     S
C498   Cl504   1.766   .     S
C499   Cl502   1.769   .     S
C500   C544    1.482   .     S
Cl503  C540    1.764   .     S
H505   C641    1.088   .     S
H506   N514    1.029   .     S
H509   C798    1.086   1_545 S
H510   O516    1.012   .     S
H511   O518    1.014   .     S
H512   O520    1.014   .     S
N513   N514    1.289   .     D
N513   Zn530   2.021   .     S
N514   Zn529   2.021   .     S
O515   Zn529   1.953   .     S
O515   C531    1.277   .     S
O516   C544    1.396   .     S
O521   Zn530   1.977   .     S
O522   Zn529   1.926   .     S
O522   C534    1.287   .     S
O523   Zn530   1.879   .     S
O524   Zn529   1.977   .     S
O525   Zn530   1.953   .     S
O525   C589    1.278   1_455 S
O526   Zn529   1.879   .     S
O527   Zn530   1.926   .     S
O527   C590    1.292   1_455 S
C531   O574    1.289   .     A
C531   C533    1.401   .     S
C532   C534    1.459   .     S
C532   C547    1.407   .     A
C532   C540    1.410   .     A
C533   C641    1.337   .     S
C533   H721    1.086   .     S
C534   O576    1.304   .     A
C535   C536    1.403   .     S
C535   C904    1.337   1_545 S
C535   H876    1.088   1_545 S
C536   O577    1.289   .     A
C536   O631    1.278   .     S
C537   O579    1.301   .     A
C537   C539    1.458   .     S
C537   O633    1.292   .     S
C538   H560    1.082   .     S
C538   C553    1.394   .     A
C539   C552    1.390   .     A
C539   C553    1.407   .     A
C540   C1018   1.386   .     S
C541   H561    1.084   .     S
C541   C543    1.397   .     A
C542   C548    1.420   .     A
C542   C543    1.433   .     A
C543   C546    1.482   .     S
C544   O581    1.220   .     D
C545   O571    1.397   .     S
C545   O570    1.222   .     D
C545   N566    1.415   .     S
C546   O573    1.399   .     S
C546   O572    1.218   .     D
C547   C551    1.417   .     A
C547   C1019   1.408   .     S
C548   C552    1.407   .     A
C549   C550    1.406   .     A
C549   C1025   1.424   .     S
C549   C1015   1.407   .     S
C550   C551    1.400   .     A
C550   Cl554   1.774   .     S
C551   Cl557   1.766   .     S
C552   Cl555   1.769   .     S
C553   C597    1.482   .     S
Cl556  C593    1.764   .     S
H558   C694    1.088   .     S
H559   N567    1.029   .     S
H562   C851    1.086   1_545 S
H563   O569    1.012   .     S
H564   O571    1.014   .     S
H565   O573    1.014   .     S
N566   N567    1.289   .     D
N566   Zn583   2.021   .     S
N567   Zn582   2.021   .     S
O568   Zn582   1.953   .     S
O568   C584    1.277   .     S
O569   C597    1.396   .     S
O574   Zn583   1.977   .     S
O575   Zn582   1.926   .     S
O575   C587    1.287   .     S
O576   Zn583   1.879   .     S
O577   Zn582   1.977   .     S
O578   Zn583   1.953   .     S
O579   Zn582   1.879   .     S
O580   Zn583   1.926   .     S
C584   O627    1.289   .     A
C584   C586    1.401   .     S
C585   C587    1.459   .     S
C585   C600    1.407   .     A
C585   C593    1.410   .     A
C586   C694    1.337   .     S
C586   H774    1.086   .     S
C587   O629    1.304   .     A
C588   C589    1.403   .     S
C588   C798    1.337   1_645 S
C588   H929    1.088   1_545 S
C589   O630    1.289   .     A
C589   O525    1.278   1_655 S
C590   O632    1.301   .     A
C590   C592    1.458   .     S
C590   O527    1.292   1_655 S
C591   H613    1.082   .     S
C591   C606    1.394   .     A
C592   C605    1.390   .     A
C592   C606    1.407   .     A
C593   C1071   1.386   .     S
C594   H614    1.084   .     S
C594   C596    1.397   .     A
C595   C601    1.420   .     A
C595   C596    1.433   .     A
C596   C599    1.482   .     S
C597   O634    1.220   .     D
C598   O624    1.397   .     S
C598   O623    1.222   .     D
C598   N619    1.415   .     S
C599   O626    1.399   .     S
C599   O625    1.218   .     D
C600   C604    1.417   .     A
C600   C1072   1.408   .     S
C601   C605    1.407   .     A
C602   C603    1.406   .     A
C602   C1078   1.424   .     S
C602   C1068   1.407   .     S
C603   C604    1.400   .     A
C603   Cl607   1.774   .     S
C604   Cl610   1.766   .     S
C605   Cl608   1.769   .     S
C606   C491    1.482   1_655 S
Cl609  C487    1.764   1_655 S
H611   C747    1.088   .     S
H612   N620    1.029   .     S
H615   C904    1.086   1_545 S
H616   O622    1.012   .     S
H617   O624    1.014   .     S
H618   O626    1.014   .     S
N619   N620    1.289   .     D
N619   Zn636   2.021   .     S
N620   Zn635   2.021   .     S
O621   Zn635   1.953   .     S
O621   C478    1.277   1_655 S
O622   C491    1.396   1_655 S
O627   Zn636   1.977   .     S
O628   Zn635   1.926   .     S
O628   C481    1.287   1_655 S
O629   Zn636   1.879   .     S
O630   Zn635   1.977   .     S
O631   Zn636   1.953   .     S
O632   Zn635   1.879   .     S
O633   Zn636   1.926   .     S
C637   O680    1.289   .     A
C637   C639    1.401   .     S
C637   O780    1.277   1_455 S
C638   C640    1.459   .     S
C638   C653    1.407   .     A
C638   C646    1.410   .     A
C639   C906    1.337   1_455 S
C639   H827    1.086   .     S
C640   O682    1.304   .     A
C640   O787    1.287   1_455 S
C641   C642    1.403   .     S
C642   O683    1.289   .     A
C642   O737    1.278   .     S
C643   O685    1.301   .     A
C643   C645    1.458   .     S
C643   O739    1.292   .     S
C644   H666    1.082   .     S
C644   C659    1.394   .     A
C645   C658    1.390   .     A
C645   C659    1.407   .     A
C646   C1124   1.386   .     S
C646   Cl768   1.764   1_455 S
C647   H667    1.084   .     S
C647   C649    1.397   .     A
C648   C654    1.420   .     A
C648   C649    1.433   .     A
C649   C652    1.482   .     S
C650   O687    1.220   .     D
C650   C765    1.482   1_455 S
C650   O781    1.396   1_455 S
C651   O677    1.397   .     S
C651   O676    1.222   .     D
C651   N672    1.415   .     S
C652   O679    1.399   .     S
C652   O678    1.218   .     D
C653   C657    1.417   .     A
C653   C1125   1.408   .     S
C654   C658    1.407   .     A
C655   C656    1.406   .     A
C655   C1131   1.424   .     S
C655   C1121   1.407   .     S
C656   C657    1.400   .     A
C656   Cl660   1.774   .     S
C657   Cl663   1.766   .     S
C658   Cl661   1.769   .     S
C659   C703    1.482   .     S
Cl662  C699    1.764   .     S
H664   C800    1.088   .     S
H665   N673    1.029   .     S
H669   O675    1.012   .     S
H670   O677    1.014   .     S
H671   O679    1.014   .     S
N672   N673    1.289   .     D
N672   Zn689   2.021   .     S
N673   Zn688   2.021   .     S
O674   Zn688   1.953   .     S
O674   C690    1.277   .     S
O675   C703    1.396   .     S
O680   Zn689   1.977   .     S
O681   Zn688   1.926   .     S
O681   C693    1.287   .     S
O682   Zn689   1.879   .     S
O683   Zn688   1.977   .     S
O684   Zn689   1.953   .     S
O684   C748    1.278   1_455 S
O685   Zn688   1.879   .     S
O686   Zn689   1.926   .     S
O686   C749    1.292   1_455 S
C690   O733    1.289   .     A
C690   C692    1.401   .     S
C691   C693    1.459   .     S
C691   C706    1.407   .     A
C691   C699    1.410   .     A
C692   C800    1.337   .     S
C692   H880    1.086   .     S
C693   O735    1.304   .     A
C694   C695    1.403   .     S
C695   O736    1.289   .     A
C695   O790    1.278   .     S
C696   O738    1.301   .     A
C696   C698    1.458   .     S
C696   O792    1.292   .     S
C697   H719    1.082   .     S
C697   C712    1.394   .     A
C698   C711    1.390   .     A
C698   C712    1.407   .     A
C699   C1177   1.386   .     S
C700   H720    1.084   .     S
C700   C702    1.397   .     A
C701   C707    1.420   .     A
C701   C702    1.433   .     A
C702   C705    1.482   .     S
C703   O740    1.220   .     D
C704   O730    1.397   .     S
C704   O729    1.222   .     D
C704   N725    1.415   .     S
C705   O732    1.399   .     S
C705   O731    1.218   .     D
C706   C710    1.417   .     A
C706   C1178   1.408   .     S
C707   C711    1.407   .     A
C708   C709    1.406   .     A
C708   C1184   1.424   .     S
C708   C1174   1.407   .     S
C709   C710    1.400   .     A
C709   Cl713   1.774   .     S
C710   Cl716   1.766   .     S
C711   Cl714   1.769   .     S
C712   C756    1.482   .     S
Cl715  C752    1.764   .     S
H717   C853    1.088   .     S
H718   N726    1.029   .     S
H722   O728    1.012   .     S
H723   O730    1.014   .     S
H724   O732    1.014   .     S
N725   N726    1.289   .     D
N725   Zn742   2.021   .     S
N726   Zn741   2.021   .     S
O727   Zn741   1.953   .     S
O727   C743    1.277   .     S
O728   C756    1.396   .     S
O733   Zn742   1.977   .     S
O734   Zn741   1.926   .     S
O734   C746    1.287   .     S
O735   Zn742   1.879   .     S
O736   Zn741   1.977   .     S
O737   Zn742   1.953   .     S
O738   Zn741   1.879   .     S
O739   Zn742   1.926   .     S
C743   O786    1.289   .     A
C743   C745    1.401   .     S
C744   C746    1.459   .     S
C744   C759    1.407   .     A
C744   C752    1.410   .     A
C745   C853    1.337   .     S
C745   H933    1.086   .     S
C746   O788    1.304   .     A
C747   C748    1.403   .     S
C747   C480    1.337   1_655 S
C748   O789    1.289   .     A
C748   O684    1.278   1_655 S
C749   O791    1.301   .     A
C749   C751    1.458   .     S
C749   O686    1.292   1_655 S
C750   H772    1.082   .     S
C750   C765    1.394   .     A
C751   C764    1.390   .     A
C751   C765    1.407   .     A
C752   C1230   1.386   .     S
C753   H773    1.084   .     S
C753   C755    1.397   .     A
C754   C760    1.420   .     A
C754   C755    1.433   .     A
C755   C758    1.482   .     S
C756   O793    1.220   .     D
C757   O783    1.397   .     S
C757   O782    1.222   .     D
C757   N778    1.415   .     S
C758   O785    1.399   .     S
C758   O784    1.218   .     D
C759   C763    1.417   .     A
C759   C1231   1.408   .     S
C760   C764    1.407   .     A
C761   C762    1.406   .     A
C761   C1237   1.424   .     S
C761   C1227   1.407   .     S
C762   C763    1.400   .     A
C762   Cl766   1.774   .     S
C763   Cl769   1.766   .     S
C764   Cl767   1.769   .     S
C765   C650    1.482   1_655 S
Cl768  C646    1.764   1_655 S
H770   C906    1.088   .     S
H771   N779    1.029   .     S
H775   O781    1.012   .     S
H776   O783    1.014   .     S
H777   O785    1.014   .     S
N778   N779    1.289   .     D
N778   Zn795   2.021   .     S
N779   Zn794   2.021   .     S
O780   Zn794   1.953   .     S
O780   C637    1.277   1_655 S
O781   C650    1.396   1_655 S
O786   Zn795   1.977   .     S
O787   Zn794   1.926   .     S
O787   C640    1.287   1_655 S
O788   Zn795   1.879   .     S
O789   Zn794   1.977   .     S
O790   Zn795   1.953   .     S
O791   Zn794   1.879   .     S
O792   Zn795   1.926   .     S
C796   O839    1.289   .     A
C796   C798    1.401   .     S
C796   O939    1.277   1_455 S
C797   C799    1.459   .     S
C797   C812    1.407   .     A
C797   C805    1.410   .     A
C798   C588    1.337   1_465 S
C798   H509    1.086   1_565 S
C799   O841    1.304   .     A
C799   O946    1.287   1_455 S
C800   C801    1.403   .     S
C801   O842    1.289   .     A
C801   O896    1.278   .     S
C802   O844    1.301   .     A
C802   C804    1.458   .     S
C802   O898    1.292   .     S
C803   H825    1.082   .     S
C803   C818    1.394   .     A
C804   C817    1.390   .     A
C804   C818    1.407   .     A
C805   C1283   1.386   .     S
C805   Cl927   1.764   1_455 S
C806   H826    1.084   .     S
C806   C808    1.397   .     A
C807   C813    1.420   .     A
C807   C808    1.433   .     A
C808   C811    1.482   .     S
C809   O846    1.220   .     D
C809   C924    1.482   1_455 S
C809   O940    1.396   1_455 S
C810   O836    1.397   .     S
C810   O835    1.222   .     D
C810   N831    1.415   .     S
C811   O838    1.399   .     S
C811   O837    1.218   .     D
C812   C816    1.417   .     A
C812   C1284   1.408   .     S
C813   C817    1.407   .     A
C814   C815    1.406   .     A
C814   C1290   1.424   .     S
C814   C1280   1.407   .     S
C815   C816    1.400   .     A
C815   Cl819   1.774   .     S
C816   Cl822   1.766   .     S
C817   Cl820   1.769   .     S
C818   C862    1.482   .     S
Cl821  C858    1.764   .     S
H823   C482    1.088   1_565 S
H824   N832    1.029   .     S
H828   O834    1.012   .     S
H829   O836    1.014   .     S
H830   O838    1.014   .     S
N831   N832    1.289   .     D
N831   Zn848   2.021   .     S
N832   Zn847   2.021   .     S
O833   Zn847   1.953   .     S
O833   C849    1.277   .     S
O834   C862    1.396   .     S
O839   Zn848   1.977   .     S
O840   Zn847   1.926   .     S
O840   C852    1.287   .     S
O841   Zn848   1.879   .     S
O842   Zn847   1.977   .     S
O843   Zn848   1.953   .     S
O843   C907    1.278   1_455 S
O844   Zn847   1.879   .     S
O845   Zn848   1.926   .     S
O845   C908    1.292   1_455 S
C849   O892    1.289   .     A
C849   C851    1.401   .     S
C850   C852    1.459   .     S
C850   C865    1.407   .     A
C850   C858    1.410   .     A
C851   C482    1.337   1_565 S
C851   H562    1.086   1_565 S
C852   O894    1.304   .     A
C853   C854    1.403   .     S
C854   O895    1.289   .     A
C854   O949    1.278   .     S
C855   O897    1.301   .     A
C855   C857    1.458   .     S
C855   O951    1.292   .     S
C856   H878    1.082   .     S
C856   C871    1.394   .     A
C857   C870    1.390   .     A
C857   C871    1.407   .     A
C858   C1336   1.386   .     S
C859   H879    1.084   .     S
C859   C861    1.397   .     A
C860   C866    1.420   .     A
C860   C861    1.433   .     A
C861   C864    1.482   .     S
C862   O899    1.220   .     D
C863   O889    1.397   .     S
C863   O888    1.222   .     D
C863   N884    1.415   .     S
C864   O891    1.399   .     S
C864   O890    1.218   .     D
C865   C869    1.417   .     A
C865   C1337   1.408   .     S
C866   C870    1.407   .     A
C867   C868    1.406   .     A
C867   C1343   1.424   .     S
C867   C1333   1.407   .     S
C868   C869    1.400   .     A
C868   Cl872   1.774   .     S
C869   Cl875   1.766   .     S
C870   Cl873   1.769   .     S
C871   C915    1.482   .     S
Cl874  C911    1.764   .     S
H876   C535    1.088   1_565 S
H877   N885    1.029   .     S
H881   O887    1.012   .     S
H882   O889    1.014   .     S
H883   O891    1.014   .     S
N884   N885    1.289   .     D
N884   Zn901   2.021   .     S
N885   Zn900   2.021   .     S
O886   Zn900   1.953   .     S
O886   C902    1.277   .     S
O887   C915    1.396   .     S
O892   Zn901   1.977   .     S
O893   Zn900   1.926   .     S
O893   C905    1.287   .     S
O894   Zn901   1.879   .     S
O895   Zn900   1.977   .     S
O896   Zn901   1.953   .     S
O897   Zn900   1.879   .     S
O898   Zn901   1.926   .     S
C902   O945    1.289   .     A
C902   C904    1.401   .     S
C903   C905    1.459   .     S
C903   C918    1.407   .     A
C903   C911    1.410   .     A
C904   C535    1.337   1_565 S
C904   H615    1.086   1_565 S
C905   O947    1.304   .     A
C906   C907    1.403   .     S
C906   C639    1.337   1_655 S
C907   O948    1.289   .     A
C907   O843    1.278   1_655 S
C908   O950    1.301   .     A
C908   C910    1.458   .     S
C908   O845    1.292   1_655 S
C909   H931    1.082   .     S
C909   C924    1.394   .     A
C910   C923    1.390   .     A
C910   C924    1.407   .     A
C911   C1389   1.386   .     S
C912   H932    1.084   .     S
C912   C914    1.397   .     A
C913   C919    1.420   .     A
C913   C914    1.433   .     A
C914   C917    1.482   .     S
C915   O952    1.220   .     D
C916   O942    1.397   .     S
C916   O941    1.222   .     D
C916   N937    1.415   .     S
C917   O944    1.399   .     S
C917   O943    1.218   .     D
C918   C922    1.417   .     A
C918   C1390   1.408   .     S
C919   C923    1.407   .     A
C920   C921    1.406   .     A
C920   C1396   1.424   .     S
C920   C1386   1.407   .     S
C921   C922    1.400   .     A
C921   Cl925   1.774   .     S
C922   Cl928   1.766   .     S
C923   Cl926   1.769   .     S
C924   C809    1.482   1_655 S
Cl927  C805    1.764   1_655 S
H929   C588    1.088   1_565 S
H930   N938    1.029   .     S
H934   O940    1.012   .     S
H935   O942    1.014   .     S
H936   O944    1.014   .     S
N937   N938    1.289   .     D
N937   Zn954   2.021   .     S
N938   Zn953   2.021   .     S
O939   Zn953   1.953   .     S
O939   C796    1.277   1_655 S
O940   C809    1.396   1_655 S
O945   Zn954   1.977   .     S
O946   Zn953   1.926   .     S
O946   C799    1.287   1_655 S
O947   Zn954   1.879   .     S
O948   Zn953   1.977   .     S
O949   Zn954   1.953   .     S
O950   Zn953   1.879   .     S
O951   Zn954   1.926   .     S
C955   O998    1.289   .     A
C955   C957    1.401   .     S
C955   O1098   1.277   1_455 S
C956   C958    1.459   .     S
C956   C971    1.407   .     A
C956   C964    1.410   .     A
C957   C1224   1.337   1_455 S
C957   H1145   1.086   .     S
C958   O1000   1.304   .     A
C958   O1105   1.287   1_455 S
C959   C960    1.403   .     S
C959   C1328   1.337   1_545 S
C959   H1300   1.088   1_545 S
C960   O1001   1.289   .     A
C960   O1055   1.278   .     S
C961   O1003   1.301   .     A
C961   C963    1.458   .     S
C961   O1057   1.292   .     S
C962   H984    1.082   .     S
C962   C977    1.394   .     A
C963   C976    1.390   .     A
C963   C977    1.407   .     A
C964   C11     1.386   1_556 S
C964   Cl1086  1.764   1_455 S
C965   H985    1.084   .     S
C965   C967    1.397   .     A
C966   C972    1.420   .     A
C966   C967    1.433   .     A
C967   C970    1.482   .     S
C968   O1005   1.220   .     D
C968   C1083   1.482   1_455 S
C968   O1099   1.396   1_455 S
C969   O995    1.397   .     S
C969   O994    1.222   .     D
C969   N990    1.415   .     S
C970   O997    1.399   .     S
C970   O996    1.218   .     D
C971   C975    1.417   .     A
C971   C12     1.408   1_556 S
C972   C976    1.407   .     A
C973   C974    1.406   .     A
C973   C18     1.424   1_556 S
C973   C8      1.407   1_556 S
C974   C975    1.400   .     A
C974   Cl978   1.774   .     S
C975   Cl981   1.766   .     S
C976   Cl979   1.769   .     S
C977   C1021   1.482   .     S
Cl980  C1017   1.764   .     S
H982   C1118   1.088   .     S
H983   N991    1.029   .     S
H986   C1275   1.086   1_545 S
H987   O993    1.012   .     S
H988   O995    1.014   .     S
H989   O997    1.014   .     S
N990   N991    1.289   .     D
N990   Zn1007  2.021   .     S
N991   Zn1006  2.021   .     S
O992   Zn1006  1.953   .     S
O992   C1008   1.277   .     S
O993   C1021   1.396   .     S
O998   Zn1007  1.977   .     S
O999   Zn1006  1.926   .     S
O999   C1011   1.287   .     S
O1000  Zn1007  1.879   .     S
O1001  Zn1006  1.977   .     S
O1002  Zn1007  1.953   .     S
O1002  C1066   1.278   1_455 S
O1003  Zn1006  1.879   .     S
O1004  Zn1007  1.926   .     S
O1004  C1067   1.292   1_455 S
C1008  O1051   1.289   .     A
C1008  C1010   1.401   .     S
C1009  C1011   1.459   .     S
C1009  C1024   1.407   .     A
C1009  C1017   1.410   .     A
C1010  C1118   1.337   .     S
C1010  H1198   1.086   .     S
C1011  O1053   1.304   .     A
C1012  C1013   1.403   .     S
C1012  C1381   1.337   1_545 S
C1012  H1353   1.088   1_545 S
C1013  O1054   1.289   .     A
C1013  O1108   1.278   .     S
C1014  O1056   1.301   .     A
C1014  C1016   1.458   .     S
C1014  O1110   1.292   .     S
C1015  H1037   1.082   .     S
C1015  C1030   1.394   .     A
C1016  C1029   1.390   .     A
C1016  C1030   1.407   .     A
C1017  C64     1.386   1_556 S
C1018  H1038   1.084   .     S
C1018  C1020   1.397   .     A
C1019  C1025   1.420   .     A
C1019  C1020   1.433   .     A
C1020  C1023   1.482   .     S
C1021  O1058   1.220   .     D
C1022  O1048   1.397   .     S
C1022  O1047   1.222   .     D
C1022  N1043   1.415   .     S
C1023  O1050   1.399   .     S
C1023  O1049   1.218   .     D
C1024  C1028   1.417   .     A
C1024  C65     1.408   1_556 S
C1025  C1029   1.407   .     A
C1026  C1027   1.406   .     A
C1026  C71     1.424   1_556 S
C1026  C61     1.407   1_556 S
C1027  C1028   1.400   .     A
C1027  Cl1031  1.774   .     S
C1028  Cl1034  1.766   .     S
C1029  Cl1032  1.769   .     S
C1030  C1074   1.482   .     S
Cl1033 C1070   1.764   .     S
H1035  C1171   1.088   .     S
H1036  N1044   1.029   .     S
H1039  C1328   1.086   1_545 S
H1040  O1046   1.012   .     S
H1041  O1048   1.014   .     S
H1042  O1050   1.014   .     S
N1043  N1044   1.289   .     D
N1043  Zn1060  2.021   .     S
N1044  Zn1059  2.021   .     S
O1045  Zn1059  1.953   .     S
O1045  C1061   1.277   .     S
O1046  C1074   1.396   .     S
O1051  Zn1060  1.977   .     S
O1052  Zn1059  1.926   .     S
O1052  C1064   1.287   .     S
O1053  Zn1060  1.879   .     S
O1054  Zn1059  1.977   .     S
O1055  Zn1060  1.953   .     S
O1056  Zn1059  1.879   .     S
O1057  Zn1060  1.926   .     S
C1061  O1104   1.289   .     A
C1061  C1063   1.401   .     S
C1062  C1064   1.459   .     S
C1062  C1077   1.407   .     A
C1062  C1070   1.410   .     A
C1063  C1171   1.337   .     S
C1063  H1251   1.086   .     S
C1064  O1106   1.304   .     A
C1065  C1066   1.403   .     S
C1065  C1275   1.337   1_645 S
C1065  H1406   1.088   1_545 S
C1066  O1107   1.289   .     A
C1066  O1002   1.278   1_655 S
C1067  O1109   1.301   .     A
C1067  C1069   1.458   .     S
C1067  O1004   1.292   1_655 S
C1068  H1090   1.082   .     S
C1068  C1083   1.394   .     A
C1069  C1082   1.390   .     A
C1069  C1083   1.407   .     A
C1070  C117    1.386   1_556 S
C1071  H1091   1.084   .     S
C1071  C1073   1.397   .     A
C1072  C1078   1.420   .     A
C1072  C1073   1.433   .     A
C1073  C1076   1.482   .     S
C1074  O1111   1.220   .     D
C1075  O1101   1.397   .     S
C1075  O1100   1.222   .     D
C1075  N1096   1.415   .     S
C1076  O1103   1.399   .     S
C1076  O1102   1.218   .     D
C1077  C1081   1.417   .     A
C1077  C118    1.408   1_556 S
C1078  C1082   1.407   .     A
C1079  C1080   1.406   .     A
C1079  C124    1.424   1_556 S
C1079  C114    1.407   1_556 S
C1080  C1081   1.400   .     A
C1080  Cl1084  1.774   .     S
C1081  Cl1087  1.766   .     S
C1082  Cl1085  1.769   .     S
C1083  C968    1.482   1_655 S
Cl1086 C964    1.764   1_655 S
H1088  C1224   1.088   .     S
H1089  N1097   1.029   .     S
H1092  C1381   1.086   1_545 S
H1093  O1099   1.012   .     S
H1094  O1101   1.014   .     S
H1095  O1103   1.014   .     S
N1096  N1097   1.289   .     D
N1096  Zn1113  2.021   .     S
N1097  Zn1112  2.021   .     S
O1098  Zn1112  1.953   .     S
O1098  C955    1.277   1_655 S
O1099  C968    1.396   1_655 S
O1104  Zn1113  1.977   .     S
O1105  Zn1112  1.926   .     S
O1105  C958    1.287   1_655 S
O1106  Zn1113  1.879   .     S
O1107  Zn1112  1.977   .     S
O1108  Zn1113  1.953   .     S
O1109  Zn1112  1.879   .     S
O1110  Zn1113  1.926   .     S
C1114  O1157   1.289   .     A
C1114  C1116   1.401   .     S
C1114  O1257   1.277   1_455 S
C1115  C1117   1.459   .     S
C1115  C1130   1.407   .     A
C1115  C1123   1.410   .     A
C1116  C1383   1.337   1_455 S
C1116  H1304   1.086   .     S
C1117  O1159   1.304   .     A
C1117  O1264   1.287   1_455 S
C1118  C1119   1.403   .     S
C1119  O1160   1.289   .     A
C1119  O1214   1.278   .     S
C1120  O1162   1.301   .     A
C1120  C1122   1.458   .     S
C1120  O1216   1.292   .     S
C1121  H1143   1.082   .     S
C1121  C1136   1.394   .     A
C1122  C1135   1.390   .     A
C1122  C1136   1.407   .     A
C1123  C170    1.386   1_556 S
C1123  Cl1245  1.764   1_455 S
C1124  H1144   1.084   .     S
C1124  C1126   1.397   .     A
C1125  C1131   1.420   .     A
C1125  C1126   1.433   .     A
C1126  C1129   1.482   .     S
C1127  O1164   1.220   .     D
C1127  C1242   1.482   1_455 S
C1127  O1258   1.396   1_455 S
C1128  O1154   1.397   .     S
C1128  O1153   1.222   .     D
C1128  N1149   1.415   .     S
C1129  O1156   1.399   .     S
C1129  O1155   1.218   .     D
C1130  C1134   1.417   .     A
C1130  C171    1.408   1_556 S
C1131  C1135   1.407   .     A
C1132  C1133   1.406   .     A
C1132  C177    1.424   1_556 S
C1132  C167    1.407   1_556 S
C1133  C1134   1.400   .     A
C1133  Cl1137  1.774   .     S
C1134  Cl1140  1.766   .     S
C1135  Cl1138  1.769   .     S
C1136  C1180   1.482   .     S
Cl1139 C1176   1.764   .     S
H1141  C1277   1.088   .     S
H1142  N1150   1.029   .     S
H1146  O1152   1.012   .     S
H1147  O1154   1.014   .     S
H1148  O1156   1.014   .     S
N1149  N1150   1.289   .     D
N1149  Zn1166  2.021   .     S
N1150  Zn1165  2.021   .     S
O1151  Zn1165  1.953   .     S
O1151  C1167   1.277   .     S
O1152  C1180   1.396   .     S
O1157  Zn1166  1.977   .     S
O1158  Zn1165  1.926   .     S
O1158  C1170   1.287   .     S
O1159  Zn1166  1.879   .     S
O1160  Zn1165  1.977   .     S
O1161  Zn1166  1.953   .     S
O1161  C1225   1.278   1_455 S
O1162  Zn1165  1.879   .     S
O1163  Zn1166  1.926   .     S
O1163  C1226   1.292   1_455 S
C1167  O1210   1.289   .     A
C1167  C1169   1.401   .     S
C1168  C1170   1.459   .     S
C1168  C1183   1.407   .     A
C1168  C1176   1.410   .     A
C1169  C1277   1.337   .     S
C1169  H1357   1.086   .     S
C1170  O1212   1.304   .     A
C1171  C1172   1.403   .     S
C1172  O1213   1.289   .     A
C1172  O1267   1.278   .     S
C1173  O1215   1.301   .     A
C1173  C1175   1.458   .     S
C1173  O1269   1.292   .     S
C1174  H1196   1.082   .     S
C1174  C1189   1.394   .     A
C1175  C1188   1.390   .     A
C1175  C1189   1.407   .     A
C1176  C223    1.386   1_556 S
C1177  H1197   1.084   .     S
C1177  C1179   1.397   .     A
C1178  C1184   1.420   .     A
C1178  C1179   1.433   .     A
C1179  C1182   1.482   .     S
C1180  O1217   1.220   .     D
C1181  O1207   1.397   .     S
C1181  O1206   1.222   .     D
C1181  N1202   1.415   .     S
C1182  O1209   1.399   .     S
C1182  O1208   1.218   .     D
C1183  C1187   1.417   .     A
C1183  C224    1.408   1_556 S
C1184  C1188   1.407   .     A
C1185  C1186   1.406   .     A
C1185  C230    1.424   1_556 S
C1185  C220    1.407   1_556 S
C1186  C1187   1.400   .     A
C1186  Cl1190  1.774   .     S
C1187  Cl1193  1.766   .     S
C1188  Cl1191  1.769   .     S
C1189  C1233   1.482   .     S
Cl1192 C1229   1.764   .     S
H1194  C1330   1.088   .     S
H1195  N1203   1.029   .     S
H1199  O1205   1.012   .     S
H1200  O1207   1.014   .     S
H1201  O1209   1.014   .     S
N1202  N1203   1.289   .     D
N1202  Zn1219  2.021   .     S
N1203  Zn1218  2.021   .     S
O1204  Zn1218  1.953   .     S
O1204  C1220   1.277   .     S
O1205  C1233   1.396   .     S
O1210  Zn1219  1.977   .     S
O1211  Zn1218  1.926   .     S
O1211  C1223   1.287   .     S
O1212  Zn1219  1.879   .     S
O1213  Zn1218  1.977   .     S
O1214  Zn1219  1.953   .     S
O1215  Zn1218  1.879   .     S
O1216  Zn1219  1.926   .     S
C1220  O1263   1.289   .     A
C1220  C1222   1.401   .     S
C1221  C1223   1.459   .     S
C1221  C1236   1.407   .     A
C1221  C1229   1.410   .     A
C1222  C1330   1.337   .     S
C1222  H1410   1.086   .     S
C1223  O1265   1.304   .     A
C1224  C1225   1.403   .     S
C1224  C957    1.337   1_655 S
C1225  O1266   1.289   .     A
C1225  O1161   1.278   1_655 S
C1226  O1268   1.301   .     A
C1226  C1228   1.458   .     S
C1226  O1163   1.292   1_655 S
C1227  H1249   1.082   .     S
C1227  C1242   1.394   .     A
C1228  C1241   1.390   .     A
C1228  C1242   1.407   .     A
C1229  C276    1.386   1_556 S
C1230  H1250   1.084   .     S
C1230  C1232   1.397   .     A
C1231  C1237   1.420   .     A
C1231  C1232   1.433   .     A
C1232  C1235   1.482   .     S
C1233  O1270   1.220   .     D
C1234  O1260   1.397   .     S
C1234  O1259   1.222   .     D
C1234  N1255   1.415   .     S
C1235  O1262   1.399   .     S
C1235  O1261   1.218   .     D
C1236  C1240   1.417   .     A
C1236  C277    1.408   1_556 S
C1237  C1241   1.407   .     A
C1238  C1239   1.406   .     A
C1238  C283    1.424   1_556 S
C1238  C273    1.407   1_556 S
C1239  C1240   1.400   .     A
C1239  Cl1243  1.774   .     S
C1240  Cl1246  1.766   .     S
C1241  Cl1244  1.769   .     S
C1242  C1127   1.482   1_655 S
Cl1245 C1123   1.764   1_655 S
H1247  C1383   1.088   .     S
H1248  N1256   1.029   .     S
H1252  O1258   1.012   .     S
H1253  O1260   1.014   .     S
H1254  O1262   1.014   .     S
N1255  N1256   1.289   .     D
N1255  Zn1272  2.021   .     S
N1256  Zn1271  2.021   .     S
O1257  Zn1271  1.953   .     S
O1257  C1114   1.277   1_655 S
O1258  C1127   1.396   1_655 S
O1263  Zn1272  1.977   .     S
O1264  Zn1271  1.926   .     S
O1264  C1117   1.287   1_655 S
O1265  Zn1272  1.879   .     S
O1266  Zn1271  1.977   .     S
O1267  Zn1272  1.953   .     S
O1268  Zn1271  1.879   .     S
O1269  Zn1272  1.926   .     S
C1273  O1316   1.289   .     A
C1273  C1275   1.401   .     S
C1273  O1416   1.277   1_455 S
C1274  C1276   1.459   .     S
C1274  C1289   1.407   .     A
C1274  C1282   1.410   .     A
C1275  C1065   1.337   1_465 S
C1275  H986    1.086   1_565 S
C1276  O1318   1.304   .     A
C1276  O1423   1.287   1_455 S
C1277  C1278   1.403   .     S
C1278  O1319   1.289   .     A
C1278  O1373   1.278   .     S
C1279  O1321   1.301   .     A
C1279  C1281   1.458   .     S
C1279  O1375   1.292   .     S
C1280  H1302   1.082   .     S
C1280  C1295   1.394   .     A
C1281  C1294   1.390   .     A
C1281  C1295   1.407   .     A
C1282  C329    1.386   1_556 S
C1282  Cl1404  1.764   1_455 S
C1283  H1303   1.084   .     S
C1283  C1285   1.397   .     A
C1284  C1290   1.420   .     A
C1284  C1285   1.433   .     A
C1285  C1288   1.482   .     S
C1286  O1323   1.220   .     D
C1286  C1401   1.482   1_455 S
C1286  O1417   1.396   1_455 S
C1287  O1313   1.397   .     S
C1287  O1312   1.222   .     D
C1287  N1308   1.415   .     S
C1288  O1315   1.399   .     S
C1288  O1314   1.218   .     D
C1289  C1293   1.417   .     A
C1289  C330    1.408   1_556 S
C1290  C1294   1.407   .     A
C1291  C1292   1.406   .     A
C1291  C336    1.424   1_556 S
C1291  C326    1.407   1_556 S
C1292  C1293   1.400   .     A
C1292  Cl1296  1.774   .     S
C1293  Cl1299  1.766   .     S
C1294  Cl1297  1.769   .     S
C1295  C1339   1.482   .     S
Cl1298 C1335   1.764   .     S
H1300  C959    1.088   1_565 S
H1301  N1309   1.029   .     S
H1305  O1311   1.012   .     S
H1306  O1313   1.014   .     S
H1307  O1315   1.014   .     S
N1308  N1309   1.289   .     D
N1308  Zn1325  2.021   .     S
N1309  Zn1324  2.021   .     S
O1310  Zn1324  1.953   .     S
O1310  C1326   1.277   .     S
O1311  C1339   1.396   .     S
O1316  Zn1325  1.977   .     S
O1317  Zn1324  1.926   .     S
O1317  C1329   1.287   .     S
O1318  Zn1325  1.879   .     S
O1319  Zn1324  1.977   .     S
O1320  Zn1325  1.953   .     S
O1320  C1384   1.278   1_455 S
O1321  Zn1324  1.879   .     S
O1322  Zn1325  1.926   .     S
O1322  C1385   1.292   1_455 S
C1326  O1369   1.289   .     A
C1326  C1328   1.401   .     S
C1327  C1329   1.459   .     S
C1327  C1342   1.407   .     A
C1327  C1335   1.410   .     A
C1328  C959    1.337   1_565 S
C1328  H1039   1.086   1_565 S
C1329  O1371   1.304   .     A
C1330  C1331   1.403   .     S
C1331  O1372   1.289   .     A
C1331  O1426   1.278   .     S
C1332  O1374   1.301   .     A
C1332  C1334   1.458   .     S
C1332  O1428   1.292   .     S
C1333  H1355   1.082   .     S
C1333  C1348   1.394   .     A
C1334  C1347   1.390   .     A
C1334  C1348   1.407   .     A
C1335  C382    1.386   1_556 S
C1336  H1356   1.084   .     S
C1336  C1338   1.397   .     A
C1337  C1343   1.420   .     A
C1337  C1338   1.433   .     A
C1338  C1341   1.482   .     S
C1339  O1376   1.220   .     D
C1340  O1366   1.397   .     S
C1340  O1365   1.222   .     D
C1340  N1361   1.415   .     S
C1341  O1368   1.399   .     S
C1341  O1367   1.218   .     D
C1342  C1346   1.417   .     A
C1342  C383    1.408   1_556 S
C1343  C1347   1.407   .     A
C1344  C1345   1.406   .     A
C1344  C389    1.424   1_556 S
C1344  C379    1.407   1_556 S
C1345  C1346   1.400   .     A
C1345  Cl1349  1.774   .     S
C1346  Cl1352  1.766   .     S
C1347  Cl1350  1.769   .     S
C1348  C1392   1.482   .     S
Cl1351 C1388   1.764   .     S
H1353  C1012   1.088   1_565 S
H1354  N1362   1.029   .     S
H1358  O1364   1.012   .     S
H1359  O1366   1.014   .     S
H1360  O1368   1.014   .     S
N1361  N1362   1.289   .     D
N1361  Zn1378  2.021   .     S
N1362  Zn1377  2.021   .     S
O1363  Zn1377  1.953   .     S
O1363  C1379   1.277   .     S
O1364  C1392   1.396   .     S
O1369  Zn1378  1.977   .     S
O1370  Zn1377  1.926   .     S
O1370  C1382   1.287   .     S
O1371  Zn1378  1.879   .     S
O1372  Zn1377  1.977   .     S
O1373  Zn1378  1.953   .     S
O1374  Zn1377  1.879   .     S
O1375  Zn1378  1.926   .     S
C1379  O1422   1.289   .     A
C1379  C1381   1.401   .     S
C1380  C1382   1.459   .     S
C1380  C1395   1.407   .     A
C1380  C1388   1.410   .     A
C1381  C1012   1.337   1_565 S
C1381  H1092   1.086   1_565 S
C1382  O1424   1.304   .     A
C1383  C1384   1.403   .     S
C1383  C1116   1.337   1_655 S
C1384  O1425   1.289   .     A
C1384  O1320   1.278   1_655 S
C1385  O1427   1.301   .     A
C1385  C1387   1.458   .     S
C1385  O1322   1.292   1_655 S
C1386  H1408   1.082   .     S
C1386  C1401   1.394   .     A
C1387  C1400   1.390   .     A
C1387  C1401   1.407   .     A
C1388  C435    1.386   1_556 S
C1389  H1409   1.084   .     S
C1389  C1391   1.397   .     A
C1390  C1396   1.420   .     A
C1390  C1391   1.433   .     A
C1391  C1394   1.482   .     S
C1392  O1429   1.220   .     D
C1393  O1419   1.397   .     S
C1393  O1418   1.222   .     D
C1393  N1414   1.415   .     S
C1394  O1421   1.399   .     S
C1394  O1420   1.218   .     D
C1395  C1399   1.417   .     A
C1395  C436    1.408   1_556 S
C1396  C1400   1.407   .     A
C1397  C1398   1.406   .     A
C1397  C442    1.424   1_556 S
C1397  C432    1.407   1_556 S
C1398  C1399   1.400   .     A
C1398  Cl1402  1.774   .     S
C1399  Cl1405  1.766   .     S
C1400  Cl1403  1.769   .     S
C1401  C1286   1.482   1_655 S
Cl1404 C1282   1.764   1_655 S
H1406  C1065   1.088   1_565 S
H1407  N1415   1.029   .     S
H1411  O1417   1.012   .     S
H1412  O1419   1.014   .     S
H1413  O1421   1.014   .     S
N1414  N1415   1.289   .     D
N1414  Zn1431  2.021   .     S
N1415  Zn1430  2.021   .     S
O1416  Zn1430  1.953   .     S
O1416  C1273   1.277   1_655 S
O1417  C1286   1.396   1_655 S
O1422  Zn1431  1.977   .     S
O1423  Zn1430  1.926   .     S
O1423  C1276   1.287   1_655 S
O1424  Zn1431  1.879   .     S
O1425  Zn1430  1.977   .     S
O1426  Zn1431  1.953   .     S
O1427  Zn1430  1.879   .     S
O1428  Zn1431  1.926   .     S
