data_str_m2_o1_o16_pcu_sym.226
_audit_creation_date              2020-01-03
_audit_creation_method            'Materials Studio'
_symmetry_space_group_name_H-M    'P1'
_symmetry_Int_Tables_number       1
_symmetry_cell_setting            triclinic
loop_
_symmetry_equiv_pos_as_xyz
  x,y,z
_cell_length_a                    28.6942
_cell_length_b                    32.1847
_cell_length_c                    26.9444
_cell_angle_alpha                 89.8806
_cell_angle_beta                  73.0770
_cell_angle_gamma                 90.0805
loop_
_atom_site_label
_atom_site_type_symbol
_atom_site_fract_x
_atom_site_fract_y
_atom_site_fract_z
_atom_site_U_iso_or_equiv
_atom_site_adp_type
_atom_site_occupancy
C1     C     0.16676   0.24583   0.24977   0.00000  Uiso   1.00
C2     C     0.14592   0.17566   0.48907   0.00000  Uiso   1.00
C3     C     0.16231   0.18105   0.43436   0.00000  Uiso   1.00
C4     C     0.18192   0.16855   0.01517   0.00000  Uiso   1.00
C5     C     0.23011   0.15799   0.48619   0.00000  Uiso   1.00
C6     C     0.24591   0.16798   0.43359   0.00000  Uiso   1.00
C7     C     0.21314   0.18577   0.41041   0.00000  Uiso   1.00
C8     C     0.17283   0.17421   0.06848   0.00000  Uiso   1.00
C9     C     0.25106   0.14452   0.06558   0.00000  Uiso   1.00
C10    C     0.12757   0.18096   0.40572   0.00000  Uiso   1.00
C11    C     0.16860   0.31211   0.20466   0.00000  Uiso   1.00
C12    C     0.14122   0.17165   0.34942   0.00000  Uiso   1.00
C13    C     0.16729   0.02182   0.20539   0.00000  Uiso   1.00
C14    C     0.16624   0.04295   0.25103   0.00000  Uiso   1.00
C15    C     0.16587   0.02133   0.29659   0.00000  Uiso   1.00
C16    C     0.16491   0.31134   0.29603   0.00000  Uiso   1.00
C17    C     0.16670   0.29042   0.25014   0.00000  Uiso   1.00
C18    C     0.31676   0.19324   0.21890   0.00000  Uiso   1.00
C19    C     0.03264   0.19458   0.22023   0.00000  Uiso   1.00
C20    C     0.01645   0.13869   0.27963   0.00000  Uiso   1.00
C21    C     0.29999   0.13962   0.28041   0.00000  Uiso   1.00
C22    C     0.16657   0.08754   0.25027   0.00000  Uiso   1.00
C23    C     0.19254   0.16547   0.15029   0.00000  Uiso   1.00
C24    C     0.26304   0.14288   0.01165   0.00000  Uiso   1.00
C25    C     0.20664   0.16206   0.09388   0.00000  Uiso   1.00
C26    C     0.07844   0.18729   0.43213   0.00000  Uiso   1.00
C27    C     0.06263   0.18744   0.48591   0.00000  Uiso   1.00
C28    C     0.09464   0.17703   0.01453   0.00000  Uiso   1.00
Cu29   Cu    0.11978   0.16666   0.25000   0.00000  Uiso   1.00
Cu30   Cu    0.21355   0.16667   0.25000   0.00000  Uiso   1.00
H31    H     0.27421   0.11833   0.30514   0.00000  Uiso   1.00
H32    H     0.14060   0.19029   0.09058   0.00000  Uiso   1.00
H33    H     0.05175   0.19088   0.41112   0.00000  Uiso   1.00
N34    N     0.04931   0.16666   0.24998   0.00000  Uiso   1.00
N35    N     0.28402   0.16669   0.25000   0.00000  Uiso   1.00
O36    O     0.12708   0.22678   0.25000   0.00000  Uiso   1.00
O37    O     0.20627   0.22679   0.25000   0.00000  Uiso   1.00
O38    O     0.10775   0.16665   0.32549   0.00000  Uiso   1.00
O39    O     0.18694   0.16666   0.32549   0.00000  Uiso   1.00
O40    O     0.12706   0.10654   0.24999   0.00000  Uiso   1.00
O41    O     0.20625   0.10655   0.25000   0.00000  Uiso   1.00
O42    O     0.14640   0.16667   0.17451   0.00000  Uiso   1.00
O43    O     0.22559   0.16668   0.17451   0.00000  Uiso   1.00
F44    F     0.28312   0.12989   0.08979   0.00000  Uiso   1.00
F45    F     0.16853   0.04301   0.16136   0.00000  Uiso   1.00
N46    N     0.16835   0.04287   0.34194   0.00000  Uiso   1.00
H47    H     0.18720   0.02704   0.36332   0.00000  Uiso   1.00
C48    C     0.12229   0.05856   0.37416   0.00000  Uiso   1.00
H49    H     0.09648   0.03249   0.38886   0.00000  Uiso   1.00
H50    H     0.10628   0.08062   0.35209   0.00000  Uiso   1.00
H51    H     0.12813   0.07550   0.40774   0.00000  Uiso   1.00
F52    F     0.16069   0.28962   0.34032   0.00000  Uiso   1.00
F53    F     0.30185   0.21881   0.18648   0.00000  Uiso   1.00
N54    N     0.06456   0.22505   0.19033   0.00000  Uiso   1.00
H55    H     0.06870   0.22217   0.15120   0.00000  Uiso   1.00
C56    C     0.05259   0.26736   0.20785   0.00000  Uiso   1.00
H57    H     0.01684   0.27679   0.20339   0.00000  Uiso   1.00
H58    H     0.08041   0.28890   0.18412   0.00000  Uiso   1.00
H59    H     0.05153   0.27066   0.24920   0.00000  Uiso   1.00
N60    N     0.03202   0.10884   0.31020   0.00000  Uiso   1.00
H61    H     0.01641   0.11315   0.34942   0.00000  Uiso   1.00
C62    C     0.02810   0.06610   0.29504   0.00000  Uiso   1.00
H63    H     0.32261   0.05674   0.30353   0.00000  Uiso   1.00
H64    H     0.04573   0.04533   0.31711   0.00000  Uiso   1.00
H65    H     0.04671   0.06194   0.25299   0.00000  Uiso   1.00
F66    F     0.29419   0.16806   0.40762   0.00000  Uiso   1.00
F67    F     0.30673   0.12679   0.48445   0.00000  Uiso   1.00
N68    N     0.07416   0.16481   0.06728   0.00000  Uiso   1.00
H69    H     0.04187   0.17934   0.08618   0.00000  Uiso   1.00
C70    C     0.07172   0.12035   0.07565   0.00000  Uiso   1.00
H71    H     0.05770   0.11375   0.11787   0.00000  Uiso   1.00
H72    H     0.10842   0.10619   0.06084   0.00000  Uiso   1.00
H73    H     0.04682   0.10599   0.05574   0.00000  Uiso   1.00
F74    F     0.01491   0.19453   0.01028   0.00000  Uiso   1.00
N75    N     0.23107   0.21556   0.37014   0.00000  Uiso   1.00
H76    H     0.26357   0.20722   0.34381   0.00000  Uiso   1.00
C77    C     0.23360   0.25726   0.38912   0.00000  Uiso   1.00
H78    H     0.24587   0.27903   0.35580   0.00000  Uiso   1.00
H79    H     0.26014   0.25865   0.41202   0.00000  Uiso   1.00
H80    H     0.19724   0.26729   0.41390   0.00000  Uiso   1.00
F81    F     0.17236   0.29153   0.15970   0.00000  Uiso   1.00
C82    C     0.50009   0.24583   0.24977   0.00000  Uiso   1.00
C83    C     0.47926   0.17566   0.48907   0.00000  Uiso   1.00
C84    C     0.49564   0.18105   0.43436   0.00000  Uiso   1.00
C85    C     0.51525   0.16855   0.01517   0.00000  Uiso   1.00
C86    C     0.56344   0.15799   0.48619   0.00000  Uiso   1.00
C87    C     0.57924   0.16798   0.43359   0.00000  Uiso   1.00
C88    C     0.54648   0.18577   0.41041   0.00000  Uiso   1.00
C89    C     0.50616   0.17421   0.06848   0.00000  Uiso   1.00
C90    C     0.58440   0.14452   0.06558   0.00000  Uiso   1.00
C91    C     0.46090   0.18096   0.40572   0.00000  Uiso   1.00
C92    C     0.50194   0.31211   0.20466   0.00000  Uiso   1.00
C93    C     0.47456   0.17165   0.34942   0.00000  Uiso   1.00
C94    C     0.50062   0.02182   0.20539   0.00000  Uiso   1.00
C95    C     0.49958   0.04295   0.25103   0.00000  Uiso   1.00
C96    C     0.49920   0.02133   0.29659   0.00000  Uiso   1.00
C97    C     0.49825   0.31134   0.29603   0.00000  Uiso   1.00
C98    C     0.50004   0.29042   0.25014   0.00000  Uiso   1.00
C99    C     0.65009   0.19324   0.21890   0.00000  Uiso   1.00
C100   C     0.36597   0.19458   0.22023   0.00000  Uiso   1.00
C101   C     0.34978   0.13869   0.27963   0.00000  Uiso   1.00
C102   C     0.63333   0.13962   0.28041   0.00000  Uiso   1.00
C103   C     0.49990   0.08754   0.25027   0.00000  Uiso   1.00
C104   C     0.52588   0.16547   0.15029   0.00000  Uiso   1.00
C105   C     0.59637   0.14288   0.01165   0.00000  Uiso   1.00
C106   C     0.53997   0.16206   0.09388   0.00000  Uiso   1.00
C107   C     0.41177   0.18729   0.43213   0.00000  Uiso   1.00
C108   C     0.39596   0.18744   0.48591   0.00000  Uiso   1.00
C109   C     0.42797   0.17703   0.01453   0.00000  Uiso   1.00
Cu110  Cu    0.45311   0.16666   0.25000   0.00000  Uiso   1.00
Cu111  Cu    0.54689   0.16667   0.25000   0.00000  Uiso   1.00
H112   H     0.60755   0.11833   0.30514   0.00000  Uiso   1.00
H113   H     0.47394   0.19029   0.09058   0.00000  Uiso   1.00
H114   H     0.38508   0.19088   0.41112   0.00000  Uiso   1.00
N115   N     0.38265   0.16666   0.24998   0.00000  Uiso   1.00
N116   N     0.61735   0.16669   0.25000   0.00000  Uiso   1.00
O117   O     0.46042   0.22678   0.25000   0.00000  Uiso   1.00
O118   O     0.53961   0.22679   0.25000   0.00000  Uiso   1.00
O119   O     0.44108   0.16665   0.32549   0.00000  Uiso   1.00
O120   O     0.52027   0.16666   0.32549   0.00000  Uiso   1.00
O121   O     0.46039   0.10654   0.24999   0.00000  Uiso   1.00
O122   O     0.53958   0.10655   0.25000   0.00000  Uiso   1.00
O123   O     0.47973   0.16667   0.17451   0.00000  Uiso   1.00
O124   O     0.55892   0.16668   0.17451   0.00000  Uiso   1.00
F125   F     0.61645   0.12989   0.08979   0.00000  Uiso   1.00
F126   F     0.50187   0.04301   0.16136   0.00000  Uiso   1.00
N127   N     0.50168   0.04287   0.34194   0.00000  Uiso   1.00
H128   H     0.52053   0.02704   0.36332   0.00000  Uiso   1.00
C129   C     0.45562   0.05856   0.37416   0.00000  Uiso   1.00
H130   H     0.42981   0.03249   0.38886   0.00000  Uiso   1.00
H131   H     0.43962   0.08062   0.35209   0.00000  Uiso   1.00
H132   H     0.46146   0.07550   0.40774   0.00000  Uiso   1.00
F133   F     0.49403   0.28962   0.34032   0.00000  Uiso   1.00
F134   F     0.63518   0.21881   0.18648   0.00000  Uiso   1.00
N135   N     0.39789   0.22505   0.19033   0.00000  Uiso   1.00
H136   H     0.40204   0.22217   0.15120   0.00000  Uiso   1.00
C137   C     0.38592   0.26736   0.20785   0.00000  Uiso   1.00
H138   H     0.35017   0.27679   0.20339   0.00000  Uiso   1.00
H139   H     0.41374   0.28890   0.18412   0.00000  Uiso   1.00
H140   H     0.38487   0.27066   0.24920   0.00000  Uiso   1.00
N141   N     0.36536   0.10884   0.31020   0.00000  Uiso   1.00
H142   H     0.34975   0.11315   0.34942   0.00000  Uiso   1.00
C143   C     0.36143   0.06610   0.29504   0.00000  Uiso   1.00
H144   H     0.65594   0.05674   0.30353   0.00000  Uiso   1.00
H145   H     0.37906   0.04533   0.31711   0.00000  Uiso   1.00
H146   H     0.38004   0.06194   0.25299   0.00000  Uiso   1.00
F147   F     0.62753   0.16806   0.40762   0.00000  Uiso   1.00
F148   F     0.64006   0.12679   0.48445   0.00000  Uiso   1.00
N149   N     0.40750   0.16481   0.06728   0.00000  Uiso   1.00
H150   H     0.37520   0.17934   0.08618   0.00000  Uiso   1.00
C151   C     0.40505   0.12035   0.07565   0.00000  Uiso   1.00
H152   H     0.39103   0.11375   0.11787   0.00000  Uiso   1.00
H153   H     0.44175   0.10619   0.06084   0.00000  Uiso   1.00
H154   H     0.38015   0.10599   0.05574   0.00000  Uiso   1.00
F155   F     0.34825   0.19453   0.01028   0.00000  Uiso   1.00
N156   N     0.56440   0.21556   0.37014   0.00000  Uiso   1.00
H157   H     0.59690   0.20722   0.34381   0.00000  Uiso   1.00
C158   C     0.56693   0.25726   0.38912   0.00000  Uiso   1.00
H159   H     0.57920   0.27903   0.35580   0.00000  Uiso   1.00
H160   H     0.59347   0.25865   0.41202   0.00000  Uiso   1.00
H161   H     0.53058   0.26729   0.41390   0.00000  Uiso   1.00
F162   F     0.50569   0.29153   0.15970   0.00000  Uiso   1.00
C163   C     0.83343   0.24583   0.24977   0.00000  Uiso   1.00
C164   C     0.81259   0.17566   0.48907   0.00000  Uiso   1.00
C165   C     0.82897   0.18105   0.43436   0.00000  Uiso   1.00
C166   C     0.84859   0.16855   0.01517   0.00000  Uiso   1.00
C167   C     0.89678   0.15799   0.48619   0.00000  Uiso   1.00
C168   C     0.91258   0.16798   0.43359   0.00000  Uiso   1.00
C169   C     0.87981   0.18577   0.41041   0.00000  Uiso   1.00
C170   C     0.83949   0.17421   0.06848   0.00000  Uiso   1.00
C171   C     0.91773   0.14452   0.06558   0.00000  Uiso   1.00
C172   C     0.79423   0.18096   0.40572   0.00000  Uiso   1.00
C173   C     0.83527   0.31211   0.20466   0.00000  Uiso   1.00
C174   C     0.80789   0.17165   0.34942   0.00000  Uiso   1.00
C175   C     0.83395   0.02182   0.20539   0.00000  Uiso   1.00
C176   C     0.83291   0.04295   0.25103   0.00000  Uiso   1.00
C177   C     0.83254   0.02133   0.29659   0.00000  Uiso   1.00
C178   C     0.83158   0.31134   0.29603   0.00000  Uiso   1.00
C179   C     0.83337   0.29042   0.25014   0.00000  Uiso   1.00
C180   C     0.98342   0.19324   0.21890   0.00000  Uiso   1.00
C181   C     0.69931   0.19458   0.22023   0.00000  Uiso   1.00
C182   C     0.68311   0.13869   0.27963   0.00000  Uiso   1.00
C183   C     0.96666   0.13962   0.28041   0.00000  Uiso   1.00
C184   C     0.83323   0.08754   0.25027   0.00000  Uiso   1.00
C185   C     0.85921   0.16547   0.15029   0.00000  Uiso   1.00
C186   C     0.92971   0.14288   0.01165   0.00000  Uiso   1.00
C187   C     0.87331   0.16206   0.09388   0.00000  Uiso   1.00
C188   C     0.74511   0.18729   0.43213   0.00000  Uiso   1.00
C189   C     0.72930   0.18744   0.48591   0.00000  Uiso   1.00
C190   C     0.76130   0.17703   0.01453   0.00000  Uiso   1.00
Cu191  Cu    0.78645   0.16666   0.25000   0.00000  Uiso   1.00
Cu192  Cu    0.88022   0.16667   0.25000   0.00000  Uiso   1.00
H193   H     0.94088   0.11833   0.30514   0.00000  Uiso   1.00
H194   H     0.80727   0.19029   0.09058   0.00000  Uiso   1.00
H195   H     0.71842   0.19088   0.41112   0.00000  Uiso   1.00
N196   N     0.71598   0.16666   0.24998   0.00000  Uiso   1.00
N197   N     0.95069   0.16669   0.25000   0.00000  Uiso   1.00
O198   O     0.79375   0.22678   0.25000   0.00000  Uiso   1.00
O199   O     0.87294   0.22679   0.25000   0.00000  Uiso   1.00
O200   O     0.77441   0.16665   0.32549   0.00000  Uiso   1.00
O201   O     0.85360   0.16666   0.32549   0.00000  Uiso   1.00
O202   O     0.79373   0.10654   0.24999   0.00000  Uiso   1.00
O203   O     0.87292   0.10655   0.25000   0.00000  Uiso   1.00
O204   O     0.81306   0.16667   0.17451   0.00000  Uiso   1.00
O205   O     0.89225   0.16668   0.17451   0.00000  Uiso   1.00
F206   F     0.94978   0.12989   0.08979   0.00000  Uiso   1.00
F207   F     0.83520   0.04301   0.16136   0.00000  Uiso   1.00
N208   N     0.83502   0.04287   0.34194   0.00000  Uiso   1.00
H209   H     0.85387   0.02704   0.36332   0.00000  Uiso   1.00
C210   C     0.78896   0.05856   0.37416   0.00000  Uiso   1.00
H211   H     0.76315   0.03249   0.38886   0.00000  Uiso   1.00
H212   H     0.77295   0.08062   0.35209   0.00000  Uiso   1.00
H213   H     0.79480   0.07550   0.40774   0.00000  Uiso   1.00
F214   F     0.82736   0.28962   0.34032   0.00000  Uiso   1.00
F215   F     0.96851   0.21881   0.18648   0.00000  Uiso   1.00
N216   N     0.73123   0.22505   0.19033   0.00000  Uiso   1.00
H217   H     0.73537   0.22217   0.15120   0.00000  Uiso   1.00
C218   C     0.71925   0.26736   0.20785   0.00000  Uiso   1.00
H219   H     0.68351   0.27679   0.20339   0.00000  Uiso   1.00
H220   H     0.74707   0.28890   0.18412   0.00000  Uiso   1.00
H221   H     0.71820   0.27066   0.24920   0.00000  Uiso   1.00
N222   N     0.69869   0.10884   0.31020   0.00000  Uiso   1.00
H223   H     0.68308   0.11315   0.34942   0.00000  Uiso   1.00
C224   C     0.69476   0.06610   0.29504   0.00000  Uiso   1.00
H225   H     0.98927   0.05674   0.30353   0.00000  Uiso   1.00
H226   H     0.71239   0.04533   0.31711   0.00000  Uiso   1.00
H227   H     0.71338   0.06194   0.25299   0.00000  Uiso   1.00
F228   F     0.96086   0.16806   0.40762   0.00000  Uiso   1.00
F229   F     0.97339   0.12679   0.48445   0.00000  Uiso   1.00
N230   N     0.74083   0.16481   0.06728   0.00000  Uiso   1.00
H231   H     0.70854   0.17934   0.08618   0.00000  Uiso   1.00
C232   C     0.73838   0.12035   0.07565   0.00000  Uiso   1.00
H233   H     0.72436   0.11375   0.11787   0.00000  Uiso   1.00
H234   H     0.77509   0.10619   0.06084   0.00000  Uiso   1.00
H235   H     0.71348   0.10599   0.05574   0.00000  Uiso   1.00
F236   F     0.68158   0.19453   0.01028   0.00000  Uiso   1.00
N237   N     0.89773   0.21556   0.37014   0.00000  Uiso   1.00
H238   H     0.93024   0.20722   0.34381   0.00000  Uiso   1.00
C239   C     0.90027   0.25726   0.38912   0.00000  Uiso   1.00
H240   H     0.91253   0.27903   0.35580   0.00000  Uiso   1.00
H241   H     0.92680   0.25865   0.41202   0.00000  Uiso   1.00
H242   H     0.86391   0.26729   0.41390   0.00000  Uiso   1.00
F243   F     0.83903   0.29153   0.15970   0.00000  Uiso   1.00
C244   C     0.16676   0.57917   0.24977   0.00000  Uiso   1.00
C245   C     0.14592   0.50899   0.48907   0.00000  Uiso   1.00
C246   C     0.16231   0.51438   0.43436   0.00000  Uiso   1.00
C247   C     0.18192   0.50188   0.01517   0.00000  Uiso   1.00
C248   C     0.23011   0.49132   0.48619   0.00000  Uiso   1.00
C249   C     0.24591   0.50131   0.43359   0.00000  Uiso   1.00
C250   C     0.21314   0.51910   0.41041   0.00000  Uiso   1.00
C251   C     0.17283   0.50755   0.06848   0.00000  Uiso   1.00
C252   C     0.25106   0.47785   0.06558   0.00000  Uiso   1.00
C253   C     0.12757   0.51429   0.40572   0.00000  Uiso   1.00
C254   C     0.16860   0.64544   0.20466   0.00000  Uiso   1.00
C255   C     0.14122   0.50499   0.34942   0.00000  Uiso   1.00
C256   C     0.16729   0.35515   0.20539   0.00000  Uiso   1.00
C257   C     0.16624   0.37628   0.25103   0.00000  Uiso   1.00
C258   C     0.16587   0.35466   0.29659   0.00000  Uiso   1.00
C259   C     0.16491   0.64467   0.29603   0.00000  Uiso   1.00
C260   C     0.16670   0.62376   0.25014   0.00000  Uiso   1.00
C261   C     0.31676   0.52658   0.21890   0.00000  Uiso   1.00
C262   C     0.03264   0.52791   0.22023   0.00000  Uiso   1.00
C263   C     0.01645   0.47203   0.27963   0.00000  Uiso   1.00
C264   C     0.29999   0.47296   0.28041   0.00000  Uiso   1.00
C265   C     0.16657   0.42087   0.25027   0.00000  Uiso   1.00
C266   C     0.19254   0.49881   0.15029   0.00000  Uiso   1.00
C267   C     0.26304   0.47621   0.01165   0.00000  Uiso   1.00
C268   C     0.20664   0.49540   0.09388   0.00000  Uiso   1.00
C269   C     0.07844   0.52062   0.43213   0.00000  Uiso   1.00
C270   C     0.06263   0.52077   0.48591   0.00000  Uiso   1.00
C271   C     0.09464   0.51036   0.01453   0.00000  Uiso   1.00
Cu272  Cu    0.11978   0.49999   0.25000   0.00000  Uiso   1.00
Cu273  Cu    0.21355   0.50001   0.25000   0.00000  Uiso   1.00
H274   H     0.27421   0.45166   0.30514   0.00000  Uiso   1.00
H275   H     0.14060   0.52362   0.09058   0.00000  Uiso   1.00
H276   H     0.05175   0.52421   0.41112   0.00000  Uiso   1.00
N277   N     0.04931   0.49999   0.24998   0.00000  Uiso   1.00
N278   N     0.28402   0.50002   0.25000   0.00000  Uiso   1.00
O279   O     0.12708   0.56011   0.25000   0.00000  Uiso   1.00
O280   O     0.20627   0.56012   0.25000   0.00000  Uiso   1.00
O281   O     0.10775   0.49998   0.32549   0.00000  Uiso   1.00
O282   O     0.18694   0.49999   0.32549   0.00000  Uiso   1.00
O283   O     0.12706   0.43988   0.24999   0.00000  Uiso   1.00
O284   O     0.20625   0.43989   0.25000   0.00000  Uiso   1.00
O285   O     0.14640   0.50001   0.17451   0.00000  Uiso   1.00
O286   O     0.22559   0.50002   0.17451   0.00000  Uiso   1.00
F287   F     0.28312   0.46322   0.08979   0.00000  Uiso   1.00
F288   F     0.16853   0.37634   0.16136   0.00000  Uiso   1.00
N289   N     0.16835   0.37621   0.34194   0.00000  Uiso   1.00
H290   H     0.18720   0.36038   0.36332   0.00000  Uiso   1.00
C291   C     0.12229   0.39189   0.37416   0.00000  Uiso   1.00
H292   H     0.09648   0.36583   0.38886   0.00000  Uiso   1.00
H293   H     0.10628   0.41396   0.35209   0.00000  Uiso   1.00
H294   H     0.12813   0.40883   0.40774   0.00000  Uiso   1.00
F295   F     0.16069   0.62295   0.34032   0.00000  Uiso   1.00
F296   F     0.30185   0.55215   0.18648   0.00000  Uiso   1.00
N297   N     0.06456   0.55839   0.19033   0.00000  Uiso   1.00
H298   H     0.06870   0.55550   0.15120   0.00000  Uiso   1.00
C299   C     0.05259   0.60070   0.20785   0.00000  Uiso   1.00
H300   H     0.01684   0.61013   0.20339   0.00000  Uiso   1.00
H301   H     0.08041   0.62224   0.18412   0.00000  Uiso   1.00
H302   H     0.05153   0.60399   0.24920   0.00000  Uiso   1.00
N303   N     0.03202   0.44218   0.31020   0.00000  Uiso   1.00
H304   H     0.01641   0.44648   0.34942   0.00000  Uiso   1.00
C305   C     0.02810   0.39944   0.29504   0.00000  Uiso   1.00
H306   H     0.32261   0.39008   0.30353   0.00000  Uiso   1.00
H307   H     0.04573   0.37866   0.31711   0.00000  Uiso   1.00
H308   H     0.04671   0.39527   0.25299   0.00000  Uiso   1.00
F309   F     0.29419   0.50139   0.40762   0.00000  Uiso   1.00
F310   F     0.30673   0.46012   0.48445   0.00000  Uiso   1.00
N311   N     0.07416   0.49815   0.06728   0.00000  Uiso   1.00
H312   H     0.04187   0.51267   0.08618   0.00000  Uiso   1.00
C313   C     0.07172   0.45368   0.07565   0.00000  Uiso   1.00
H314   H     0.05770   0.44709   0.11787   0.00000  Uiso   1.00
H315   H     0.10842   0.43952   0.06084   0.00000  Uiso   1.00
H316   H     0.04682   0.43932   0.05574   0.00000  Uiso   1.00
F317   F     0.01491   0.52786   0.01028   0.00000  Uiso   1.00
N318   N     0.23107   0.54889   0.37014   0.00000  Uiso   1.00
H319   H     0.26357   0.54056   0.34381   0.00000  Uiso   1.00
C320   C     0.23360   0.59059   0.38912   0.00000  Uiso   1.00
H321   H     0.24587   0.61236   0.35580   0.00000  Uiso   1.00
H322   H     0.26014   0.59198   0.41202   0.00000  Uiso   1.00
H323   H     0.19724   0.60063   0.41390   0.00000  Uiso   1.00
F324   F     0.17236   0.62486   0.15970   0.00000  Uiso   1.00
C325   C     0.50009   0.57917   0.24977   0.00000  Uiso   1.00
C326   C     0.47926   0.50899   0.48907   0.00000  Uiso   1.00
C327   C     0.49564   0.51438   0.43436   0.00000  Uiso   1.00
C328   C     0.51525   0.50188   0.01517   0.00000  Uiso   1.00
C329   C     0.56344   0.49132   0.48619   0.00000  Uiso   1.00
C330   C     0.57924   0.50131   0.43359   0.00000  Uiso   1.00
C331   C     0.54648   0.51910   0.41041   0.00000  Uiso   1.00
C332   C     0.50616   0.50755   0.06848   0.00000  Uiso   1.00
C333   C     0.58440   0.47785   0.06558   0.00000  Uiso   1.00
C334   C     0.46090   0.51429   0.40572   0.00000  Uiso   1.00
C335   C     0.50194   0.64544   0.20466   0.00000  Uiso   1.00
C336   C     0.47456   0.50499   0.34942   0.00000  Uiso   1.00
C337   C     0.50062   0.35515   0.20539   0.00000  Uiso   1.00
C338   C     0.49958   0.37628   0.25103   0.00000  Uiso   1.00
C339   C     0.49920   0.35466   0.29659   0.00000  Uiso   1.00
C340   C     0.49825   0.64467   0.29603   0.00000  Uiso   1.00
C341   C     0.50004   0.62376   0.25014   0.00000  Uiso   1.00
C342   C     0.65009   0.52658   0.21890   0.00000  Uiso   1.00
C343   C     0.36597   0.52791   0.22023   0.00000  Uiso   1.00
C344   C     0.34978   0.47203   0.27963   0.00000  Uiso   1.00
C345   C     0.63333   0.47296   0.28041   0.00000  Uiso   1.00
C346   C     0.49990   0.42087   0.25027   0.00000  Uiso   1.00
C347   C     0.52588   0.49881   0.15029   0.00000  Uiso   1.00
C348   C     0.59637   0.47621   0.01165   0.00000  Uiso   1.00
C349   C     0.53997   0.49540   0.09388   0.00000  Uiso   1.00
C350   C     0.41177   0.52062   0.43213   0.00000  Uiso   1.00
C351   C     0.39596   0.52077   0.48591   0.00000  Uiso   1.00
C352   C     0.42797   0.51036   0.01453   0.00000  Uiso   1.00
Cu353  Cu    0.45311   0.49999   0.25000   0.00000  Uiso   1.00
Cu354  Cu    0.54689   0.50001   0.25000   0.00000  Uiso   1.00
H355   H     0.60755   0.45166   0.30514   0.00000  Uiso   1.00
H356   H     0.47394   0.52362   0.09058   0.00000  Uiso   1.00
H357   H     0.38508   0.52421   0.41112   0.00000  Uiso   1.00
N358   N     0.38265   0.49999   0.24998   0.00000  Uiso   1.00
N359   N     0.61735   0.50002   0.25000   0.00000  Uiso   1.00
O360   O     0.46042   0.56011   0.25000   0.00000  Uiso   1.00
O361   O     0.53961   0.56012   0.25000   0.00000  Uiso   1.00
O362   O     0.44108   0.49998   0.32549   0.00000  Uiso   1.00
O363   O     0.52027   0.49999   0.32549   0.00000  Uiso   1.00
O364   O     0.46039   0.43988   0.24999   0.00000  Uiso   1.00
O365   O     0.53958   0.43989   0.25000   0.00000  Uiso   1.00
O366   O     0.47973   0.50001   0.17451   0.00000  Uiso   1.00
O367   O     0.55892   0.50002   0.17451   0.00000  Uiso   1.00
F368   F     0.61645   0.46322   0.08979   0.00000  Uiso   1.00
F369   F     0.50187   0.37634   0.16136   0.00000  Uiso   1.00
N370   N     0.50168   0.37621   0.34194   0.00000  Uiso   1.00
H371   H     0.52053   0.36038   0.36332   0.00000  Uiso   1.00
C372   C     0.45562   0.39189   0.37416   0.00000  Uiso   1.00
H373   H     0.42981   0.36583   0.38886   0.00000  Uiso   1.00
H374   H     0.43962   0.41396   0.35209   0.00000  Uiso   1.00
H375   H     0.46146   0.40883   0.40774   0.00000  Uiso   1.00
F376   F     0.49403   0.62295   0.34032   0.00000  Uiso   1.00
F377   F     0.63518   0.55215   0.18648   0.00000  Uiso   1.00
N378   N     0.39789   0.55839   0.19033   0.00000  Uiso   1.00
H379   H     0.40204   0.55550   0.15120   0.00000  Uiso   1.00
C380   C     0.38592   0.60070   0.20785   0.00000  Uiso   1.00
H381   H     0.35017   0.61013   0.20339   0.00000  Uiso   1.00
H382   H     0.41374   0.62224   0.18412   0.00000  Uiso   1.00
H383   H     0.38487   0.60399   0.24920   0.00000  Uiso   1.00
N384   N     0.36536   0.44218   0.31020   0.00000  Uiso   1.00
H385   H     0.34975   0.44648   0.34942   0.00000  Uiso   1.00
C386   C     0.36143   0.39944   0.29504   0.00000  Uiso   1.00
H387   H     0.65594   0.39008   0.30353   0.00000  Uiso   1.00
H388   H     0.37906   0.37866   0.31711   0.00000  Uiso   1.00
H389   H     0.38004   0.39527   0.25299   0.00000  Uiso   1.00
F390   F     0.62753   0.50139   0.40762   0.00000  Uiso   1.00
F391   F     0.64006   0.46012   0.48445   0.00000  Uiso   1.00
N392   N     0.40750   0.49815   0.06728   0.00000  Uiso   1.00
H393   H     0.37520   0.51267   0.08618   0.00000  Uiso   1.00
C394   C     0.40505   0.45368   0.07565   0.00000  Uiso   1.00
H395   H     0.39103   0.44709   0.11787   0.00000  Uiso   1.00
H396   H     0.44175   0.43952   0.06084   0.00000  Uiso   1.00
H397   H     0.38015   0.43932   0.05574   0.00000  Uiso   1.00
F398   F     0.34825   0.52786   0.01028   0.00000  Uiso   1.00
N399   N     0.56440   0.54889   0.37014   0.00000  Uiso   1.00
H400   H     0.59690   0.54056   0.34381   0.00000  Uiso   1.00
C401   C     0.56693   0.59059   0.38912   0.00000  Uiso   1.00
H402   H     0.57920   0.61236   0.35580   0.00000  Uiso   1.00
H403   H     0.59347   0.59198   0.41202   0.00000  Uiso   1.00
H404   H     0.53058   0.60063   0.41390   0.00000  Uiso   1.00
F405   F     0.50569   0.62486   0.15970   0.00000  Uiso   1.00
C406   C     0.83343   0.57917   0.24977   0.00000  Uiso   1.00
C407   C     0.81259   0.50899   0.48907   0.00000  Uiso   1.00
C408   C     0.82897   0.51438   0.43436   0.00000  Uiso   1.00
C409   C     0.84859   0.50188   0.01517   0.00000  Uiso   1.00
C410   C     0.89678   0.49132   0.48619   0.00000  Uiso   1.00
C411   C     0.91258   0.50131   0.43359   0.00000  Uiso   1.00
C412   C     0.87981   0.51910   0.41041   0.00000  Uiso   1.00
C413   C     0.83949   0.50755   0.06848   0.00000  Uiso   1.00
C414   C     0.91773   0.47785   0.06558   0.00000  Uiso   1.00
C415   C     0.79423   0.51429   0.40572   0.00000  Uiso   1.00
C416   C     0.83527   0.64544   0.20466   0.00000  Uiso   1.00
C417   C     0.80789   0.50499   0.34942   0.00000  Uiso   1.00
C418   C     0.83395   0.35515   0.20539   0.00000  Uiso   1.00
C419   C     0.83291   0.37628   0.25103   0.00000  Uiso   1.00
C420   C     0.83254   0.35466   0.29659   0.00000  Uiso   1.00
C421   C     0.83158   0.64467   0.29603   0.00000  Uiso   1.00
C422   C     0.83337   0.62376   0.25014   0.00000  Uiso   1.00
C423   C     0.98342   0.52658   0.21890   0.00000  Uiso   1.00
C424   C     0.69931   0.52791   0.22023   0.00000  Uiso   1.00
C425   C     0.68311   0.47203   0.27963   0.00000  Uiso   1.00
C426   C     0.96666   0.47296   0.28041   0.00000  Uiso   1.00
C427   C     0.83323   0.42087   0.25027   0.00000  Uiso   1.00
C428   C     0.85921   0.49881   0.15029   0.00000  Uiso   1.00
C429   C     0.92971   0.47621   0.01165   0.00000  Uiso   1.00
C430   C     0.87331   0.49540   0.09388   0.00000  Uiso   1.00
C431   C     0.74511   0.52062   0.43213   0.00000  Uiso   1.00
C432   C     0.72930   0.52077   0.48591   0.00000  Uiso   1.00
C433   C     0.76130   0.51036   0.01453   0.00000  Uiso   1.00
Cu434  Cu    0.78645   0.49999   0.25000   0.00000  Uiso   1.00
Cu435  Cu    0.88022   0.50001   0.25000   0.00000  Uiso   1.00
H436   H     0.94088   0.45166   0.30514   0.00000  Uiso   1.00
H437   H     0.80727   0.52362   0.09058   0.00000  Uiso   1.00
H438   H     0.71842   0.52421   0.41112   0.00000  Uiso   1.00
N439   N     0.71598   0.49999   0.24998   0.00000  Uiso   1.00
N440   N     0.95069   0.50002   0.25000   0.00000  Uiso   1.00
O441   O     0.79375   0.56011   0.25000   0.00000  Uiso   1.00
O442   O     0.87294   0.56012   0.25000   0.00000  Uiso   1.00
O443   O     0.77441   0.49998   0.32549   0.00000  Uiso   1.00
O444   O     0.85360   0.49999   0.32549   0.00000  Uiso   1.00
O445   O     0.79373   0.43988   0.24999   0.00000  Uiso   1.00
O446   O     0.87292   0.43989   0.25000   0.00000  Uiso   1.00
O447   O     0.81306   0.50001   0.17451   0.00000  Uiso   1.00
O448   O     0.89225   0.50002   0.17451   0.00000  Uiso   1.00
F449   F     0.94978   0.46322   0.08979   0.00000  Uiso   1.00
F450   F     0.83520   0.37634   0.16136   0.00000  Uiso   1.00
N451   N     0.83502   0.37621   0.34194   0.00000  Uiso   1.00
H452   H     0.85387   0.36038   0.36332   0.00000  Uiso   1.00
C453   C     0.78896   0.39189   0.37416   0.00000  Uiso   1.00
H454   H     0.76315   0.36583   0.38886   0.00000  Uiso   1.00
H455   H     0.77295   0.41396   0.35209   0.00000  Uiso   1.00
H456   H     0.79480   0.40883   0.40774   0.00000  Uiso   1.00
F457   F     0.82736   0.62295   0.34032   0.00000  Uiso   1.00
F458   F     0.96851   0.55215   0.18648   0.00000  Uiso   1.00
N459   N     0.73123   0.55839   0.19033   0.00000  Uiso   1.00
H460   H     0.73537   0.55550   0.15120   0.00000  Uiso   1.00
C461   C     0.71925   0.60070   0.20785   0.00000  Uiso   1.00
H462   H     0.68351   0.61013   0.20339   0.00000  Uiso   1.00
H463   H     0.74707   0.62224   0.18412   0.00000  Uiso   1.00
H464   H     0.71820   0.60399   0.24920   0.00000  Uiso   1.00
N465   N     0.69869   0.44218   0.31020   0.00000  Uiso   1.00
H466   H     0.68308   0.44648   0.34942   0.00000  Uiso   1.00
C467   C     0.69476   0.39944   0.29504   0.00000  Uiso   1.00
H468   H     0.98927   0.39008   0.30353   0.00000  Uiso   1.00
H469   H     0.71239   0.37866   0.31711   0.00000  Uiso   1.00
H470   H     0.71338   0.39527   0.25299   0.00000  Uiso   1.00
F471   F     0.96086   0.50139   0.40762   0.00000  Uiso   1.00
F472   F     0.97339   0.46012   0.48445   0.00000  Uiso   1.00
N473   N     0.74083   0.49815   0.06728   0.00000  Uiso   1.00
H474   H     0.70854   0.51267   0.08618   0.00000  Uiso   1.00
C475   C     0.73838   0.45368   0.07565   0.00000  Uiso   1.00
H476   H     0.72436   0.44709   0.11787   0.00000  Uiso   1.00
H477   H     0.77509   0.43952   0.06084   0.00000  Uiso   1.00
H478   H     0.71348   0.43932   0.05574   0.00000  Uiso   1.00
F479   F     0.68158   0.52786   0.01028   0.00000  Uiso   1.00
N480   N     0.89773   0.54889   0.37014   0.00000  Uiso   1.00
H481   H     0.93024   0.54056   0.34381   0.00000  Uiso   1.00
C482   C     0.90027   0.59059   0.38912   0.00000  Uiso   1.00
H483   H     0.91253   0.61236   0.35580   0.00000  Uiso   1.00
H484   H     0.92680   0.59198   0.41202   0.00000  Uiso   1.00
H485   H     0.86391   0.60063   0.41390   0.00000  Uiso   1.00
F486   F     0.83903   0.62486   0.15970   0.00000  Uiso   1.00
C487   C     0.16676   0.91250   0.24977   0.00000  Uiso   1.00
C488   C     0.14592   0.84233   0.48907   0.00000  Uiso   1.00
C489   C     0.16231   0.84772   0.43436   0.00000  Uiso   1.00
C490   C     0.18192   0.83521   0.01517   0.00000  Uiso   1.00
C491   C     0.23011   0.82466   0.48619   0.00000  Uiso   1.00
C492   C     0.24591   0.83464   0.43359   0.00000  Uiso   1.00
C493   C     0.21314   0.85243   0.41041   0.00000  Uiso   1.00
C494   C     0.17283   0.84088   0.06848   0.00000  Uiso   1.00
C495   C     0.25106   0.81118   0.06558   0.00000  Uiso   1.00
C496   C     0.12757   0.84762   0.40572   0.00000  Uiso   1.00
C497   C     0.16860   0.97878   0.20466   0.00000  Uiso   1.00
C498   C     0.14122   0.83832   0.34942   0.00000  Uiso   1.00
C499   C     0.16729   0.68848   0.20539   0.00000  Uiso   1.00
C500   C     0.16624   0.70962   0.25103   0.00000  Uiso   1.00
C501   C     0.16587   0.68800   0.29659   0.00000  Uiso   1.00
C502   C     0.16491   0.97801   0.29603   0.00000  Uiso   1.00
C503   C     0.16670   0.95709   0.25014   0.00000  Uiso   1.00
C504   C     0.31676   0.85991   0.21890   0.00000  Uiso   1.00
C505   C     0.03264   0.86124   0.22023   0.00000  Uiso   1.00
C506   C     0.01645   0.80536   0.27963   0.00000  Uiso   1.00
C507   C     0.29999   0.80629   0.28041   0.00000  Uiso   1.00
C508   C     0.16657   0.75420   0.25027   0.00000  Uiso   1.00
C509   C     0.19254   0.83214   0.15029   0.00000  Uiso   1.00
C510   C     0.26304   0.80954   0.01165   0.00000  Uiso   1.00
C511   C     0.20664   0.82873   0.09388   0.00000  Uiso   1.00
C512   C     0.07844   0.85395   0.43213   0.00000  Uiso   1.00
C513   C     0.06263   0.85410   0.48591   0.00000  Uiso   1.00
C514   C     0.09464   0.84369   0.01453   0.00000  Uiso   1.00
Cu515  Cu    0.11978   0.83333   0.25000   0.00000  Uiso   1.00
Cu516  Cu    0.21355   0.83334   0.25000   0.00000  Uiso   1.00
H517   H     0.27421   0.78499   0.30514   0.00000  Uiso   1.00
H518   H     0.14060   0.85695   0.09058   0.00000  Uiso   1.00
H519   H     0.05175   0.85755   0.41112   0.00000  Uiso   1.00
N520   N     0.04931   0.83332   0.24998   0.00000  Uiso   1.00
N521   N     0.28402   0.83335   0.25000   0.00000  Uiso   1.00
O522   O     0.12708   0.89345   0.25000   0.00000  Uiso   1.00
O523   O     0.20627   0.89346   0.25000   0.00000  Uiso   1.00
O524   O     0.10775   0.83332   0.32549   0.00000  Uiso   1.00
O525   O     0.18694   0.83333   0.32549   0.00000  Uiso   1.00
O526   O     0.12706   0.77321   0.24999   0.00000  Uiso   1.00
O527   O     0.20625   0.77322   0.25000   0.00000  Uiso   1.00
O528   O     0.14640   0.83334   0.17451   0.00000  Uiso   1.00
O529   O     0.22559   0.83335   0.17451   0.00000  Uiso   1.00
F530   F     0.28312   0.79656   0.08979   0.00000  Uiso   1.00
F531   F     0.16853   0.70968   0.16136   0.00000  Uiso   1.00
N532   N     0.16835   0.70954   0.34194   0.00000  Uiso   1.00
H533   H     0.18720   0.69371   0.36332   0.00000  Uiso   1.00
C534   C     0.12229   0.72523   0.37416   0.00000  Uiso   1.00
H535   H     0.09648   0.69916   0.38886   0.00000  Uiso   1.00
H536   H     0.10628   0.74729   0.35209   0.00000  Uiso   1.00
H537   H     0.12813   0.74217   0.40774   0.00000  Uiso   1.00
F538   F     0.16069   0.95628   0.34032   0.00000  Uiso   1.00
F539   F     0.30185   0.88548   0.18648   0.00000  Uiso   1.00
N540   N     0.06456   0.89172   0.19033   0.00000  Uiso   1.00
H541   H     0.06870   0.88883   0.15120   0.00000  Uiso   1.00
C542   C     0.05259   0.93403   0.20785   0.00000  Uiso   1.00
H543   H     0.01684   0.94346   0.20339   0.00000  Uiso   1.00
H544   H     0.08041   0.95557   0.18412   0.00000  Uiso   1.00
H545   H     0.05153   0.93732   0.24920   0.00000  Uiso   1.00
N546   N     0.03202   0.77551   0.31020   0.00000  Uiso   1.00
H547   H     0.01641   0.77982   0.34942   0.00000  Uiso   1.00
C548   C     0.02810   0.73277   0.29504   0.00000  Uiso   1.00
H549   H     0.32261   0.72341   0.30353   0.00000  Uiso   1.00
H550   H     0.04573   0.71200   0.31711   0.00000  Uiso   1.00
H551   H     0.04671   0.72861   0.25299   0.00000  Uiso   1.00
F552   F     0.29419   0.83473   0.40762   0.00000  Uiso   1.00
F553   F     0.30673   0.79346   0.48445   0.00000  Uiso   1.00
N554   N     0.07416   0.83148   0.06728   0.00000  Uiso   1.00
H555   H     0.04187   0.84601   0.08618   0.00000  Uiso   1.00
C556   C     0.07172   0.78702   0.07565   0.00000  Uiso   1.00
H557   H     0.05770   0.78042   0.11787   0.00000  Uiso   1.00
H558   H     0.10842   0.77286   0.06084   0.00000  Uiso   1.00
H559   H     0.04682   0.77265   0.05574   0.00000  Uiso   1.00
F560   F     0.01491   0.86119   0.01028   0.00000  Uiso   1.00
N561   N     0.23107   0.88222   0.37014   0.00000  Uiso   1.00
H562   H     0.26357   0.87389   0.34381   0.00000  Uiso   1.00
C563   C     0.23360   0.92393   0.38912   0.00000  Uiso   1.00
H564   H     0.24587   0.94569   0.35580   0.00000  Uiso   1.00
H565   H     0.26014   0.92531   0.41202   0.00000  Uiso   1.00
H566   H     0.19724   0.93396   0.41390   0.00000  Uiso   1.00
F567   F     0.17236   0.95819   0.15970   0.00000  Uiso   1.00
C568   C     0.50009   0.91250   0.24977   0.00000  Uiso   1.00
C569   C     0.47926   0.84233   0.48907   0.00000  Uiso   1.00
C570   C     0.49564   0.84772   0.43436   0.00000  Uiso   1.00
C571   C     0.51525   0.83521   0.01517   0.00000  Uiso   1.00
C572   C     0.56344   0.82466   0.48619   0.00000  Uiso   1.00
C573   C     0.57924   0.83464   0.43359   0.00000  Uiso   1.00
C574   C     0.54648   0.85243   0.41041   0.00000  Uiso   1.00
C575   C     0.50616   0.84088   0.06848   0.00000  Uiso   1.00
C576   C     0.58440   0.81118   0.06558   0.00000  Uiso   1.00
C577   C     0.46090   0.84762   0.40572   0.00000  Uiso   1.00
C578   C     0.50194   0.97878   0.20466   0.00000  Uiso   1.00
C579   C     0.47456   0.83832   0.34942   0.00000  Uiso   1.00
C580   C     0.50062   0.68848   0.20539   0.00000  Uiso   1.00
C581   C     0.49958   0.70962   0.25103   0.00000  Uiso   1.00
C582   C     0.49920   0.68800   0.29659   0.00000  Uiso   1.00
C583   C     0.49825   0.97801   0.29603   0.00000  Uiso   1.00
C584   C     0.50004   0.95709   0.25014   0.00000  Uiso   1.00
C585   C     0.65009   0.85991   0.21890   0.00000  Uiso   1.00
C586   C     0.36597   0.86124   0.22023   0.00000  Uiso   1.00
C587   C     0.34978   0.80536   0.27963   0.00000  Uiso   1.00
C588   C     0.63333   0.80629   0.28041   0.00000  Uiso   1.00
C589   C     0.49990   0.75420   0.25027   0.00000  Uiso   1.00
C590   C     0.52588   0.83214   0.15029   0.00000  Uiso   1.00
C591   C     0.59637   0.80954   0.01165   0.00000  Uiso   1.00
C592   C     0.53997   0.82873   0.09388   0.00000  Uiso   1.00
C593   C     0.41177   0.85395   0.43213   0.00000  Uiso   1.00
C594   C     0.39596   0.85410   0.48591   0.00000  Uiso   1.00
C595   C     0.42797   0.84369   0.01453   0.00000  Uiso   1.00
Cu596  Cu    0.45311   0.83333   0.25000   0.00000  Uiso   1.00
Cu597  Cu    0.54689   0.83334   0.25000   0.00000  Uiso   1.00
H598   H     0.60755   0.78499   0.30514   0.00000  Uiso   1.00
H599   H     0.47394   0.85695   0.09058   0.00000  Uiso   1.00
H600   H     0.38508   0.85755   0.41112   0.00000  Uiso   1.00
N601   N     0.38265   0.83332   0.24998   0.00000  Uiso   1.00
N602   N     0.61735   0.83335   0.25000   0.00000  Uiso   1.00
O603   O     0.46042   0.89345   0.25000   0.00000  Uiso   1.00
O604   O     0.53961   0.89346   0.25000   0.00000  Uiso   1.00
O605   O     0.44108   0.83332   0.32549   0.00000  Uiso   1.00
O606   O     0.52027   0.83333   0.32549   0.00000  Uiso   1.00
O607   O     0.46039   0.77321   0.24999   0.00000  Uiso   1.00
O608   O     0.53958   0.77322   0.25000   0.00000  Uiso   1.00
O609   O     0.47973   0.83334   0.17451   0.00000  Uiso   1.00
O610   O     0.55892   0.83335   0.17451   0.00000  Uiso   1.00
F611   F     0.61645   0.79656   0.08979   0.00000  Uiso   1.00
F612   F     0.50187   0.70968   0.16136   0.00000  Uiso   1.00
N613   N     0.50168   0.70954   0.34194   0.00000  Uiso   1.00
H614   H     0.52053   0.69371   0.36332   0.00000  Uiso   1.00
C615   C     0.45562   0.72523   0.37416   0.00000  Uiso   1.00
H616   H     0.42981   0.69916   0.38886   0.00000  Uiso   1.00
H617   H     0.43962   0.74729   0.35209   0.00000  Uiso   1.00
H618   H     0.46146   0.74217   0.40774   0.00000  Uiso   1.00
F619   F     0.49403   0.95628   0.34032   0.00000  Uiso   1.00
F620   F     0.63518   0.88548   0.18648   0.00000  Uiso   1.00
N621   N     0.39789   0.89172   0.19033   0.00000  Uiso   1.00
H622   H     0.40204   0.88883   0.15120   0.00000  Uiso   1.00
C623   C     0.38592   0.93403   0.20785   0.00000  Uiso   1.00
H624   H     0.35017   0.94346   0.20339   0.00000  Uiso   1.00
H625   H     0.41374   0.95557   0.18412   0.00000  Uiso   1.00
H626   H     0.38487   0.93732   0.24920   0.00000  Uiso   1.00
N627   N     0.36536   0.77551   0.31020   0.00000  Uiso   1.00
H628   H     0.34975   0.77982   0.34942   0.00000  Uiso   1.00
C629   C     0.36143   0.73277   0.29504   0.00000  Uiso   1.00
H630   H     0.65594   0.72341   0.30353   0.00000  Uiso   1.00
H631   H     0.37906   0.71200   0.31711   0.00000  Uiso   1.00
H632   H     0.38004   0.72861   0.25299   0.00000  Uiso   1.00
F633   F     0.62753   0.83473   0.40762   0.00000  Uiso   1.00
F634   F     0.64006   0.79346   0.48445   0.00000  Uiso   1.00
N635   N     0.40750   0.83148   0.06728   0.00000  Uiso   1.00
H636   H     0.37520   0.84601   0.08618   0.00000  Uiso   1.00
C637   C     0.40505   0.78702   0.07565   0.00000  Uiso   1.00
H638   H     0.39103   0.78042   0.11787   0.00000  Uiso   1.00
H639   H     0.44175   0.77286   0.06084   0.00000  Uiso   1.00
H640   H     0.38015   0.77265   0.05574   0.00000  Uiso   1.00
F641   F     0.34825   0.86119   0.01028   0.00000  Uiso   1.00
N642   N     0.56440   0.88222   0.37014   0.00000  Uiso   1.00
H643   H     0.59690   0.87389   0.34381   0.00000  Uiso   1.00
C644   C     0.56693   0.92393   0.38912   0.00000  Uiso   1.00
H645   H     0.57920   0.94569   0.35580   0.00000  Uiso   1.00
H646   H     0.59347   0.92531   0.41202   0.00000  Uiso   1.00
H647   H     0.53058   0.93396   0.41390   0.00000  Uiso   1.00
F648   F     0.50569   0.95819   0.15970   0.00000  Uiso   1.00
C649   C     0.83343   0.91250   0.24977   0.00000  Uiso   1.00
C650   C     0.81259   0.84233   0.48907   0.00000  Uiso   1.00
C651   C     0.82897   0.84772   0.43436   0.00000  Uiso   1.00
C652   C     0.84859   0.83521   0.01517   0.00000  Uiso   1.00
C653   C     0.89678   0.82466   0.48619   0.00000  Uiso   1.00
C654   C     0.91258   0.83464   0.43359   0.00000  Uiso   1.00
C655   C     0.87981   0.85243   0.41041   0.00000  Uiso   1.00
C656   C     0.83949   0.84088   0.06848   0.00000  Uiso   1.00
C657   C     0.91773   0.81118   0.06558   0.00000  Uiso   1.00
C658   C     0.79423   0.84762   0.40572   0.00000  Uiso   1.00
C659   C     0.83527   0.97878   0.20466   0.00000  Uiso   1.00
C660   C     0.80789   0.83832   0.34942   0.00000  Uiso   1.00
C661   C     0.83395   0.68848   0.20539   0.00000  Uiso   1.00
C662   C     0.83291   0.70962   0.25103   0.00000  Uiso   1.00
C663   C     0.83254   0.68800   0.29659   0.00000  Uiso   1.00
C664   C     0.83158   0.97801   0.29603   0.00000  Uiso   1.00
C665   C     0.83337   0.95709   0.25014   0.00000  Uiso   1.00
C666   C     0.98342   0.85991   0.21890   0.00000  Uiso   1.00
C667   C     0.69931   0.86124   0.22023   0.00000  Uiso   1.00
C668   C     0.68311   0.80536   0.27963   0.00000  Uiso   1.00
C669   C     0.96666   0.80629   0.28041   0.00000  Uiso   1.00
C670   C     0.83323   0.75420   0.25027   0.00000  Uiso   1.00
C671   C     0.85921   0.83214   0.15029   0.00000  Uiso   1.00
C672   C     0.92971   0.80954   0.01165   0.00000  Uiso   1.00
C673   C     0.87331   0.82873   0.09388   0.00000  Uiso   1.00
C674   C     0.74511   0.85395   0.43213   0.00000  Uiso   1.00
C675   C     0.72930   0.85410   0.48591   0.00000  Uiso   1.00
C676   C     0.76130   0.84369   0.01453   0.00000  Uiso   1.00
Cu677  Cu    0.78645   0.83333   0.25000   0.00000  Uiso   1.00
Cu678  Cu    0.88022   0.83334   0.25000   0.00000  Uiso   1.00
H679   H     0.94088   0.78499   0.30514   0.00000  Uiso   1.00
H680   H     0.80727   0.85695   0.09058   0.00000  Uiso   1.00
H681   H     0.71842   0.85755   0.41112   0.00000  Uiso   1.00
N682   N     0.71598   0.83332   0.24998   0.00000  Uiso   1.00
N683   N     0.95069   0.83335   0.25000   0.00000  Uiso   1.00
O684   O     0.79375   0.89345   0.25000   0.00000  Uiso   1.00
O685   O     0.87294   0.89346   0.25000   0.00000  Uiso   1.00
O686   O     0.77441   0.83332   0.32549   0.00000  Uiso   1.00
O687   O     0.85360   0.83333   0.32549   0.00000  Uiso   1.00
O688   O     0.79373   0.77321   0.24999   0.00000  Uiso   1.00
O689   O     0.87292   0.77322   0.25000   0.00000  Uiso   1.00
O690   O     0.81306   0.83334   0.17451   0.00000  Uiso   1.00
O691   O     0.89225   0.83335   0.17451   0.00000  Uiso   1.00
F692   F     0.94978   0.79656   0.08979   0.00000  Uiso   1.00
F693   F     0.83520   0.70968   0.16136   0.00000  Uiso   1.00
N694   N     0.83502   0.70954   0.34194   0.00000  Uiso   1.00
H695   H     0.85387   0.69371   0.36332   0.00000  Uiso   1.00
C696   C     0.78896   0.72523   0.37416   0.00000  Uiso   1.00
H697   H     0.76315   0.69916   0.38886   0.00000  Uiso   1.00
H698   H     0.77295   0.74729   0.35209   0.00000  Uiso   1.00
H699   H     0.79480   0.74217   0.40774   0.00000  Uiso   1.00
F700   F     0.82736   0.95628   0.34032   0.00000  Uiso   1.00
F701   F     0.96851   0.88548   0.18648   0.00000  Uiso   1.00
N702   N     0.73123   0.89172   0.19033   0.00000  Uiso   1.00
H703   H     0.73537   0.88883   0.15120   0.00000  Uiso   1.00
C704   C     0.71925   0.93403   0.20785   0.00000  Uiso   1.00
H705   H     0.68351   0.94346   0.20339   0.00000  Uiso   1.00
H706   H     0.74707   0.95557   0.18412   0.00000  Uiso   1.00
H707   H     0.71820   0.93732   0.24920   0.00000  Uiso   1.00
N708   N     0.69869   0.77551   0.31020   0.00000  Uiso   1.00
H709   H     0.68308   0.77982   0.34942   0.00000  Uiso   1.00
C710   C     0.69476   0.73277   0.29504   0.00000  Uiso   1.00
H711   H     0.98927   0.72341   0.30353   0.00000  Uiso   1.00
H712   H     0.71239   0.71200   0.31711   0.00000  Uiso   1.00
H713   H     0.71338   0.72861   0.25299   0.00000  Uiso   1.00
F714   F     0.96086   0.83473   0.40762   0.00000  Uiso   1.00
F715   F     0.97339   0.79346   0.48445   0.00000  Uiso   1.00
N716   N     0.74083   0.83148   0.06728   0.00000  Uiso   1.00
H717   H     0.70854   0.84601   0.08618   0.00000  Uiso   1.00
C718   C     0.73838   0.78702   0.07565   0.00000  Uiso   1.00
H719   H     0.72436   0.78042   0.11787   0.00000  Uiso   1.00
H720   H     0.77509   0.77286   0.06084   0.00000  Uiso   1.00
H721   H     0.71348   0.77265   0.05574   0.00000  Uiso   1.00
F722   F     0.68158   0.86119   0.01028   0.00000  Uiso   1.00
N723   N     0.89773   0.88222   0.37014   0.00000  Uiso   1.00
H724   H     0.93024   0.87389   0.34381   0.00000  Uiso   1.00
C725   C     0.90027   0.92393   0.38912   0.00000  Uiso   1.00
H726   H     0.91253   0.94569   0.35580   0.00000  Uiso   1.00
H727   H     0.92680   0.92531   0.41202   0.00000  Uiso   1.00
H728   H     0.86391   0.93396   0.41390   0.00000  Uiso   1.00
F729   F     0.83903   0.95819   0.15970   0.00000  Uiso   1.00
C730   C     0.16676   0.24583   0.74977   0.00000  Uiso   1.00
C731   C     0.14592   0.17566   0.98907   0.00000  Uiso   1.00
C732   C     0.16231   0.18105   0.93436   0.00000  Uiso   1.00
C733   C     0.18192   0.16855   0.51517   0.00000  Uiso   1.00
C734   C     0.23011   0.15799   0.98619   0.00000  Uiso   1.00
C735   C     0.24591   0.16798   0.93359   0.00000  Uiso   1.00
C736   C     0.21314   0.18577   0.91041   0.00000  Uiso   1.00
C737   C     0.17283   0.17421   0.56848   0.00000  Uiso   1.00
C738   C     0.25106   0.14452   0.56558   0.00000  Uiso   1.00
C739   C     0.12757   0.18096   0.90572   0.00000  Uiso   1.00
C740   C     0.16860   0.31211   0.70466   0.00000  Uiso   1.00
C741   C     0.14122   0.17165   0.84942   0.00000  Uiso   1.00
C742   C     0.16729   0.02182   0.70539   0.00000  Uiso   1.00
C743   C     0.16624   0.04295   0.75103   0.00000  Uiso   1.00
C744   C     0.16587   0.02133   0.79659   0.00000  Uiso   1.00
C745   C     0.16491   0.31134   0.79603   0.00000  Uiso   1.00
C746   C     0.16670   0.29042   0.75014   0.00000  Uiso   1.00
C747   C     0.31676   0.19324   0.71890   0.00000  Uiso   1.00
C748   C     0.03264   0.19458   0.72023   0.00000  Uiso   1.00
C749   C     0.01645   0.13869   0.77963   0.00000  Uiso   1.00
C750   C     0.29999   0.13962   0.78041   0.00000  Uiso   1.00
C751   C     0.16657   0.08754   0.75027   0.00000  Uiso   1.00
C752   C     0.19254   0.16547   0.65029   0.00000  Uiso   1.00
C753   C     0.26304   0.14288   0.51165   0.00000  Uiso   1.00
C754   C     0.20664   0.16206   0.59388   0.00000  Uiso   1.00
C755   C     0.07844   0.18729   0.93213   0.00000  Uiso   1.00
C756   C     0.06263   0.18744   0.98591   0.00000  Uiso   1.00
C757   C     0.09464   0.17703   0.51453   0.00000  Uiso   1.00
Cu758  Cu    0.11978   0.16666   0.75000   0.00000  Uiso   1.00
Cu759  Cu    0.21355   0.16667   0.75000   0.00000  Uiso   1.00
H760   H     0.27421   0.11833   0.80514   0.00000  Uiso   1.00
H761   H     0.14060   0.19029   0.59058   0.00000  Uiso   1.00
H762   H     0.05175   0.19088   0.91112   0.00000  Uiso   1.00
N763   N     0.04931   0.16666   0.74998   0.00000  Uiso   1.00
N764   N     0.28402   0.16669   0.75000   0.00000  Uiso   1.00
O765   O     0.12708   0.22678   0.75000   0.00000  Uiso   1.00
O766   O     0.20627   0.22679   0.75000   0.00000  Uiso   1.00
O767   O     0.10775   0.16665   0.82549   0.00000  Uiso   1.00
O768   O     0.18694   0.16666   0.82549   0.00000  Uiso   1.00
O769   O     0.12706   0.10654   0.74999   0.00000  Uiso   1.00
O770   O     0.20625   0.10655   0.75000   0.00000  Uiso   1.00
O771   O     0.14640   0.16667   0.67451   0.00000  Uiso   1.00
O772   O     0.22559   0.16668   0.67451   0.00000  Uiso   1.00
F773   F     0.28312   0.12989   0.58979   0.00000  Uiso   1.00
F774   F     0.16853   0.04301   0.66136   0.00000  Uiso   1.00
N775   N     0.16835   0.04287   0.84194   0.00000  Uiso   1.00
H776   H     0.18720   0.02704   0.86332   0.00000  Uiso   1.00
C777   C     0.12229   0.05856   0.87416   0.00000  Uiso   1.00
H778   H     0.09648   0.03249   0.88886   0.00000  Uiso   1.00
H779   H     0.10628   0.08062   0.85209   0.00000  Uiso   1.00
H780   H     0.12813   0.07550   0.90774   0.00000  Uiso   1.00
F781   F     0.16069   0.28962   0.84032   0.00000  Uiso   1.00
F782   F     0.30185   0.21881   0.68648   0.00000  Uiso   1.00
N783   N     0.06456   0.22505   0.69033   0.00000  Uiso   1.00
H784   H     0.06870   0.22217   0.65120   0.00000  Uiso   1.00
C785   C     0.05259   0.26736   0.70785   0.00000  Uiso   1.00
H786   H     0.01684   0.27679   0.70339   0.00000  Uiso   1.00
H787   H     0.08041   0.28890   0.68412   0.00000  Uiso   1.00
H788   H     0.05153   0.27066   0.74920   0.00000  Uiso   1.00
N789   N     0.03202   0.10884   0.81020   0.00000  Uiso   1.00
H790   H     0.01641   0.11315   0.84942   0.00000  Uiso   1.00
C791   C     0.02810   0.06610   0.79504   0.00000  Uiso   1.00
H792   H     0.32261   0.05674   0.80353   0.00000  Uiso   1.00
H793   H     0.04573   0.04533   0.81711   0.00000  Uiso   1.00
H794   H     0.04671   0.06194   0.75299   0.00000  Uiso   1.00
F795   F     0.29419   0.16806   0.90762   0.00000  Uiso   1.00
F796   F     0.30673   0.12679   0.98445   0.00000  Uiso   1.00
N797   N     0.07416   0.16481   0.56728   0.00000  Uiso   1.00
H798   H     0.04187   0.17934   0.58618   0.00000  Uiso   1.00
C799   C     0.07172   0.12035   0.57565   0.00000  Uiso   1.00
H800   H     0.05770   0.11375   0.61787   0.00000  Uiso   1.00
H801   H     0.10842   0.10619   0.56084   0.00000  Uiso   1.00
H802   H     0.04682   0.10599   0.55574   0.00000  Uiso   1.00
F803   F     0.01491   0.19453   0.51028   0.00000  Uiso   1.00
N804   N     0.23107   0.21556   0.87014   0.00000  Uiso   1.00
H805   H     0.26357   0.20722   0.84381   0.00000  Uiso   1.00
C806   C     0.23360   0.25726   0.88912   0.00000  Uiso   1.00
H807   H     0.24587   0.27903   0.85580   0.00000  Uiso   1.00
H808   H     0.26014   0.25865   0.91202   0.00000  Uiso   1.00
H809   H     0.19724   0.26729   0.91390   0.00000  Uiso   1.00
F810   F     0.17236   0.29153   0.65970   0.00000  Uiso   1.00
C811   C     0.50009   0.24583   0.74977   0.00000  Uiso   1.00
C812   C     0.47926   0.17566   0.98907   0.00000  Uiso   1.00
C813   C     0.49564   0.18105   0.93436   0.00000  Uiso   1.00
C814   C     0.51525   0.16855   0.51517   0.00000  Uiso   1.00
C815   C     0.56344   0.15799   0.98619   0.00000  Uiso   1.00
C816   C     0.57924   0.16798   0.93359   0.00000  Uiso   1.00
C817   C     0.54648   0.18577   0.91041   0.00000  Uiso   1.00
C818   C     0.50616   0.17421   0.56848   0.00000  Uiso   1.00
C819   C     0.58440   0.14452   0.56558   0.00000  Uiso   1.00
C820   C     0.46090   0.18096   0.90572   0.00000  Uiso   1.00
C821   C     0.50194   0.31211   0.70466   0.00000  Uiso   1.00
C822   C     0.47456   0.17165   0.84942   0.00000  Uiso   1.00
C823   C     0.50062   0.02182   0.70539   0.00000  Uiso   1.00
C824   C     0.49958   0.04295   0.75103   0.00000  Uiso   1.00
C825   C     0.49920   0.02133   0.79659   0.00000  Uiso   1.00
C826   C     0.49825   0.31134   0.79603   0.00000  Uiso   1.00
C827   C     0.50004   0.29042   0.75014   0.00000  Uiso   1.00
C828   C     0.65009   0.19324   0.71890   0.00000  Uiso   1.00
C829   C     0.36597   0.19458   0.72023   0.00000  Uiso   1.00
C830   C     0.34978   0.13869   0.77963   0.00000  Uiso   1.00
C831   C     0.63333   0.13962   0.78041   0.00000  Uiso   1.00
C832   C     0.49990   0.08754   0.75027   0.00000  Uiso   1.00
C833   C     0.52588   0.16547   0.65029   0.00000  Uiso   1.00
C834   C     0.59637   0.14288   0.51165   0.00000  Uiso   1.00
C835   C     0.53997   0.16206   0.59388   0.00000  Uiso   1.00
C836   C     0.41177   0.18729   0.93213   0.00000  Uiso   1.00
C837   C     0.39596   0.18744   0.98591   0.00000  Uiso   1.00
C838   C     0.42797   0.17703   0.51453   0.00000  Uiso   1.00
Cu839  Cu    0.45311   0.16666   0.75000   0.00000  Uiso   1.00
Cu840  Cu    0.54689   0.16667   0.75000   0.00000  Uiso   1.00
H841   H     0.60755   0.11833   0.80514   0.00000  Uiso   1.00
H842   H     0.47394   0.19029   0.59058   0.00000  Uiso   1.00
H843   H     0.38508   0.19088   0.91112   0.00000  Uiso   1.00
N844   N     0.38265   0.16666   0.74998   0.00000  Uiso   1.00
N845   N     0.61735   0.16669   0.75000   0.00000  Uiso   1.00
O846   O     0.46042   0.22678   0.75000   0.00000  Uiso   1.00
O847   O     0.53961   0.22679   0.75000   0.00000  Uiso   1.00
O848   O     0.44108   0.16665   0.82549   0.00000  Uiso   1.00
O849   O     0.52027   0.16666   0.82549   0.00000  Uiso   1.00
O850   O     0.46039   0.10654   0.74999   0.00000  Uiso   1.00
O851   O     0.53958   0.10655   0.75000   0.00000  Uiso   1.00
O852   O     0.47973   0.16667   0.67451   0.00000  Uiso   1.00
O853   O     0.55892   0.16668   0.67451   0.00000  Uiso   1.00
F854   F     0.61645   0.12989   0.58979   0.00000  Uiso   1.00
F855   F     0.50187   0.04301   0.66136   0.00000  Uiso   1.00
N856   N     0.50168   0.04287   0.84194   0.00000  Uiso   1.00
H857   H     0.52053   0.02704   0.86332   0.00000  Uiso   1.00
C858   C     0.45562   0.05856   0.87416   0.00000  Uiso   1.00
H859   H     0.42981   0.03249   0.88886   0.00000  Uiso   1.00
H860   H     0.43962   0.08062   0.85209   0.00000  Uiso   1.00
H861   H     0.46146   0.07550   0.90774   0.00000  Uiso   1.00
F862   F     0.49403   0.28962   0.84032   0.00000  Uiso   1.00
F863   F     0.63518   0.21881   0.68648   0.00000  Uiso   1.00
N864   N     0.39789   0.22505   0.69033   0.00000  Uiso   1.00
H865   H     0.40204   0.22217   0.65120   0.00000  Uiso   1.00
C866   C     0.38592   0.26736   0.70785   0.00000  Uiso   1.00
H867   H     0.35017   0.27679   0.70339   0.00000  Uiso   1.00
H868   H     0.41374   0.28890   0.68412   0.00000  Uiso   1.00
H869   H     0.38487   0.27066   0.74920   0.00000  Uiso   1.00
N870   N     0.36536   0.10884   0.81020   0.00000  Uiso   1.00
H871   H     0.34975   0.11315   0.84942   0.00000  Uiso   1.00
C872   C     0.36143   0.06610   0.79504   0.00000  Uiso   1.00
H873   H     0.65594   0.05674   0.80353   0.00000  Uiso   1.00
H874   H     0.37906   0.04533   0.81711   0.00000  Uiso   1.00
H875   H     0.38004   0.06194   0.75299   0.00000  Uiso   1.00
F876   F     0.62753   0.16806   0.90762   0.00000  Uiso   1.00
F877   F     0.64006   0.12679   0.98445   0.00000  Uiso   1.00
N878   N     0.40750   0.16481   0.56728   0.00000  Uiso   1.00
H879   H     0.37520   0.17934   0.58618   0.00000  Uiso   1.00
C880   C     0.40505   0.12035   0.57565   0.00000  Uiso   1.00
H881   H     0.39103   0.11375   0.61787   0.00000  Uiso   1.00
H882   H     0.44175   0.10619   0.56084   0.00000  Uiso   1.00
H883   H     0.38015   0.10599   0.55574   0.00000  Uiso   1.00
F884   F     0.34825   0.19453   0.51028   0.00000  Uiso   1.00
N885   N     0.56440   0.21556   0.87014   0.00000  Uiso   1.00
H886   H     0.59690   0.20722   0.84381   0.00000  Uiso   1.00
C887   C     0.56693   0.25726   0.88912   0.00000  Uiso   1.00
H888   H     0.57920   0.27903   0.85580   0.00000  Uiso   1.00
H889   H     0.59347   0.25865   0.91202   0.00000  Uiso   1.00
H890   H     0.53058   0.26729   0.91390   0.00000  Uiso   1.00
F891   F     0.50569   0.29153   0.65970   0.00000  Uiso   1.00
C892   C     0.83343   0.24583   0.74977   0.00000  Uiso   1.00
C893   C     0.81259   0.17566   0.98907   0.00000  Uiso   1.00
C894   C     0.82897   0.18105   0.93436   0.00000  Uiso   1.00
C895   C     0.84859   0.16855   0.51517   0.00000  Uiso   1.00
C896   C     0.89678   0.15799   0.98619   0.00000  Uiso   1.00
C897   C     0.91258   0.16798   0.93359   0.00000  Uiso   1.00
C898   C     0.87981   0.18577   0.91041   0.00000  Uiso   1.00
C899   C     0.83949   0.17421   0.56848   0.00000  Uiso   1.00
C900   C     0.91773   0.14452   0.56558   0.00000  Uiso   1.00
C901   C     0.79423   0.18096   0.90572   0.00000  Uiso   1.00
C902   C     0.83527   0.31211   0.70466   0.00000  Uiso   1.00
C903   C     0.80789   0.17165   0.84942   0.00000  Uiso   1.00
C904   C     0.83395   0.02182   0.70539   0.00000  Uiso   1.00
C905   C     0.83291   0.04295   0.75103   0.00000  Uiso   1.00
C906   C     0.83254   0.02133   0.79659   0.00000  Uiso   1.00
C907   C     0.83158   0.31134   0.79603   0.00000  Uiso   1.00
C908   C     0.83337   0.29042   0.75014   0.00000  Uiso   1.00
C909   C     0.98342   0.19324   0.71890   0.00000  Uiso   1.00
C910   C     0.69931   0.19458   0.72023   0.00000  Uiso   1.00
C911   C     0.68311   0.13869   0.77963   0.00000  Uiso   1.00
C912   C     0.96666   0.13962   0.78041   0.00000  Uiso   1.00
C913   C     0.83323   0.08754   0.75027   0.00000  Uiso   1.00
C914   C     0.85921   0.16547   0.65029   0.00000  Uiso   1.00
C915   C     0.92971   0.14288   0.51165   0.00000  Uiso   1.00
C916   C     0.87331   0.16206   0.59388   0.00000  Uiso   1.00
C917   C     0.74511   0.18729   0.93213   0.00000  Uiso   1.00
C918   C     0.72930   0.18744   0.98591   0.00000  Uiso   1.00
C919   C     0.76130   0.17703   0.51453   0.00000  Uiso   1.00
Cu920  Cu    0.78645   0.16666   0.75000   0.00000  Uiso   1.00
Cu921  Cu    0.88022   0.16667   0.75000   0.00000  Uiso   1.00
H922   H     0.94088   0.11833   0.80514   0.00000  Uiso   1.00
H923   H     0.80727   0.19029   0.59058   0.00000  Uiso   1.00
H924   H     0.71842   0.19088   0.91112   0.00000  Uiso   1.00
N925   N     0.71598   0.16666   0.74998   0.00000  Uiso   1.00
N926   N     0.95069   0.16669   0.75000   0.00000  Uiso   1.00
O927   O     0.79375   0.22678   0.75000   0.00000  Uiso   1.00
O928   O     0.87294   0.22679   0.75000   0.00000  Uiso   1.00
O929   O     0.77441   0.16665   0.82549   0.00000  Uiso   1.00
O930   O     0.85360   0.16666   0.82549   0.00000  Uiso   1.00
O931   O     0.79373   0.10654   0.74999   0.00000  Uiso   1.00
O932   O     0.87292   0.10655   0.75000   0.00000  Uiso   1.00
O933   O     0.81306   0.16667   0.67451   0.00000  Uiso   1.00
O934   O     0.89225   0.16668   0.67451   0.00000  Uiso   1.00
F935   F     0.94978   0.12989   0.58979   0.00000  Uiso   1.00
F936   F     0.83520   0.04301   0.66136   0.00000  Uiso   1.00
N937   N     0.83502   0.04287   0.84194   0.00000  Uiso   1.00
H938   H     0.85387   0.02704   0.86332   0.00000  Uiso   1.00
C939   C     0.78896   0.05856   0.87416   0.00000  Uiso   1.00
H940   H     0.76315   0.03249   0.88886   0.00000  Uiso   1.00
H941   H     0.77295   0.08062   0.85209   0.00000  Uiso   1.00
H942   H     0.79480   0.07550   0.90774   0.00000  Uiso   1.00
F943   F     0.82736   0.28962   0.84032   0.00000  Uiso   1.00
F944   F     0.96851   0.21881   0.68648   0.00000  Uiso   1.00
N945   N     0.73123   0.22505   0.69033   0.00000  Uiso   1.00
H946   H     0.73537   0.22217   0.65120   0.00000  Uiso   1.00
C947   C     0.71925   0.26736   0.70785   0.00000  Uiso   1.00
H948   H     0.68351   0.27679   0.70339   0.00000  Uiso   1.00
H949   H     0.74707   0.28890   0.68412   0.00000  Uiso   1.00
H950   H     0.71820   0.27066   0.74920   0.00000  Uiso   1.00
N951   N     0.69869   0.10884   0.81020   0.00000  Uiso   1.00
H952   H     0.68308   0.11315   0.84942   0.00000  Uiso   1.00
C953   C     0.69476   0.06610   0.79504   0.00000  Uiso   1.00
H954   H     0.98927   0.05674   0.80353   0.00000  Uiso   1.00
H955   H     0.71239   0.04533   0.81711   0.00000  Uiso   1.00
H956   H     0.71338   0.06194   0.75299   0.00000  Uiso   1.00
F957   F     0.96086   0.16806   0.90762   0.00000  Uiso   1.00
F958   F     0.97339   0.12679   0.98445   0.00000  Uiso   1.00
N959   N     0.74083   0.16481   0.56728   0.00000  Uiso   1.00
H960   H     0.70854   0.17934   0.58618   0.00000  Uiso   1.00
C961   C     0.73838   0.12035   0.57565   0.00000  Uiso   1.00
H962   H     0.72436   0.11375   0.61787   0.00000  Uiso   1.00
H963   H     0.77509   0.10619   0.56084   0.00000  Uiso   1.00
H964   H     0.71348   0.10599   0.55574   0.00000  Uiso   1.00
F965   F     0.68158   0.19453   0.51028   0.00000  Uiso   1.00
N966   N     0.89773   0.21556   0.87014   0.00000  Uiso   1.00
H967   H     0.93024   0.20722   0.84381   0.00000  Uiso   1.00
C968   C     0.90027   0.25726   0.88912   0.00000  Uiso   1.00
H969   H     0.91253   0.27903   0.85580   0.00000  Uiso   1.00
H970   H     0.92680   0.25865   0.91202   0.00000  Uiso   1.00
H971   H     0.86391   0.26729   0.91390   0.00000  Uiso   1.00
F972   F     0.83903   0.29153   0.65970   0.00000  Uiso   1.00
C973   C     0.16676   0.57917   0.74977   0.00000  Uiso   1.00
C974   C     0.14592   0.50899   0.98907   0.00000  Uiso   1.00
C975   C     0.16231   0.51438   0.93436   0.00000  Uiso   1.00
C976   C     0.18192   0.50188   0.51517   0.00000  Uiso   1.00
C977   C     0.23011   0.49132   0.98619   0.00000  Uiso   1.00
C978   C     0.24591   0.50131   0.93359   0.00000  Uiso   1.00
C979   C     0.21314   0.51910   0.91041   0.00000  Uiso   1.00
C980   C     0.17283   0.50755   0.56848   0.00000  Uiso   1.00
C981   C     0.25106   0.47785   0.56558   0.00000  Uiso   1.00
C982   C     0.12757   0.51429   0.90572   0.00000  Uiso   1.00
C983   C     0.16860   0.64544   0.70466   0.00000  Uiso   1.00
C984   C     0.14122   0.50499   0.84942   0.00000  Uiso   1.00
C985   C     0.16729   0.35515   0.70539   0.00000  Uiso   1.00
C986   C     0.16624   0.37628   0.75103   0.00000  Uiso   1.00
C987   C     0.16587   0.35466   0.79659   0.00000  Uiso   1.00
C988   C     0.16491   0.64467   0.79603   0.00000  Uiso   1.00
C989   C     0.16670   0.62376   0.75014   0.00000  Uiso   1.00
C990   C     0.31676   0.52658   0.71890   0.00000  Uiso   1.00
C991   C     0.03264   0.52791   0.72023   0.00000  Uiso   1.00
C992   C     0.01645   0.47203   0.77963   0.00000  Uiso   1.00
C993   C     0.29999   0.47296   0.78041   0.00000  Uiso   1.00
C994   C     0.16657   0.42087   0.75027   0.00000  Uiso   1.00
C995   C     0.19254   0.49881   0.65029   0.00000  Uiso   1.00
C996   C     0.26304   0.47621   0.51165   0.00000  Uiso   1.00
C997   C     0.20664   0.49540   0.59388   0.00000  Uiso   1.00
C998   C     0.07844   0.52062   0.93213   0.00000  Uiso   1.00
C999   C     0.06263   0.52077   0.98591   0.00000  Uiso   1.00
C1000  C     0.09464   0.51036   0.51453   0.00000  Uiso   1.00
Cu1001 Cu    0.11978   0.49999   0.75000   0.00000  Uiso   1.00
Cu1002 Cu    0.21355   0.50001   0.75000   0.00000  Uiso   1.00
H1003  H     0.27421   0.45166   0.80514   0.00000  Uiso   1.00
H1004  H     0.14060   0.52362   0.59058   0.00000  Uiso   1.00
H1005  H     0.05175   0.52421   0.91112   0.00000  Uiso   1.00
N1006  N     0.04931   0.49999   0.74998   0.00000  Uiso   1.00
N1007  N     0.28402   0.50002   0.75000   0.00000  Uiso   1.00
O1008  O     0.12708   0.56011   0.75000   0.00000  Uiso   1.00
O1009  O     0.20627   0.56012   0.75000   0.00000  Uiso   1.00
O1010  O     0.10775   0.49998   0.82549   0.00000  Uiso   1.00
O1011  O     0.18694   0.49999   0.82549   0.00000  Uiso   1.00
O1012  O     0.12706   0.43988   0.74999   0.00000  Uiso   1.00
O1013  O     0.20625   0.43989   0.75000   0.00000  Uiso   1.00
O1014  O     0.14640   0.50001   0.67451   0.00000  Uiso   1.00
O1015  O     0.22559   0.50002   0.67451   0.00000  Uiso   1.00
F1016  F     0.28312   0.46322   0.58979   0.00000  Uiso   1.00
F1017  F     0.16853   0.37634   0.66136   0.00000  Uiso   1.00
N1018  N     0.16835   0.37621   0.84194   0.00000  Uiso   1.00
H1019  H     0.18720   0.36038   0.86332   0.00000  Uiso   1.00
C1020  C     0.12229   0.39189   0.87416   0.00000  Uiso   1.00
H1021  H     0.09648   0.36583   0.88886   0.00000  Uiso   1.00
H1022  H     0.10628   0.41396   0.85209   0.00000  Uiso   1.00
H1023  H     0.12813   0.40883   0.90774   0.00000  Uiso   1.00
F1024  F     0.16069   0.62295   0.84032   0.00000  Uiso   1.00
F1025  F     0.30185   0.55215   0.68648   0.00000  Uiso   1.00
N1026  N     0.06456   0.55839   0.69033   0.00000  Uiso   1.00
H1027  H     0.06870   0.55550   0.65120   0.00000  Uiso   1.00
C1028  C     0.05259   0.60070   0.70785   0.00000  Uiso   1.00
H1029  H     0.01684   0.61013   0.70339   0.00000  Uiso   1.00
H1030  H     0.08041   0.62224   0.68412   0.00000  Uiso   1.00
H1031  H     0.05153   0.60399   0.74920   0.00000  Uiso   1.00
N1032  N     0.03202   0.44218   0.81020   0.00000  Uiso   1.00
H1033  H     0.01641   0.44648   0.84942   0.00000  Uiso   1.00
C1034  C     0.02810   0.39944   0.79504   0.00000  Uiso   1.00
H1035  H     0.32261   0.39008   0.80353   0.00000  Uiso   1.00
H1036  H     0.04573   0.37866   0.81711   0.00000  Uiso   1.00
H1037  H     0.04671   0.39527   0.75299   0.00000  Uiso   1.00
F1038  F     0.29419   0.50139   0.90762   0.00000  Uiso   1.00
F1039  F     0.30673   0.46012   0.98445   0.00000  Uiso   1.00
N1040  N     0.07416   0.49815   0.56728   0.00000  Uiso   1.00
H1041  H     0.04187   0.51267   0.58618   0.00000  Uiso   1.00
C1042  C     0.07172   0.45368   0.57565   0.00000  Uiso   1.00
H1043  H     0.05770   0.44709   0.61787   0.00000  Uiso   1.00
H1044  H     0.10842   0.43952   0.56084   0.00000  Uiso   1.00
H1045  H     0.04682   0.43932   0.55574   0.00000  Uiso   1.00
F1046  F     0.01491   0.52786   0.51028   0.00000  Uiso   1.00
N1047  N     0.23107   0.54889   0.87014   0.00000  Uiso   1.00
H1048  H     0.26357   0.54056   0.84381   0.00000  Uiso   1.00
C1049  C     0.23360   0.59059   0.88912   0.00000  Uiso   1.00
H1050  H     0.24587   0.61236   0.85580   0.00000  Uiso   1.00
H1051  H     0.26014   0.59198   0.91202   0.00000  Uiso   1.00
H1052  H     0.19724   0.60063   0.91390   0.00000  Uiso   1.00
F1053  F     0.17236   0.62486   0.65970   0.00000  Uiso   1.00
C1054  C     0.50009   0.57917   0.74977   0.00000  Uiso   1.00
C1055  C     0.47926   0.50899   0.98907   0.00000  Uiso   1.00
C1056  C     0.49564   0.51438   0.93436   0.00000  Uiso   1.00
C1057  C     0.51525   0.50188   0.51517   0.00000  Uiso   1.00
C1058  C     0.56344   0.49132   0.98619   0.00000  Uiso   1.00
C1059  C     0.57924   0.50131   0.93359   0.00000  Uiso   1.00
C1060  C     0.54648   0.51910   0.91041   0.00000  Uiso   1.00
C1061  C     0.50616   0.50755   0.56848   0.00000  Uiso   1.00
C1062  C     0.58440   0.47785   0.56558   0.00000  Uiso   1.00
C1063  C     0.46090   0.51429   0.90572   0.00000  Uiso   1.00
C1064  C     0.50194   0.64544   0.70466   0.00000  Uiso   1.00
C1065  C     0.47456   0.50499   0.84942   0.00000  Uiso   1.00
C1066  C     0.50062   0.35515   0.70539   0.00000  Uiso   1.00
C1067  C     0.49958   0.37628   0.75103   0.00000  Uiso   1.00
C1068  C     0.49920   0.35466   0.79659   0.00000  Uiso   1.00
C1069  C     0.49825   0.64467   0.79603   0.00000  Uiso   1.00
C1070  C     0.50004   0.62376   0.75014   0.00000  Uiso   1.00
C1071  C     0.65009   0.52658   0.71890   0.00000  Uiso   1.00
C1072  C     0.36597   0.52791   0.72023   0.00000  Uiso   1.00
C1073  C     0.34978   0.47203   0.77963   0.00000  Uiso   1.00
C1074  C     0.63333   0.47296   0.78041   0.00000  Uiso   1.00
C1075  C     0.49990   0.42087   0.75027   0.00000  Uiso   1.00
C1076  C     0.52588   0.49881   0.65029   0.00000  Uiso   1.00
C1077  C     0.59637   0.47621   0.51165   0.00000  Uiso   1.00
C1078  C     0.53997   0.49540   0.59388   0.00000  Uiso   1.00
C1079  C     0.41177   0.52062   0.93213   0.00000  Uiso   1.00
C1080  C     0.39596   0.52077   0.98591   0.00000  Uiso   1.00
C1081  C     0.42797   0.51036   0.51453   0.00000  Uiso   1.00
Cu1082 Cu    0.45311   0.49999   0.75000   0.00000  Uiso   1.00
Cu1083 Cu    0.54689   0.50001   0.75000   0.00000  Uiso   1.00
H1084  H     0.60755   0.45166   0.80514   0.00000  Uiso   1.00
H1085  H     0.47394   0.52362   0.59058   0.00000  Uiso   1.00
H1086  H     0.38508   0.52421   0.91112   0.00000  Uiso   1.00
N1087  N     0.38265   0.49999   0.74998   0.00000  Uiso   1.00
N1088  N     0.61735   0.50002   0.75000   0.00000  Uiso   1.00
O1089  O     0.46042   0.56011   0.75000   0.00000  Uiso   1.00
O1090  O     0.53961   0.56012   0.75000   0.00000  Uiso   1.00
O1091  O     0.44108   0.49998   0.82549   0.00000  Uiso   1.00
O1092  O     0.52027   0.49999   0.82549   0.00000  Uiso   1.00
O1093  O     0.46039   0.43988   0.74999   0.00000  Uiso   1.00
O1094  O     0.53958   0.43989   0.75000   0.00000  Uiso   1.00
O1095  O     0.47973   0.50001   0.67451   0.00000  Uiso   1.00
O1096  O     0.55892   0.50002   0.67451   0.00000  Uiso   1.00
F1097  F     0.61645   0.46322   0.58979   0.00000  Uiso   1.00
F1098  F     0.50187   0.37634   0.66136   0.00000  Uiso   1.00
N1099  N     0.50168   0.37621   0.84194   0.00000  Uiso   1.00
H1100  H     0.52053   0.36038   0.86332   0.00000  Uiso   1.00
C1101  C     0.45562   0.39189   0.87416   0.00000  Uiso   1.00
H1102  H     0.42981   0.36583   0.88886   0.00000  Uiso   1.00
H1103  H     0.43962   0.41396   0.85209   0.00000  Uiso   1.00
H1104  H     0.46146   0.40883   0.90774   0.00000  Uiso   1.00
F1105  F     0.49403   0.62295   0.84032   0.00000  Uiso   1.00
F1106  F     0.63518   0.55215   0.68648   0.00000  Uiso   1.00
N1107  N     0.39789   0.55839   0.69033   0.00000  Uiso   1.00
H1108  H     0.40204   0.55550   0.65120   0.00000  Uiso   1.00
C1109  C     0.38592   0.60070   0.70785   0.00000  Uiso   1.00
H1110  H     0.35017   0.61013   0.70339   0.00000  Uiso   1.00
H1111  H     0.41374   0.62224   0.68412   0.00000  Uiso   1.00
H1112  H     0.38487   0.60399   0.74920   0.00000  Uiso   1.00
N1113  N     0.36536   0.44218   0.81020   0.00000  Uiso   1.00
H1114  H     0.34975   0.44648   0.84942   0.00000  Uiso   1.00
C1115  C     0.36143   0.39944   0.79504   0.00000  Uiso   1.00
H1116  H     0.65594   0.39008   0.80353   0.00000  Uiso   1.00
H1117  H     0.37906   0.37866   0.81711   0.00000  Uiso   1.00
H1118  H     0.38004   0.39527   0.75299   0.00000  Uiso   1.00
F1119  F     0.62753   0.50139   0.90762   0.00000  Uiso   1.00
F1120  F     0.64006   0.46012   0.98445   0.00000  Uiso   1.00
N1121  N     0.40750   0.49815   0.56728   0.00000  Uiso   1.00
H1122  H     0.37520   0.51267   0.58618   0.00000  Uiso   1.00
C1123  C     0.40505   0.45368   0.57565   0.00000  Uiso   1.00
H1124  H     0.39103   0.44709   0.61787   0.00000  Uiso   1.00
H1125  H     0.44175   0.43952   0.56084   0.00000  Uiso   1.00
H1126  H     0.38015   0.43932   0.55574   0.00000  Uiso   1.00
F1127  F     0.34825   0.52786   0.51028   0.00000  Uiso   1.00
N1128  N     0.56440   0.54889   0.87014   0.00000  Uiso   1.00
H1129  H     0.59690   0.54056   0.84381   0.00000  Uiso   1.00
C1130  C     0.56693   0.59059   0.88912   0.00000  Uiso   1.00
H1131  H     0.57920   0.61236   0.85580   0.00000  Uiso   1.00
H1132  H     0.59347   0.59198   0.91202   0.00000  Uiso   1.00
H1133  H     0.53058   0.60063   0.91390   0.00000  Uiso   1.00
F1134  F     0.50569   0.62486   0.65970   0.00000  Uiso   1.00
C1135  C     0.83343   0.57917   0.74977   0.00000  Uiso   1.00
C1136  C     0.81259   0.50899   0.98907   0.00000  Uiso   1.00
C1137  C     0.82897   0.51438   0.93436   0.00000  Uiso   1.00
C1138  C     0.84859   0.50188   0.51517   0.00000  Uiso   1.00
C1139  C     0.89678   0.49132   0.98619   0.00000  Uiso   1.00
C1140  C     0.91258   0.50131   0.93359   0.00000  Uiso   1.00
C1141  C     0.87981   0.51910   0.91041   0.00000  Uiso   1.00
C1142  C     0.83949   0.50755   0.56848   0.00000  Uiso   1.00
C1143  C     0.91773   0.47785   0.56558   0.00000  Uiso   1.00
C1144  C     0.79423   0.51429   0.90572   0.00000  Uiso   1.00
C1145  C     0.83527   0.64544   0.70466   0.00000  Uiso   1.00
C1146  C     0.80789   0.50499   0.84942   0.00000  Uiso   1.00
C1147  C     0.83395   0.35515   0.70539   0.00000  Uiso   1.00
C1148  C     0.83291   0.37628   0.75103   0.00000  Uiso   1.00
C1149  C     0.83254   0.35466   0.79659   0.00000  Uiso   1.00
C1150  C     0.83158   0.64467   0.79603   0.00000  Uiso   1.00
C1151  C     0.83337   0.62376   0.75014   0.00000  Uiso   1.00
C1152  C     0.98342   0.52658   0.71890   0.00000  Uiso   1.00
C1153  C     0.69931   0.52791   0.72023   0.00000  Uiso   1.00
C1154  C     0.68311   0.47203   0.77963   0.00000  Uiso   1.00
C1155  C     0.96666   0.47296   0.78041   0.00000  Uiso   1.00
C1156  C     0.83323   0.42087   0.75027   0.00000  Uiso   1.00
C1157  C     0.85921   0.49881   0.65029   0.00000  Uiso   1.00
C1158  C     0.92971   0.47621   0.51165   0.00000  Uiso   1.00
C1159  C     0.87331   0.49540   0.59388   0.00000  Uiso   1.00
C1160  C     0.74511   0.52062   0.93213   0.00000  Uiso   1.00
C1161  C     0.72930   0.52077   0.98591   0.00000  Uiso   1.00
C1162  C     0.76130   0.51036   0.51453   0.00000  Uiso   1.00
Cu1163 Cu    0.78645   0.49999   0.75000   0.00000  Uiso   1.00
Cu1164 Cu    0.88022   0.50001   0.75000   0.00000  Uiso   1.00
H1165  H     0.94088   0.45166   0.80514   0.00000  Uiso   1.00
H1166  H     0.80727   0.52362   0.59058   0.00000  Uiso   1.00
H1167  H     0.71842   0.52421   0.91112   0.00000  Uiso   1.00
N1168  N     0.71598   0.49999   0.74998   0.00000  Uiso   1.00
N1169  N     0.95069   0.50002   0.75000   0.00000  Uiso   1.00
O1170  O     0.79375   0.56011   0.75000   0.00000  Uiso   1.00
O1171  O     0.87294   0.56012   0.75000   0.00000  Uiso   1.00
O1172  O     0.77441   0.49998   0.82549   0.00000  Uiso   1.00
O1173  O     0.85360   0.49999   0.82549   0.00000  Uiso   1.00
O1174  O     0.79373   0.43988   0.74999   0.00000  Uiso   1.00
O1175  O     0.87292   0.43989   0.75000   0.00000  Uiso   1.00
O1176  O     0.81306   0.50001   0.67451   0.00000  Uiso   1.00
O1177  O     0.89225   0.50002   0.67451   0.00000  Uiso   1.00
F1178  F     0.94978   0.46322   0.58979   0.00000  Uiso   1.00
F1179  F     0.83520   0.37634   0.66136   0.00000  Uiso   1.00
N1180  N     0.83502   0.37621   0.84194   0.00000  Uiso   1.00
H1181  H     0.85387   0.36038   0.86332   0.00000  Uiso   1.00
C1182  C     0.78896   0.39189   0.87416   0.00000  Uiso   1.00
H1183  H     0.76315   0.36583   0.88886   0.00000  Uiso   1.00
H1184  H     0.77295   0.41396   0.85209   0.00000  Uiso   1.00
H1185  H     0.79480   0.40883   0.90774   0.00000  Uiso   1.00
F1186  F     0.82736   0.62295   0.84032   0.00000  Uiso   1.00
F1187  F     0.96851   0.55215   0.68648   0.00000  Uiso   1.00
N1188  N     0.73123   0.55839   0.69033   0.00000  Uiso   1.00
H1189  H     0.73537   0.55550   0.65120   0.00000  Uiso   1.00
C1190  C     0.71925   0.60070   0.70785   0.00000  Uiso   1.00
H1191  H     0.68351   0.61013   0.70339   0.00000  Uiso   1.00
H1192  H     0.74707   0.62224   0.68412   0.00000  Uiso   1.00
H1193  H     0.71820   0.60399   0.74920   0.00000  Uiso   1.00
N1194  N     0.69869   0.44218   0.81020   0.00000  Uiso   1.00
H1195  H     0.68308   0.44648   0.84942   0.00000  Uiso   1.00
C1196  C     0.69476   0.39944   0.79504   0.00000  Uiso   1.00
H1197  H     0.98927   0.39008   0.80353   0.00000  Uiso   1.00
H1198  H     0.71239   0.37866   0.81711   0.00000  Uiso   1.00
H1199  H     0.71338   0.39527   0.75299   0.00000  Uiso   1.00
F1200  F     0.96086   0.50139   0.90762   0.00000  Uiso   1.00
F1201  F     0.97339   0.46012   0.98445   0.00000  Uiso   1.00
N1202  N     0.74083   0.49815   0.56728   0.00000  Uiso   1.00
H1203  H     0.70854   0.51267   0.58618   0.00000  Uiso   1.00
C1204  C     0.73838   0.45368   0.57565   0.00000  Uiso   1.00
H1205  H     0.72436   0.44709   0.61787   0.00000  Uiso   1.00
H1206  H     0.77509   0.43952   0.56084   0.00000  Uiso   1.00
H1207  H     0.71348   0.43932   0.55574   0.00000  Uiso   1.00
F1208  F     0.68158   0.52786   0.51028   0.00000  Uiso   1.00
N1209  N     0.89773   0.54889   0.87014   0.00000  Uiso   1.00
H1210  H     0.93024   0.54056   0.84381   0.00000  Uiso   1.00
C1211  C     0.90027   0.59059   0.88912   0.00000  Uiso   1.00
H1212  H     0.91253   0.61236   0.85580   0.00000  Uiso   1.00
H1213  H     0.92680   0.59198   0.91202   0.00000  Uiso   1.00
H1214  H     0.86391   0.60063   0.91390   0.00000  Uiso   1.00
F1215  F     0.83903   0.62486   0.65970   0.00000  Uiso   1.00
C1216  C     0.16676   0.91250   0.74977   0.00000  Uiso   1.00
C1217  C     0.14592   0.84233   0.98907   0.00000  Uiso   1.00
C1218  C     0.16231   0.84772   0.93436   0.00000  Uiso   1.00
C1219  C     0.18192   0.83521   0.51517   0.00000  Uiso   1.00
C1220  C     0.23011   0.82466   0.98619   0.00000  Uiso   1.00
C1221  C     0.24591   0.83464   0.93359   0.00000  Uiso   1.00
C1222  C     0.21314   0.85243   0.91041   0.00000  Uiso   1.00
C1223  C     0.17283   0.84088   0.56848   0.00000  Uiso   1.00
C1224  C     0.25106   0.81118   0.56558   0.00000  Uiso   1.00
C1225  C     0.12757   0.84762   0.90572   0.00000  Uiso   1.00
C1226  C     0.16860   0.97878   0.70466   0.00000  Uiso   1.00
C1227  C     0.14122   0.83832   0.84942   0.00000  Uiso   1.00
C1228  C     0.16729   0.68848   0.70539   0.00000  Uiso   1.00
C1229  C     0.16624   0.70962   0.75103   0.00000  Uiso   1.00
C1230  C     0.16587   0.68800   0.79659   0.00000  Uiso   1.00
C1231  C     0.16491   0.97801   0.79603   0.00000  Uiso   1.00
C1232  C     0.16670   0.95709   0.75014   0.00000  Uiso   1.00
C1233  C     0.31676   0.85991   0.71890   0.00000  Uiso   1.00
C1234  C     0.03264   0.86124   0.72023   0.00000  Uiso   1.00
C1235  C     0.01645   0.80536   0.77963   0.00000  Uiso   1.00
C1236  C     0.29999   0.80629   0.78041   0.00000  Uiso   1.00
C1237  C     0.16657   0.75420   0.75027   0.00000  Uiso   1.00
C1238  C     0.19254   0.83214   0.65029   0.00000  Uiso   1.00
C1239  C     0.26304   0.80954   0.51165   0.00000  Uiso   1.00
C1240  C     0.20664   0.82873   0.59388   0.00000  Uiso   1.00
C1241  C     0.07844   0.85395   0.93213   0.00000  Uiso   1.00
C1242  C     0.06263   0.85410   0.98591   0.00000  Uiso   1.00
C1243  C     0.09464   0.84369   0.51453   0.00000  Uiso   1.00
Cu1244 Cu    0.11978   0.83333   0.75000   0.00000  Uiso   1.00
Cu1245 Cu    0.21355   0.83334   0.75000   0.00000  Uiso   1.00
H1246  H     0.27421   0.78499   0.80514   0.00000  Uiso   1.00
H1247  H     0.14060   0.85695   0.59058   0.00000  Uiso   1.00
H1248  H     0.05175   0.85755   0.91112   0.00000  Uiso   1.00
N1249  N     0.04931   0.83332   0.74998   0.00000  Uiso   1.00
N1250  N     0.28402   0.83335   0.75000   0.00000  Uiso   1.00
O1251  O     0.12708   0.89345   0.75000   0.00000  Uiso   1.00
O1252  O     0.20627   0.89346   0.75000   0.00000  Uiso   1.00
O1253  O     0.10775   0.83332   0.82549   0.00000  Uiso   1.00
O1254  O     0.18694   0.83333   0.82549   0.00000  Uiso   1.00
O1255  O     0.12706   0.77321   0.74999   0.00000  Uiso   1.00
O1256  O     0.20625   0.77322   0.75000   0.00000  Uiso   1.00
O1257  O     0.14640   0.83334   0.67451   0.00000  Uiso   1.00
O1258  O     0.22559   0.83335   0.67451   0.00000  Uiso   1.00
F1259  F     0.28312   0.79656   0.58979   0.00000  Uiso   1.00
F1260  F     0.16853   0.70968   0.66136   0.00000  Uiso   1.00
N1261  N     0.16835   0.70954   0.84194   0.00000  Uiso   1.00
H1262  H     0.18720   0.69371   0.86332   0.00000  Uiso   1.00
C1263  C     0.12229   0.72523   0.87416   0.00000  Uiso   1.00
H1264  H     0.09648   0.69916   0.88886   0.00000  Uiso   1.00
H1265  H     0.10628   0.74729   0.85209   0.00000  Uiso   1.00
H1266  H     0.12813   0.74217   0.90774   0.00000  Uiso   1.00
F1267  F     0.16069   0.95628   0.84032   0.00000  Uiso   1.00
F1268  F     0.30185   0.88548   0.68648   0.00000  Uiso   1.00
N1269  N     0.06456   0.89172   0.69033   0.00000  Uiso   1.00
H1270  H     0.06870   0.88883   0.65120   0.00000  Uiso   1.00
C1271  C     0.05259   0.93403   0.70785   0.00000  Uiso   1.00
H1272  H     0.01684   0.94346   0.70339   0.00000  Uiso   1.00
H1273  H     0.08041   0.95557   0.68412   0.00000  Uiso   1.00
H1274  H     0.05153   0.93732   0.74920   0.00000  Uiso   1.00
N1275  N     0.03202   0.77551   0.81020   0.00000  Uiso   1.00
H1276  H     0.01641   0.77982   0.84942   0.00000  Uiso   1.00
C1277  C     0.02810   0.73277   0.79504   0.00000  Uiso   1.00
H1278  H     0.32261   0.72341   0.80353   0.00000  Uiso   1.00
H1279  H     0.04573   0.71200   0.81711   0.00000  Uiso   1.00
H1280  H     0.04671   0.72861   0.75299   0.00000  Uiso   1.00
F1281  F     0.29419   0.83473   0.90762   0.00000  Uiso   1.00
F1282  F     0.30673   0.79346   0.98445   0.00000  Uiso   1.00
N1283  N     0.07416   0.83148   0.56728   0.00000  Uiso   1.00
H1284  H     0.04187   0.84601   0.58618   0.00000  Uiso   1.00
C1285  C     0.07172   0.78702   0.57565   0.00000  Uiso   1.00
H1286  H     0.05770   0.78042   0.61787   0.00000  Uiso   1.00
H1287  H     0.10842   0.77286   0.56084   0.00000  Uiso   1.00
H1288  H     0.04682   0.77265   0.55574   0.00000  Uiso   1.00
F1289  F     0.01491   0.86119   0.51028   0.00000  Uiso   1.00
N1290  N     0.23107   0.88222   0.87014   0.00000  Uiso   1.00
H1291  H     0.26357   0.87389   0.84381   0.00000  Uiso   1.00
C1292  C     0.23360   0.92393   0.88912   0.00000  Uiso   1.00
H1293  H     0.24587   0.94569   0.85580   0.00000  Uiso   1.00
H1294  H     0.26014   0.92531   0.91202   0.00000  Uiso   1.00
H1295  H     0.19724   0.93396   0.91390   0.00000  Uiso   1.00
F1296  F     0.17236   0.95819   0.65970   0.00000  Uiso   1.00
C1297  C     0.50009   0.91250   0.74977   0.00000  Uiso   1.00
C1298  C     0.47926   0.84233   0.98907   0.00000  Uiso   1.00
C1299  C     0.49564   0.84772   0.93436   0.00000  Uiso   1.00
C1300  C     0.51525   0.83521   0.51517   0.00000  Uiso   1.00
C1301  C     0.56344   0.82466   0.98619   0.00000  Uiso   1.00
C1302  C     0.57924   0.83464   0.93359   0.00000  Uiso   1.00
C1303  C     0.54648   0.85243   0.91041   0.00000  Uiso   1.00
C1304  C     0.50616   0.84088   0.56848   0.00000  Uiso   1.00
C1305  C     0.58440   0.81118   0.56558   0.00000  Uiso   1.00
C1306  C     0.46090   0.84762   0.90572   0.00000  Uiso   1.00
C1307  C     0.50194   0.97878   0.70466   0.00000  Uiso   1.00
C1308  C     0.47456   0.83832   0.84942   0.00000  Uiso   1.00
C1309  C     0.50062   0.68848   0.70539   0.00000  Uiso   1.00
C1310  C     0.49958   0.70962   0.75103   0.00000  Uiso   1.00
C1311  C     0.49920   0.68800   0.79659   0.00000  Uiso   1.00
C1312  C     0.49825   0.97801   0.79603   0.00000  Uiso   1.00
C1313  C     0.50004   0.95709   0.75014   0.00000  Uiso   1.00
C1314  C     0.65009   0.85991   0.71890   0.00000  Uiso   1.00
C1315  C     0.36597   0.86124   0.72023   0.00000  Uiso   1.00
C1316  C     0.34978   0.80536   0.77963   0.00000  Uiso   1.00
C1317  C     0.63333   0.80629   0.78041   0.00000  Uiso   1.00
C1318  C     0.49990   0.75420   0.75027   0.00000  Uiso   1.00
C1319  C     0.52588   0.83214   0.65029   0.00000  Uiso   1.00
C1320  C     0.59637   0.80954   0.51165   0.00000  Uiso   1.00
C1321  C     0.53997   0.82873   0.59388   0.00000  Uiso   1.00
C1322  C     0.41177   0.85395   0.93213   0.00000  Uiso   1.00
C1323  C     0.39596   0.85410   0.98591   0.00000  Uiso   1.00
C1324  C     0.42797   0.84369   0.51453   0.00000  Uiso   1.00
Cu1325 Cu    0.45311   0.83333   0.75000   0.00000  Uiso   1.00
Cu1326 Cu    0.54689   0.83334   0.75000   0.00000  Uiso   1.00
H1327  H     0.60755   0.78499   0.80514   0.00000  Uiso   1.00
H1328  H     0.47394   0.85695   0.59058   0.00000  Uiso   1.00
H1329  H     0.38508   0.85755   0.91112   0.00000  Uiso   1.00
N1330  N     0.38265   0.83332   0.74998   0.00000  Uiso   1.00
N1331  N     0.61735   0.83335   0.75000   0.00000  Uiso   1.00
O1332  O     0.46042   0.89345   0.75000   0.00000  Uiso   1.00
O1333  O     0.53961   0.89346   0.75000   0.00000  Uiso   1.00
O1334  O     0.44108   0.83332   0.82549   0.00000  Uiso   1.00
O1335  O     0.52027   0.83333   0.82549   0.00000  Uiso   1.00
O1336  O     0.46039   0.77321   0.74999   0.00000  Uiso   1.00
O1337  O     0.53958   0.77322   0.75000   0.00000  Uiso   1.00
O1338  O     0.47973   0.83334   0.67451   0.00000  Uiso   1.00
O1339  O     0.55892   0.83335   0.67451   0.00000  Uiso   1.00
F1340  F     0.61645   0.79656   0.58979   0.00000  Uiso   1.00
F1341  F     0.50187   0.70968   0.66136   0.00000  Uiso   1.00
N1342  N     0.50168   0.70954   0.84194   0.00000  Uiso   1.00
H1343  H     0.52053   0.69371   0.86332   0.00000  Uiso   1.00
C1344  C     0.45562   0.72523   0.87416   0.00000  Uiso   1.00
H1345  H     0.42981   0.69916   0.88886   0.00000  Uiso   1.00
H1346  H     0.43962   0.74729   0.85209   0.00000  Uiso   1.00
H1347  H     0.46146   0.74217   0.90774   0.00000  Uiso   1.00
F1348  F     0.49403   0.95628   0.84032   0.00000  Uiso   1.00
F1349  F     0.63518   0.88548   0.68648   0.00000  Uiso   1.00
N1350  N     0.39789   0.89172   0.69033   0.00000  Uiso   1.00
H1351  H     0.40204   0.88883   0.65120   0.00000  Uiso   1.00
C1352  C     0.38592   0.93403   0.70785   0.00000  Uiso   1.00
H1353  H     0.35017   0.94346   0.70339   0.00000  Uiso   1.00
H1354  H     0.41374   0.95557   0.68412   0.00000  Uiso   1.00
H1355  H     0.38487   0.93732   0.74920   0.00000  Uiso   1.00
N1356  N     0.36536   0.77551   0.81020   0.00000  Uiso   1.00
H1357  H     0.34975   0.77982   0.84942   0.00000  Uiso   1.00
C1358  C     0.36143   0.73277   0.79504   0.00000  Uiso   1.00
H1359  H     0.65594   0.72341   0.80353   0.00000  Uiso   1.00
H1360  H     0.37906   0.71200   0.81711   0.00000  Uiso   1.00
H1361  H     0.38004   0.72861   0.75299   0.00000  Uiso   1.00
F1362  F     0.62753   0.83473   0.90762   0.00000  Uiso   1.00
F1363  F     0.64006   0.79346   0.98445   0.00000  Uiso   1.00
N1364  N     0.40750   0.83148   0.56728   0.00000  Uiso   1.00
H1365  H     0.37520   0.84601   0.58618   0.00000  Uiso   1.00
C1366  C     0.40505   0.78702   0.57565   0.00000  Uiso   1.00
H1367  H     0.39103   0.78042   0.61787   0.00000  Uiso   1.00
H1368  H     0.44175   0.77286   0.56084   0.00000  Uiso   1.00
H1369  H     0.38015   0.77265   0.55574   0.00000  Uiso   1.00
F1370  F     0.34825   0.86119   0.51028   0.00000  Uiso   1.00
N1371  N     0.56440   0.88222   0.87014   0.00000  Uiso   1.00
H1372  H     0.59690   0.87389   0.84381   0.00000  Uiso   1.00
C1373  C     0.56693   0.92393   0.88912   0.00000  Uiso   1.00
H1374  H     0.57920   0.94569   0.85580   0.00000  Uiso   1.00
H1375  H     0.59347   0.92531   0.91202   0.00000  Uiso   1.00
H1376  H     0.53058   0.93396   0.91390   0.00000  Uiso   1.00
F1377  F     0.50569   0.95819   0.65970   0.00000  Uiso   1.00
C1378  C     0.83343   0.91250   0.74977   0.00000  Uiso   1.00
C1379  C     0.81259   0.84233   0.98907   0.00000  Uiso   1.00
C1380  C     0.82897   0.84772   0.93436   0.00000  Uiso   1.00
C1381  C     0.84859   0.83521   0.51517   0.00000  Uiso   1.00
C1382  C     0.89678   0.82466   0.98619   0.00000  Uiso   1.00
C1383  C     0.91258   0.83464   0.93359   0.00000  Uiso   1.00
C1384  C     0.87981   0.85243   0.91041   0.00000  Uiso   1.00
C1385  C     0.83949   0.84088   0.56848   0.00000  Uiso   1.00
C1386  C     0.91773   0.81118   0.56558   0.00000  Uiso   1.00
C1387  C     0.79423   0.84762   0.90572   0.00000  Uiso   1.00
C1388  C     0.83527   0.97878   0.70466   0.00000  Uiso   1.00
C1389  C     0.80789   0.83832   0.84942   0.00000  Uiso   1.00
C1390  C     0.83395   0.68848   0.70539   0.00000  Uiso   1.00
C1391  C     0.83291   0.70962   0.75103   0.00000  Uiso   1.00
C1392  C     0.83254   0.68800   0.79659   0.00000  Uiso   1.00
C1393  C     0.83158   0.97801   0.79603   0.00000  Uiso   1.00
C1394  C     0.83337   0.95709   0.75014   0.00000  Uiso   1.00
C1395  C     0.98342   0.85991   0.71890   0.00000  Uiso   1.00
C1396  C     0.69931   0.86124   0.72023   0.00000  Uiso   1.00
C1397  C     0.68311   0.80536   0.77963   0.00000  Uiso   1.00
C1398  C     0.96666   0.80629   0.78041   0.00000  Uiso   1.00
C1399  C     0.83323   0.75420   0.75027   0.00000  Uiso   1.00
C1400  C     0.85921   0.83214   0.65029   0.00000  Uiso   1.00
C1401  C     0.92971   0.80954   0.51165   0.00000  Uiso   1.00
C1402  C     0.87331   0.82873   0.59388   0.00000  Uiso   1.00
C1403  C     0.74511   0.85395   0.93213   0.00000  Uiso   1.00
C1404  C     0.72930   0.85410   0.98591   0.00000  Uiso   1.00
C1405  C     0.76130   0.84369   0.51453   0.00000  Uiso   1.00
Cu1406 Cu    0.78645   0.83333   0.75000   0.00000  Uiso   1.00
Cu1407 Cu    0.88022   0.83334   0.75000   0.00000  Uiso   1.00
H1408  H     0.94088   0.78499   0.80514   0.00000  Uiso   1.00
H1409  H     0.80727   0.85695   0.59058   0.00000  Uiso   1.00
H1410  H     0.71842   0.85755   0.91112   0.00000  Uiso   1.00
N1411  N     0.71598   0.83332   0.74998   0.00000  Uiso   1.00
N1412  N     0.95069   0.83335   0.75000   0.00000  Uiso   1.00
O1413  O     0.79375   0.89345   0.75000   0.00000  Uiso   1.00
O1414  O     0.87294   0.89346   0.75000   0.00000  Uiso   1.00
O1415  O     0.77441   0.83332   0.82549   0.00000  Uiso   1.00
O1416  O     0.85360   0.83333   0.82549   0.00000  Uiso   1.00
O1417  O     0.79373   0.77321   0.74999   0.00000  Uiso   1.00
O1418  O     0.87292   0.77322   0.75000   0.00000  Uiso   1.00
O1419  O     0.81306   0.83334   0.67451   0.00000  Uiso   1.00
O1420  O     0.89225   0.83335   0.67451   0.00000  Uiso   1.00
F1421  F     0.94978   0.79656   0.58979   0.00000  Uiso   1.00
F1422  F     0.83520   0.70968   0.66136   0.00000  Uiso   1.00
N1423  N     0.83502   0.70954   0.84194   0.00000  Uiso   1.00
H1424  H     0.85387   0.69371   0.86332   0.00000  Uiso   1.00
C1425  C     0.78896   0.72523   0.87416   0.00000  Uiso   1.00
H1426  H     0.76315   0.69916   0.88886   0.00000  Uiso   1.00
H1427  H     0.77295   0.74729   0.85209   0.00000  Uiso   1.00
H1428  H     0.79480   0.74217   0.90774   0.00000  Uiso   1.00
F1429  F     0.82736   0.95628   0.84032   0.00000  Uiso   1.00
F1430  F     0.96851   0.88548   0.68648   0.00000  Uiso   1.00
N1431  N     0.73123   0.89172   0.69033   0.00000  Uiso   1.00
H1432  H     0.73537   0.88883   0.65120   0.00000  Uiso   1.00
C1433  C     0.71925   0.93403   0.70785   0.00000  Uiso   1.00
H1434  H     0.68351   0.94346   0.70339   0.00000  Uiso   1.00
H1435  H     0.74707   0.95557   0.68412   0.00000  Uiso   1.00
H1436  H     0.71820   0.93732   0.74920   0.00000  Uiso   1.00
N1437  N     0.69869   0.77551   0.81020   0.00000  Uiso   1.00
H1438  H     0.68308   0.77982   0.84942   0.00000  Uiso   1.00
C1439  C     0.69476   0.73277   0.79504   0.00000  Uiso   1.00
H1440  H     0.98927   0.72341   0.80353   0.00000  Uiso   1.00
H1441  H     0.71239   0.71200   0.81711   0.00000  Uiso   1.00
H1442  H     0.71338   0.72861   0.75299   0.00000  Uiso   1.00
F1443  F     0.96086   0.83473   0.90762   0.00000  Uiso   1.00
F1444  F     0.97339   0.79346   0.98445   0.00000  Uiso   1.00
N1445  N     0.74083   0.83148   0.56728   0.00000  Uiso   1.00
H1446  H     0.70854   0.84601   0.58618   0.00000  Uiso   1.00
C1447  C     0.73838   0.78702   0.57565   0.00000  Uiso   1.00
H1448  H     0.72436   0.78042   0.61787   0.00000  Uiso   1.00
H1449  H     0.77509   0.77286   0.56084   0.00000  Uiso   1.00
H1450  H     0.71348   0.77265   0.55574   0.00000  Uiso   1.00
F1451  F     0.68158   0.86119   0.51028   0.00000  Uiso   1.00
N1452  N     0.89773   0.88222   0.87014   0.00000  Uiso   1.00
H1453  H     0.93024   0.87389   0.84381   0.00000  Uiso   1.00
C1454  C     0.90027   0.92393   0.88912   0.00000  Uiso   1.00
H1455  H     0.91253   0.94569   0.85580   0.00000  Uiso   1.00
H1456  H     0.92680   0.92531   0.91202   0.00000  Uiso   1.00
H1457  H     0.86391   0.93396   0.91390   0.00000  Uiso   1.00
F1458  F     0.83903   0.95819   0.65970   0.00000  Uiso   1.00
loop_
_geom_bond_atom_site_label_1
_geom_bond_atom_site_label_2
_geom_bond_distance
_geom_bond_site_symmetry_2
_ccdc_geom_bond_type
C1     O37     1.291   .     A
C1     C17     1.435   .     S
C1     O36     1.291   .     A
C2     C3      1.421   .     A
C2     C733    1.427   .     S
C2     C757    1.432   .     S
C3     C7      1.421   .     A
C3     C10     1.427   .     A
C4     C8      1.396   .     A
C4     C731    1.427   1_554 S
C4     C734    1.418   1_554 S
C5     C6      1.393   .     A
C5     C733    1.418   .     S
C5     C753    1.406   .     S
C6     C7      1.394   .     A
C6     F66     1.358   .     S
C7     N75     1.425   .     S
C8     C25     1.396   .     A
C8     H32     1.077   .     S
C9     C25     1.401   .     A
C9     F44     1.357   .     S
C9     C24     1.393   .     A
C10    C26     1.397   .     A
C10    C12     1.483   .     S
C11    F81     1.358   .     S
C11    C17     1.396   .     A
C11    C256    1.386   .     S
C12    O39     1.293   .     A
C12    O38     1.313   .     A
C13    C14     1.399   .     A
C13    F45     1.359   .     S
C13    C497    1.386   1_545 S
C14    C22     1.435   .     S
C14    C15     1.407   .     A
C15    N46     1.426   .     S
C15    C502    1.395   1_545 S
C16    C17     1.397   .     A
C16    F52     1.356   .     S
C16    C258    1.395   .     S
C18    F53     1.356   .     S
C18    N35     1.361   .     A
C18    C100    1.424   .     S
C19    N54     1.419   .     S
C19    N34     1.379   .     A
C19    C180    1.424   1_455 S
C20    N60     1.419   .     S
C20    N34     1.376   .     A
C20    C183    1.423   1_455 S
C21    H31     1.082   .     S
C21    N35     1.363   .     A
C21    C101    1.423   .     S
C22    O41     1.290   .     A
C22    O40     1.291   .     A
C23    O42     1.295   .     A
C23    O43     1.299   .     A
C23    C25     1.459   .     S
C24    C734    1.406   1_554 S
C24    F796    1.358   1_554 S
C26    C27     1.387   .     A
C26    H33     1.083   .     S
C27    C757    1.401   .     S
C27    F803    1.355   .     S
C28    N68     1.425   .     S
C28    C756    1.401   1_554 S
C28    C731    1.432   1_554 S
Cu29   O42     1.954   .     S
Cu29   O36     1.946   .     S
Cu29   Cu30    2.691   .     S
Cu29   O38     1.962   .     S
Cu29   N34     2.022   .     S
Cu29   O40     1.946   .     S
Cu30   N35     2.022   .     S
Cu30   O41     1.946   .     S
Cu30   O37     1.946   .     S
Cu30   O43     1.962   .     S
Cu30   O39     1.954   .     S
N46    C48     1.446   .     S
N46    H47     1.032   .     S
C48    H51     1.111   .     S
C48    H50     1.108   .     S
C48    H49     1.111   .     S
N54    H55     1.030   .     S
N54    C56     1.451   .     S
C56    H57     1.110   .     S
C56    H59     1.111   .     S
C56    H58     1.107   .     S
N60    C62     1.449   .     S
N60    H61     1.030   .     S
C62    H64     1.110   .     S
C62    H65     1.112   .     S
C62    H225    1.111   1_455 S
H63    C143    1.111   .     S
F67    C753    1.358   .     S
N68    H69     1.032   .     S
N68    C70     1.447   .     S
C70    H71     1.111   .     S
C70    H73     1.111   .     S
C70    H72     1.111   .     S
F74    C756    1.355   1_554 S
N75    H76     1.030   .     S
N75    C77     1.447   .     S
C77    H78     1.110   .     S
C77    H79     1.112   .     S
C77    H80     1.111   .     S
C82    O118    1.291   .     A
C82    C98     1.435   .     S
C82    O117    1.291   .     A
C83    C84     1.421   .     A
C83    C814    1.427   .     S
C83    C838    1.432   .     S
C84    C88     1.421   .     A
C84    C91     1.427   .     A
C85    C89     1.396   .     A
C85    C812    1.427   1_554 S
C85    C815    1.418   1_554 S
C86    C87     1.393   .     A
C86    C814    1.418   .     S
C86    C834    1.406   .     S
C87    C88     1.394   .     A
C87    F147    1.358   .     S
C88    N156    1.425   .     S
C89    C106    1.396   .     A
C89    H113    1.077   .     S
C90    C106    1.401   .     A
C90    F125    1.357   .     S
C90    C105    1.393   .     A
C91    C107    1.397   .     A
C91    C93     1.483   .     S
C92    F162    1.358   .     S
C92    C98     1.396   .     A
C92    C337    1.386   .     S
C93    O120    1.293   .     A
C93    O119    1.313   .     A
C94    C95     1.399   .     A
C94    F126    1.359   .     S
C94    C578    1.386   1_545 S
C95    C103    1.435   .     S
C95    C96     1.407   .     A
C96    N127    1.426   .     S
C96    C583    1.395   1_545 S
C97    C98     1.397   .     A
C97    F133    1.356   .     S
C97    C339    1.395   .     S
C99    F134    1.356   .     S
C99    N116    1.361   .     A
C99    C181    1.424   .     S
C100   N135    1.419   .     S
C100   N115    1.379   .     A
C101   N141    1.419   .     S
C101   N115    1.376   .     A
C102   H112    1.082   .     S
C102   N116    1.363   .     A
C102   C182    1.423   .     S
C103   O122    1.290   .     A
C103   O121    1.291   .     A
C104   O123    1.295   .     A
C104   O124    1.299   .     A
C104   C106    1.459   .     S
C105   C815    1.406   1_554 S
C105   F877    1.358   1_554 S
C107   C108    1.387   .     A
C107   H114    1.083   .     S
C108   C838    1.401   .     S
C108   F884    1.355   .     S
C109   N149    1.425   .     S
C109   C837    1.401   1_554 S
C109   C812    1.432   1_554 S
Cu110  O123    1.954   .     S
Cu110  O117    1.946   .     S
Cu110  Cu111   2.691   .     S
Cu110  O119    1.962   .     S
Cu110  N115    2.022   .     S
Cu110  O121    1.946   .     S
Cu111  N116    2.022   .     S
Cu111  O122    1.946   .     S
Cu111  O118    1.946   .     S
Cu111  O124    1.962   .     S
Cu111  O120    1.954   .     S
N127   C129    1.446   .     S
N127   H128    1.032   .     S
C129   H132    1.111   .     S
C129   H131    1.108   .     S
C129   H130    1.111   .     S
N135   H136    1.030   .     S
N135   C137    1.451   .     S
C137   H138    1.110   .     S
C137   H140    1.111   .     S
C137   H139    1.107   .     S
N141   C143    1.449   .     S
N141   H142    1.030   .     S
C143   H145    1.110   .     S
C143   H146    1.112   .     S
H144   C224    1.111   .     S
F148   C834    1.358   .     S
N149   H150    1.032   .     S
N149   C151    1.447   .     S
C151   H152    1.111   .     S
C151   H154    1.111   .     S
C151   H153    1.111   .     S
F155   C837    1.355   1_554 S
N156   H157    1.030   .     S
N156   C158    1.447   .     S
C158   H159    1.110   .     S
C158   H160    1.112   .     S
C158   H161    1.111   .     S
C163   O199    1.291   .     A
C163   C179    1.435   .     S
C163   O198    1.291   .     A
C164   C165    1.421   .     A
C164   C895    1.427   .     S
C164   C919    1.432   .     S
C165   C169    1.421   .     A
C165   C172    1.427   .     A
C166   C170    1.396   .     A
C166   C893    1.427   1_554 S
C166   C896    1.418   1_554 S
C167   C168    1.393   .     A
C167   C895    1.418   .     S
C167   C915    1.406   .     S
C168   C169    1.394   .     A
C168   F228    1.358   .     S
C169   N237    1.425   .     S
C170   C187    1.396   .     A
C170   H194    1.077   .     S
C171   C187    1.401   .     A
C171   F206    1.357   .     S
C171   C186    1.393   .     A
C172   C188    1.397   .     A
C172   C174    1.483   .     S
C173   F243    1.358   .     S
C173   C179    1.396   .     A
C173   C418    1.386   .     S
C174   O201    1.293   .     A
C174   O200    1.313   .     A
C175   C176    1.399   .     A
C175   F207    1.359   .     S
C175   C659    1.386   1_545 S
C176   C184    1.435   .     S
C176   C177    1.407   .     A
C177   N208    1.426   .     S
C177   C664    1.395   1_545 S
C178   C179    1.397   .     A
C178   F214    1.356   .     S
C178   C420    1.395   .     S
C180   F215    1.356   .     S
C180   N197    1.361   .     A
C180   C19     1.424   1_655 S
C181   N216    1.419   .     S
C181   N196    1.379   .     A
C182   N222    1.419   .     S
C182   N196    1.376   .     A
C183   H193    1.082   .     S
C183   N197    1.363   .     A
C183   C20     1.423   1_655 S
C184   O203    1.290   .     A
C184   O202    1.291   .     A
C185   O204    1.295   .     A
C185   O205    1.299   .     A
C185   C187    1.459   .     S
C186   C896    1.406   1_554 S
C186   F958    1.358   1_554 S
C188   C189    1.387   .     A
C188   H195    1.083   .     S
C189   C919    1.401   .     S
C189   F965    1.355   .     S
C190   N230    1.425   .     S
C190   C918    1.401   1_554 S
C190   C893    1.432   1_554 S
Cu191  O204    1.954   .     S
Cu191  O198    1.946   .     S
Cu191  Cu192   2.691   .     S
Cu191  O200    1.962   .     S
Cu191  N196    2.022   .     S
Cu191  O202    1.946   .     S
Cu192  N197    2.022   .     S
Cu192  O203    1.946   .     S
Cu192  O199    1.946   .     S
Cu192  O205    1.962   .     S
Cu192  O201    1.954   .     S
N208   C210    1.446   .     S
N208   H209    1.032   .     S
C210   H213    1.111   .     S
C210   H212    1.108   .     S
C210   H211    1.111   .     S
N216   H217    1.030   .     S
N216   C218    1.451   .     S
C218   H219    1.110   .     S
C218   H221    1.111   .     S
C218   H220    1.107   .     S
N222   C224    1.449   .     S
N222   H223    1.030   .     S
C224   H226    1.110   .     S
C224   H227    1.112   .     S
H225   C62     1.111   1_655 S
F229   C915    1.358   .     S
N230   H231    1.032   .     S
N230   C232    1.447   .     S
C232   H233    1.111   .     S
C232   H235    1.111   .     S
C232   H234    1.111   .     S
F236   C918    1.355   1_554 S
N237   H238    1.030   .     S
N237   C239    1.447   .     S
C239   H240    1.110   .     S
C239   H241    1.112   .     S
C239   H242    1.111   .     S
C244   O280    1.291   .     A
C244   C260    1.435   .     S
C244   O279    1.291   .     A
C245   C246    1.421   .     A
C245   C976    1.427   .     S
C245   C1000   1.432   .     S
C246   C250    1.421   .     A
C246   C253    1.427   .     A
C247   C251    1.396   .     A
C247   C974    1.427   1_554 S
C247   C977    1.418   1_554 S
C248   C249    1.393   .     A
C248   C976    1.418   .     S
C248   C996    1.406   .     S
C249   C250    1.394   .     A
C249   F309    1.358   .     S
C250   N318    1.425   .     S
C251   C268    1.396   .     A
C251   H275    1.077   .     S
C252   C268    1.401   .     A
C252   F287    1.357   .     S
C252   C267    1.393   .     A
C253   C269    1.397   .     A
C253   C255    1.483   .     S
C254   F324    1.358   .     S
C254   C260    1.396   .     A
C254   C499    1.386   .     S
C255   O282    1.293   .     A
C255   O281    1.313   .     A
C256   C257    1.399   .     A
C256   F288    1.359   .     S
C257   C265    1.435   .     S
C257   C258    1.407   .     A
C258   N289    1.426   .     S
C259   C260    1.397   .     A
C259   F295    1.356   .     S
C259   C501    1.395   .     S
C261   F296    1.356   .     S
C261   N278    1.361   .     A
C261   C343    1.424   .     S
C262   N297    1.419   .     S
C262   N277    1.379   .     A
C262   C423    1.424   1_455 S
C263   N303    1.419   .     S
C263   N277    1.376   .     A
C263   C426    1.423   1_455 S
C264   H274    1.082   .     S
C264   N278    1.363   .     A
C264   C344    1.423   .     S
C265   O284    1.290   .     A
C265   O283    1.291   .     A
C266   O285    1.295   .     A
C266   O286    1.299   .     A
C266   C268    1.459   .     S
C267   C977    1.406   1_554 S
C267   F1039   1.358   1_554 S
C269   C270    1.387   .     A
C269   H276    1.083   .     S
C270   C1000   1.401   .     S
C270   F1046   1.355   .     S
C271   N311    1.425   .     S
C271   C999    1.401   1_554 S
C271   C974    1.432   1_554 S
Cu272  O285    1.954   .     S
Cu272  O279    1.946   .     S
Cu272  Cu273   2.691   .     S
Cu272  O281    1.962   .     S
Cu272  N277    2.022   .     S
Cu272  O283    1.946   .     S
Cu273  N278    2.022   .     S
Cu273  O284    1.946   .     S
Cu273  O280    1.946   .     S
Cu273  O286    1.962   .     S
Cu273  O282    1.954   .     S
N289   C291    1.446   .     S
N289   H290    1.032   .     S
C291   H294    1.111   .     S
C291   H293    1.108   .     S
C291   H292    1.111   .     S
N297   H298    1.030   .     S
N297   C299    1.451   .     S
C299   H300    1.110   .     S
C299   H302    1.111   .     S
C299   H301    1.107   .     S
N303   C305    1.449   .     S
N303   H304    1.030   .     S
C305   H307    1.110   .     S
C305   H308    1.112   .     S
C305   H468    1.111   1_455 S
H306   C386    1.111   .     S
F310   C996    1.358   .     S
N311   H312    1.032   .     S
N311   C313    1.447   .     S
C313   H314    1.111   .     S
C313   H316    1.111   .     S
C313   H315    1.111   .     S
F317   C999    1.355   1_554 S
N318   H319    1.030   .     S
N318   C320    1.447   .     S
C320   H321    1.110   .     S
C320   H322    1.112   .     S
C320   H323    1.111   .     S
C325   O361    1.291   .     A
C325   C341    1.435   .     S
C325   O360    1.291   .     A
C326   C327    1.421   .     A
C326   C1057   1.427   .     S
C326   C1081   1.432   .     S
C327   C331    1.421   .     A
C327   C334    1.427   .     A
C328   C332    1.396   .     A
C328   C1055   1.427   1_554 S
C328   C1058   1.418   1_554 S
C329   C330    1.393   .     A
C329   C1057   1.418   .     S
C329   C1077   1.406   .     S
C330   C331    1.394   .     A
C330   F390    1.358   .     S
C331   N399    1.425   .     S
C332   C349    1.396   .     A
C332   H356    1.077   .     S
C333   C349    1.401   .     A
C333   F368    1.357   .     S
C333   C348    1.393   .     A
C334   C350    1.397   .     A
C334   C336    1.483   .     S
C335   F405    1.358   .     S
C335   C341    1.396   .     A
C335   C580    1.386   .     S
C336   O363    1.293   .     A
C336   O362    1.313   .     A
C337   C338    1.399   .     A
C337   F369    1.359   .     S
C338   C346    1.435   .     S
C338   C339    1.407   .     A
C339   N370    1.426   .     S
C340   C341    1.397   .     A
C340   F376    1.356   .     S
C340   C582    1.395   .     S
C342   F377    1.356   .     S
C342   N359    1.361   .     A
C342   C424    1.424   .     S
C343   N378    1.419   .     S
C343   N358    1.379   .     A
C344   N384    1.419   .     S
C344   N358    1.376   .     A
C345   H355    1.082   .     S
C345   N359    1.363   .     A
C345   C425    1.423   .     S
C346   O365    1.290   .     A
C346   O364    1.291   .     A
C347   O366    1.295   .     A
C347   O367    1.299   .     A
C347   C349    1.459   .     S
C348   C1058   1.406   1_554 S
C348   F1120   1.358   1_554 S
C350   C351    1.387   .     A
C350   H357    1.083   .     S
C351   C1081   1.401   .     S
C351   F1127   1.355   .     S
C352   N392    1.425   .     S
C352   C1080   1.401   1_554 S
C352   C1055   1.432   1_554 S
Cu353  O366    1.954   .     S
Cu353  O360    1.946   .     S
Cu353  Cu354   2.691   .     S
Cu353  O362    1.962   .     S
Cu353  N358    2.022   .     S
Cu353  O364    1.946   .     S
Cu354  N359    2.022   .     S
Cu354  O365    1.946   .     S
Cu354  O361    1.946   .     S
Cu354  O367    1.962   .     S
Cu354  O363    1.954   .     S
N370   C372    1.446   .     S
N370   H371    1.032   .     S
C372   H375    1.111   .     S
C372   H374    1.108   .     S
C372   H373    1.111   .     S
N378   H379    1.030   .     S
N378   C380    1.451   .     S
C380   H381    1.110   .     S
C380   H383    1.111   .     S
C380   H382    1.107   .     S
N384   C386    1.449   .     S
N384   H385    1.030   .     S
C386   H388    1.110   .     S
C386   H389    1.112   .     S
H387   C467    1.111   .     S
F391   C1077   1.358   .     S
N392   H393    1.032   .     S
N392   C394    1.447   .     S
C394   H395    1.111   .     S
C394   H397    1.111   .     S
C394   H396    1.111   .     S
F398   C1080   1.355   1_554 S
N399   H400    1.030   .     S
N399   C401    1.447   .     S
C401   H402    1.110   .     S
C401   H403    1.112   .     S
C401   H404    1.111   .     S
C406   O442    1.291   .     A
C406   C422    1.435   .     S
C406   O441    1.291   .     A
C407   C408    1.421   .     A
C407   C1138   1.427   .     S
C407   C1162   1.432   .     S
C408   C412    1.421   .     A
C408   C415    1.427   .     A
C409   C413    1.396   .     A
C409   C1136   1.427   1_554 S
C409   C1139   1.418   1_554 S
C410   C411    1.393   .     A
C410   C1138   1.418   .     S
C410   C1158   1.406   .     S
C411   C412    1.394   .     A
C411   F471    1.358   .     S
C412   N480    1.425   .     S
C413   C430    1.396   .     A
C413   H437    1.077   .     S
C414   C430    1.401   .     A
C414   F449    1.357   .     S
C414   C429    1.393   .     A
C415   C431    1.397   .     A
C415   C417    1.483   .     S
C416   F486    1.358   .     S
C416   C422    1.396   .     A
C416   C661    1.386   .     S
C417   O444    1.293   .     A
C417   O443    1.313   .     A
C418   C419    1.399   .     A
C418   F450    1.359   .     S
C419   C427    1.435   .     S
C419   C420    1.407   .     A
C420   N451    1.426   .     S
C421   C422    1.397   .     A
C421   F457    1.356   .     S
C421   C663    1.395   .     S
C423   F458    1.356   .     S
C423   N440    1.361   .     A
C423   C262    1.424   1_655 S
C424   N459    1.419   .     S
C424   N439    1.379   .     A
C425   N465    1.419   .     S
C425   N439    1.376   .     A
C426   H436    1.082   .     S
C426   N440    1.363   .     A
C426   C263    1.423   1_655 S
C427   O446    1.290   .     A
C427   O445    1.291   .     A
C428   O447    1.295   .     A
C428   O448    1.299   .     A
C428   C430    1.459   .     S
C429   C1139   1.406   1_554 S
C429   F1201   1.358   1_554 S
C431   C432    1.387   .     A
C431   H438    1.083   .     S
C432   C1162   1.401   .     S
C432   F1208   1.355   .     S
C433   N473    1.425   .     S
C433   C1161   1.401   1_554 S
C433   C1136   1.432   1_554 S
Cu434  O447    1.954   .     S
Cu434  O441    1.946   .     S
Cu434  Cu435   2.691   .     S
Cu434  O443    1.962   .     S
Cu434  N439    2.022   .     S
Cu434  O445    1.946   .     S
Cu435  N440    2.022   .     S
Cu435  O446    1.946   .     S
Cu435  O442    1.946   .     S
Cu435  O448    1.962   .     S
Cu435  O444    1.954   .     S
N451   C453    1.446   .     S
N451   H452    1.032   .     S
C453   H456    1.111   .     S
C453   H455    1.108   .     S
C453   H454    1.111   .     S
N459   H460    1.030   .     S
N459   C461    1.451   .     S
C461   H462    1.110   .     S
C461   H464    1.111   .     S
C461   H463    1.107   .     S
N465   C467    1.449   .     S
N465   H466    1.030   .     S
C467   H469    1.110   .     S
C467   H470    1.112   .     S
H468   C305    1.111   1_655 S
F472   C1158   1.358   .     S
N473   H474    1.032   .     S
N473   C475    1.447   .     S
C475   H476    1.111   .     S
C475   H478    1.111   .     S
C475   H477    1.111   .     S
F479   C1161   1.355   1_554 S
N480   H481    1.030   .     S
N480   C482    1.447   .     S
C482   H483    1.110   .     S
C482   H484    1.112   .     S
C482   H485    1.111   .     S
C487   O523    1.291   .     A
C487   C503    1.435   .     S
C487   O522    1.291   .     A
C488   C489    1.421   .     A
C488   C1219   1.427   .     S
C488   C1243   1.432   .     S
C489   C493    1.421   .     A
C489   C496    1.427   .     A
C490   C494    1.396   .     A
C490   C1217   1.427   1_554 S
C490   C1220   1.418   1_554 S
C491   C492    1.393   .     A
C491   C1219   1.418   .     S
C491   C1239   1.406   .     S
C492   C493    1.394   .     A
C492   F552    1.358   .     S
C493   N561    1.425   .     S
C494   C511    1.396   .     A
C494   H518    1.077   .     S
C495   C511    1.401   .     A
C495   F530    1.357   .     S
C495   C510    1.393   .     A
C496   C512    1.397   .     A
C496   C498    1.483   .     S
C497   F567    1.358   .     S
C497   C503    1.396   .     A
C497   C13     1.386   1_565 S
C498   O525    1.293   .     A
C498   O524    1.313   .     A
C499   C500    1.399   .     A
C499   F531    1.359   .     S
C500   C508    1.435   .     S
C500   C501    1.407   .     A
C501   N532    1.426   .     S
C502   C503    1.397   .     A
C502   F538    1.356   .     S
C502   C15     1.395   1_565 S
C504   F539    1.356   .     S
C504   N521    1.361   .     A
C504   C586    1.424   .     S
C505   N540    1.419   .     S
C505   N520    1.379   .     A
C505   C666    1.424   1_455 S
C506   N546    1.419   .     S
C506   N520    1.376   .     A
C506   C669    1.423   1_455 S
C507   H517    1.082   .     S
C507   N521    1.363   .     A
C507   C587    1.423   .     S
C508   O527    1.290   .     A
C508   O526    1.291   .     A
C509   O528    1.295   .     A
C509   O529    1.299   .     A
C509   C511    1.459   .     S
C510   C1220   1.406   1_554 S
C510   F1282   1.358   1_554 S
C512   C513    1.387   .     A
C512   H519    1.083   .     S
C513   C1243   1.401   .     S
C513   F1289   1.355   .     S
C514   N554    1.425   .     S
C514   C1242   1.401   1_554 S
C514   C1217   1.432   1_554 S
Cu515  O528    1.954   .     S
Cu515  O522    1.946   .     S
Cu515  Cu516   2.691   .     S
Cu515  O524    1.962   .     S
Cu515  N520    2.022   .     S
Cu515  O526    1.946   .     S
Cu516  N521    2.022   .     S
Cu516  O527    1.946   .     S
Cu516  O523    1.946   .     S
Cu516  O529    1.962   .     S
Cu516  O525    1.954   .     S
N532   C534    1.446   .     S
N532   H533    1.032   .     S
C534   H537    1.111   .     S
C534   H536    1.108   .     S
C534   H535    1.111   .     S
N540   H541    1.030   .     S
N540   C542    1.451   .     S
C542   H543    1.110   .     S
C542   H545    1.111   .     S
C542   H544    1.107   .     S
N546   C548    1.449   .     S
N546   H547    1.030   .     S
C548   H550    1.110   .     S
C548   H551    1.112   .     S
C548   H711    1.111   1_455 S
H549   C629    1.111   .     S
F553   C1239   1.358   .     S
N554   H555    1.032   .     S
N554   C556    1.447   .     S
C556   H557    1.111   .     S
C556   H559    1.111   .     S
C556   H558    1.111   .     S
F560   C1242   1.355   1_554 S
N561   H562    1.030   .     S
N561   C563    1.447   .     S
C563   H564    1.110   .     S
C563   H565    1.112   .     S
C563   H566    1.111   .     S
C568   O604    1.291   .     A
C568   C584    1.435   .     S
C568   O603    1.291   .     A
C569   C570    1.421   .     A
C569   C1300   1.427   .     S
C569   C1324   1.432   .     S
C570   C574    1.421   .     A
C570   C577    1.427   .     A
C571   C575    1.396   .     A
C571   C1298   1.427   1_554 S
C571   C1301   1.418   1_554 S
C572   C573    1.393   .     A
C572   C1300   1.418   .     S
C572   C1320   1.406   .     S
C573   C574    1.394   .     A
C573   F633    1.358   .     S
C574   N642    1.425   .     S
C575   C592    1.396   .     A
C575   H599    1.077   .     S
C576   C592    1.401   .     A
C576   F611    1.357   .     S
C576   C591    1.393   .     A
C577   C593    1.397   .     A
C577   C579    1.483   .     S
C578   F648    1.358   .     S
C578   C584    1.396   .     A
C578   C94     1.386   1_565 S
C579   O606    1.293   .     A
C579   O605    1.313   .     A
C580   C581    1.399   .     A
C580   F612    1.359   .     S
C581   C589    1.435   .     S
C581   C582    1.407   .     A
C582   N613    1.426   .     S
C583   C584    1.397   .     A
C583   F619    1.356   .     S
C583   C96     1.395   1_565 S
C585   F620    1.356   .     S
C585   N602    1.361   .     A
C585   C667    1.424   .     S
C586   N621    1.419   .     S
C586   N601    1.379   .     A
C587   N627    1.419   .     S
C587   N601    1.376   .     A
C588   H598    1.082   .     S
C588   N602    1.363   .     A
C588   C668    1.423   .     S
C589   O608    1.290   .     A
C589   O607    1.291   .     A
C590   O609    1.295   .     A
C590   O610    1.299   .     A
C590   C592    1.459   .     S
C591   C1301   1.406   1_554 S
C591   F1363   1.358   1_554 S
C593   C594    1.387   .     A
C593   H600    1.083   .     S
C594   C1324   1.401   .     S
C594   F1370   1.355   .     S
C595   N635    1.425   .     S
C595   C1323   1.401   1_554 S
C595   C1298   1.432   1_554 S
Cu596  O609    1.954   .     S
Cu596  O603    1.946   .     S
Cu596  Cu597   2.691   .     S
Cu596  O605    1.962   .     S
Cu596  N601    2.022   .     S
Cu596  O607    1.946   .     S
Cu597  N602    2.022   .     S
Cu597  O608    1.946   .     S
Cu597  O604    1.946   .     S
Cu597  O610    1.962   .     S
Cu597  O606    1.954   .     S
N613   C615    1.446   .     S
N613   H614    1.032   .     S
C615   H618    1.111   .     S
C615   H617    1.108   .     S
C615   H616    1.111   .     S
N621   H622    1.030   .     S
N621   C623    1.451   .     S
C623   H624    1.110   .     S
C623   H626    1.111   .     S
C623   H625    1.107   .     S
N627   C629    1.449   .     S
N627   H628    1.030   .     S
C629   H631    1.110   .     S
C629   H632    1.112   .     S
H630   C710    1.111   .     S
F634   C1320   1.358   .     S
N635   H636    1.032   .     S
N635   C637    1.447   .     S
C637   H638    1.111   .     S
C637   H640    1.111   .     S
C637   H639    1.111   .     S
F641   C1323   1.355   1_554 S
N642   H643    1.030   .     S
N642   C644    1.447   .     S
C644   H645    1.110   .     S
C644   H646    1.112   .     S
C644   H647    1.111   .     S
C649   O685    1.291   .     A
C649   C665    1.435   .     S
C649   O684    1.291   .     A
C650   C651    1.421   .     A
C650   C1381   1.427   .     S
C650   C1405   1.432   .     S
C651   C655    1.421   .     A
C651   C658    1.427   .     A
C652   C656    1.396   .     A
C652   C1379   1.427   1_554 S
C652   C1382   1.418   1_554 S
C653   C654    1.393   .     A
C653   C1381   1.418   .     S
C653   C1401   1.406   .     S
C654   C655    1.394   .     A
C654   F714    1.358   .     S
C655   N723    1.425   .     S
C656   C673    1.396   .     A
C656   H680    1.077   .     S
C657   C673    1.401   .     A
C657   F692    1.357   .     S
C657   C672    1.393   .     A
C658   C674    1.397   .     A
C658   C660    1.483   .     S
C659   F729    1.358   .     S
C659   C665    1.396   .     A
C659   C175    1.386   1_565 S
C660   O687    1.293   .     A
C660   O686    1.313   .     A
C661   C662    1.399   .     A
C661   F693    1.359   .     S
C662   C670    1.435   .     S
C662   C663    1.407   .     A
C663   N694    1.426   .     S
C664   C665    1.397   .     A
C664   F700    1.356   .     S
C664   C177    1.395   1_565 S
C666   F701    1.356   .     S
C666   N683    1.361   .     A
C666   C505    1.424   1_655 S
C667   N702    1.419   .     S
C667   N682    1.379   .     A
C668   N708    1.419   .     S
C668   N682    1.376   .     A
C669   H679    1.082   .     S
C669   N683    1.363   .     A
C669   C506    1.423   1_655 S
C670   O689    1.290   .     A
C670   O688    1.291   .     A
C671   O690    1.295   .     A
C671   O691    1.299   .     A
C671   C673    1.459   .     S
C672   C1382   1.406   1_554 S
C672   F1444   1.358   1_554 S
C674   C675    1.387   .     A
C674   H681    1.083   .     S
C675   C1405   1.401   .     S
C675   F1451   1.355   .     S
C676   N716    1.425   .     S
C676   C1404   1.401   1_554 S
C676   C1379   1.432   1_554 S
Cu677  O690    1.954   .     S
Cu677  O684    1.946   .     S
Cu677  Cu678   2.691   .     S
Cu677  O686    1.962   .     S
Cu677  N682    2.022   .     S
Cu677  O688    1.946   .     S
Cu678  N683    2.022   .     S
Cu678  O689    1.946   .     S
Cu678  O685    1.946   .     S
Cu678  O691    1.962   .     S
Cu678  O687    1.954   .     S
N694   C696    1.446   .     S
N694   H695    1.032   .     S
C696   H699    1.111   .     S
C696   H698    1.108   .     S
C696   H697    1.111   .     S
N702   H703    1.030   .     S
N702   C704    1.451   .     S
C704   H705    1.110   .     S
C704   H707    1.111   .     S
C704   H706    1.107   .     S
N708   C710    1.449   .     S
N708   H709    1.030   .     S
C710   H712    1.110   .     S
C710   H713    1.112   .     S
H711   C548    1.111   1_655 S
F715   C1401   1.358   .     S
N716   H717    1.032   .     S
N716   C718    1.447   .     S
C718   H719    1.111   .     S
C718   H721    1.111   .     S
C718   H720    1.111   .     S
F722   C1404   1.355   1_554 S
N723   H724    1.030   .     S
N723   C725    1.447   .     S
C725   H726    1.110   .     S
C725   H727    1.112   .     S
C725   H728    1.111   .     S
C730   O766    1.291   .     A
C730   C746    1.435   .     S
C730   O765    1.291   .     A
C731   C732    1.421   .     A
C731   C4      1.427   1_556 S
C731   C28     1.432   1_556 S
C732   C736    1.421   .     A
C732   C739    1.427   .     A
C733   C737    1.396   .     A
C734   C735    1.393   .     A
C734   C4      1.418   1_556 S
C734   C24     1.406   1_556 S
C735   C736    1.394   .     A
C735   F795    1.358   .     S
C736   N804    1.425   .     S
C737   C754    1.396   .     A
C737   H761    1.077   .     S
C738   C754    1.401   .     A
C738   F773    1.357   .     S
C738   C753    1.393   .     A
C739   C755    1.397   .     A
C739   C741    1.483   .     S
C740   F810    1.358   .     S
C740   C746    1.396   .     A
C740   C985    1.386   .     S
C741   O768    1.293   .     A
C741   O767    1.313   .     A
C742   C743    1.399   .     A
C742   F774    1.359   .     S
C742   C1226   1.386   1_545 S
C743   C751    1.435   .     S
C743   C744    1.407   .     A
C744   N775    1.426   .     S
C744   C1231   1.395   1_545 S
C745   C746    1.397   .     A
C745   F781    1.356   .     S
C745   C987    1.395   .     S
C747   F782    1.356   .     S
C747   N764    1.361   .     A
C747   C829    1.424   .     S
C748   N783    1.419   .     S
C748   N763    1.379   .     A
C748   C909    1.424   1_455 S
C749   N789    1.419   .     S
C749   N763    1.376   .     A
C749   C912    1.423   1_455 S
C750   H760    1.082   .     S
C750   N764    1.363   .     A
C750   C830    1.423   .     S
C751   O770    1.290   .     A
C751   O769    1.291   .     A
C752   O771    1.295   .     A
C752   O772    1.299   .     A
C752   C754    1.459   .     S
C755   C756    1.387   .     A
C755   H762    1.083   .     S
C756   C28     1.401   1_556 S
C756   F74     1.355   1_556 S
C757   N797    1.425   .     S
Cu758  O771    1.954   .     S
Cu758  O765    1.946   .     S
Cu758  Cu759   2.691   .     S
Cu758  O767    1.962   .     S
Cu758  N763    2.022   .     S
Cu758  O769    1.946   .     S
Cu759  N764    2.022   .     S
Cu759  O770    1.946   .     S
Cu759  O766    1.946   .     S
Cu759  O772    1.962   .     S
Cu759  O768    1.954   .     S
N775   C777    1.446   .     S
N775   H776    1.032   .     S
C777   H780    1.111   .     S
C777   H779    1.108   .     S
C777   H778    1.111   .     S
N783   H784    1.030   .     S
N783   C785    1.451   .     S
C785   H786    1.110   .     S
C785   H788    1.111   .     S
C785   H787    1.107   .     S
N789   C791    1.449   .     S
N789   H790    1.030   .     S
C791   H793    1.110   .     S
C791   H794    1.112   .     S
C791   H954    1.111   1_455 S
H792   C872    1.111   .     S
F796   C24     1.358   1_556 S
N797   H798    1.032   .     S
N797   C799    1.447   .     S
C799   H800    1.111   .     S
C799   H802    1.111   .     S
C799   H801    1.111   .     S
N804   H805    1.030   .     S
N804   C806    1.447   .     S
C806   H807    1.110   .     S
C806   H808    1.112   .     S
C806   H809    1.111   .     S
C811   O847    1.291   .     A
C811   C827    1.435   .     S
C811   O846    1.291   .     A
C812   C813    1.421   .     A
C812   C85     1.427   1_556 S
C812   C109    1.432   1_556 S
C813   C817    1.421   .     A
C813   C820    1.427   .     A
C814   C818    1.396   .     A
C815   C816    1.393   .     A
C815   C85     1.418   1_556 S
C815   C105    1.406   1_556 S
C816   C817    1.394   .     A
C816   F876    1.358   .     S
C817   N885    1.425   .     S
C818   C835    1.396   .     A
C818   H842    1.077   .     S
C819   C835    1.401   .     A
C819   F854    1.357   .     S
C819   C834    1.393   .     A
C820   C836    1.397   .     A
C820   C822    1.483   .     S
C821   F891    1.358   .     S
C821   C827    1.396   .     A
C821   C1066   1.386   .     S
C822   O849    1.293   .     A
C822   O848    1.313   .     A
C823   C824    1.399   .     A
C823   F855    1.359   .     S
C823   C1307   1.386   1_545 S
C824   C832    1.435   .     S
C824   C825    1.407   .     A
C825   N856    1.426   .     S
C825   C1312   1.395   1_545 S
C826   C827    1.397   .     A
C826   F862    1.356   .     S
C826   C1068   1.395   .     S
C828   F863    1.356   .     S
C828   N845    1.361   .     A
C828   C910    1.424   .     S
C829   N864    1.419   .     S
C829   N844    1.379   .     A
C830   N870    1.419   .     S
C830   N844    1.376   .     A
C831   H841    1.082   .     S
C831   N845    1.363   .     A
C831   C911    1.423   .     S
C832   O851    1.290   .     A
C832   O850    1.291   .     A
C833   O852    1.295   .     A
C833   O853    1.299   .     A
C833   C835    1.459   .     S
C836   C837    1.387   .     A
C836   H843    1.083   .     S
C837   C109    1.401   1_556 S
C837   F155    1.355   1_556 S
C838   N878    1.425   .     S
Cu839  O852    1.954   .     S
Cu839  O846    1.946   .     S
Cu839  Cu840   2.691   .     S
Cu839  O848    1.962   .     S
Cu839  N844    2.022   .     S
Cu839  O850    1.946   .     S
Cu840  N845    2.022   .     S
Cu840  O851    1.946   .     S
Cu840  O847    1.946   .     S
Cu840  O853    1.962   .     S
Cu840  O849    1.954   .     S
N856   C858    1.446   .     S
N856   H857    1.032   .     S
C858   H861    1.111   .     S
C858   H860    1.108   .     S
C858   H859    1.111   .     S
N864   H865    1.030   .     S
N864   C866    1.451   .     S
C866   H867    1.110   .     S
C866   H869    1.111   .     S
C866   H868    1.107   .     S
N870   C872    1.449   .     S
N870   H871    1.030   .     S
C872   H874    1.110   .     S
C872   H875    1.112   .     S
H873   C953    1.111   .     S
F877   C105    1.358   1_556 S
N878   H879    1.032   .     S
N878   C880    1.447   .     S
C880   H881    1.111   .     S
C880   H883    1.111   .     S
C880   H882    1.111   .     S
N885   H886    1.030   .     S
N885   C887    1.447   .     S
C887   H888    1.110   .     S
C887   H889    1.112   .     S
C887   H890    1.111   .     S
C892   O928    1.291   .     A
C892   C908    1.435   .     S
C892   O927    1.291   .     A
C893   C894    1.421   .     A
C893   C166    1.427   1_556 S
C893   C190    1.432   1_556 S
C894   C898    1.421   .     A
C894   C901    1.427   .     A
C895   C899    1.396   .     A
C896   C897    1.393   .     A
C896   C166    1.418   1_556 S
C896   C186    1.406   1_556 S
C897   C898    1.394   .     A
C897   F957    1.358   .     S
C898   N966    1.425   .     S
C899   C916    1.396   .     A
C899   H923    1.077   .     S
C900   C916    1.401   .     A
C900   F935    1.357   .     S
C900   C915    1.393   .     A
C901   C917    1.397   .     A
C901   C903    1.483   .     S
C902   F972    1.358   .     S
C902   C908    1.396   .     A
C902   C1147   1.386   .     S
C903   O930    1.293   .     A
C903   O929    1.313   .     A
C904   C905    1.399   .     A
C904   F936    1.359   .     S
C904   C1388   1.386   1_545 S
C905   C913    1.435   .     S
C905   C906    1.407   .     A
C906   N937    1.426   .     S
C906   C1393   1.395   1_545 S
C907   C908    1.397   .     A
C907   F943    1.356   .     S
C907   C1149   1.395   .     S
C909   F944    1.356   .     S
C909   N926    1.361   .     A
C909   C748    1.424   1_655 S
C910   N945    1.419   .     S
C910   N925    1.379   .     A
C911   N951    1.419   .     S
C911   N925    1.376   .     A
C912   H922    1.082   .     S
C912   N926    1.363   .     A
C912   C749    1.423   1_655 S
C913   O932    1.290   .     A
C913   O931    1.291   .     A
C914   O933    1.295   .     A
C914   O934    1.299   .     A
C914   C916    1.459   .     S
C917   C918    1.387   .     A
C917   H924    1.083   .     S
C918   C190    1.401   1_556 S
C918   F236    1.355   1_556 S
C919   N959    1.425   .     S
Cu920  O933    1.954   .     S
Cu920  O927    1.946   .     S
Cu920  Cu921   2.691   .     S
Cu920  O929    1.962   .     S
Cu920  N925    2.022   .     S
Cu920  O931    1.946   .     S
Cu921  N926    2.022   .     S
Cu921  O932    1.946   .     S
Cu921  O928    1.946   .     S
Cu921  O934    1.962   .     S
Cu921  O930    1.954   .     S
N937   C939    1.446   .     S
N937   H938    1.032   .     S
C939   H942    1.111   .     S
C939   H941    1.108   .     S
C939   H940    1.111   .     S
N945   H946    1.030   .     S
N945   C947    1.451   .     S
C947   H948    1.110   .     S
C947   H950    1.111   .     S
C947   H949    1.107   .     S
N951   C953    1.449   .     S
N951   H952    1.030   .     S
C953   H955    1.110   .     S
C953   H956    1.112   .     S
H954   C791    1.111   1_655 S
F958   C186    1.358   1_556 S
N959   H960    1.032   .     S
N959   C961    1.447   .     S
C961   H962    1.111   .     S
C961   H964    1.111   .     S
C961   H963    1.111   .     S
N966   H967    1.030   .     S
N966   C968    1.447   .     S
C968   H969    1.110   .     S
C968   H970    1.112   .     S
C968   H971    1.111   .     S
C973   O1009   1.291   .     A
C973   C989    1.435   .     S
C973   O1008   1.291   .     A
C974   C975    1.421   .     A
C974   C247    1.427   1_556 S
C974   C271    1.432   1_556 S
C975   C979    1.421   .     A
C975   C982    1.427   .     A
C976   C980    1.396   .     A
C977   C978    1.393   .     A
C977   C247    1.418   1_556 S
C977   C267    1.406   1_556 S
C978   C979    1.394   .     A
C978   F1038   1.358   .     S
C979   N1047   1.425   .     S
C980   C997    1.396   .     A
C980   H1004   1.077   .     S
C981   C997    1.401   .     A
C981   F1016   1.357   .     S
C981   C996    1.393   .     A
C982   C998    1.397   .     A
C982   C984    1.483   .     S
C983   F1053   1.358   .     S
C983   C989    1.396   .     A
C983   C1228   1.386   .     S
C984   O1011   1.293   .     A
C984   O1010   1.313   .     A
C985   C986    1.399   .     A
C985   F1017   1.359   .     S
C986   C994    1.435   .     S
C986   C987    1.407   .     A
C987   N1018   1.426   .     S
C988   C989    1.397   .     A
C988   F1024   1.356   .     S
C988   C1230   1.395   .     S
C990   F1025   1.356   .     S
C990   N1007   1.361   .     A
C990   C1072   1.424   .     S
C991   N1026   1.419   .     S
C991   N1006   1.379   .     A
C991   C1152   1.424   1_455 S
C992   N1032   1.419   .     S
C992   N1006   1.376   .     A
C992   C1155   1.423   1_455 S
C993   H1003   1.082   .     S
C993   N1007   1.363   .     A
C993   C1073   1.423   .     S
C994   O1013   1.290   .     A
C994   O1012   1.291   .     A
C995   O1014   1.295   .     A
C995   O1015   1.299   .     A
C995   C997    1.459   .     S
C998   C999    1.387   .     A
C998   H1005   1.083   .     S
C999   C271    1.401   1_556 S
C999   F317    1.355   1_556 S
C1000  N1040   1.425   .     S
Cu1001 O1014   1.954   .     S
Cu1001 O1008   1.946   .     S
Cu1001 Cu1002  2.691   .     S
Cu1001 O1010   1.962   .     S
Cu1001 N1006   2.022   .     S
Cu1001 O1012   1.946   .     S
Cu1002 N1007   2.022   .     S
Cu1002 O1013   1.946   .     S
Cu1002 O1009   1.946   .     S
Cu1002 O1015   1.962   .     S
Cu1002 O1011   1.954   .     S
N1018  C1020   1.446   .     S
N1018  H1019   1.032   .     S
C1020  H1023   1.111   .     S
C1020  H1022   1.108   .     S
C1020  H1021   1.111   .     S
N1026  H1027   1.030   .     S
N1026  C1028   1.451   .     S
C1028  H1029   1.110   .     S
C1028  H1031   1.111   .     S
C1028  H1030   1.107   .     S
N1032  C1034   1.449   .     S
N1032  H1033   1.030   .     S
C1034  H1036   1.110   .     S
C1034  H1037   1.112   .     S
C1034  H1197   1.111   1_455 S
H1035  C1115   1.111   .     S
F1039  C267    1.358   1_556 S
N1040  H1041   1.032   .     S
N1040  C1042   1.447   .     S
C1042  H1043   1.111   .     S
C1042  H1045   1.111   .     S
C1042  H1044   1.111   .     S
N1047  H1048   1.030   .     S
N1047  C1049   1.447   .     S
C1049  H1050   1.110   .     S
C1049  H1051   1.112   .     S
C1049  H1052   1.111   .     S
C1054  O1090   1.291   .     A
C1054  C1070   1.435   .     S
C1054  O1089   1.291   .     A
C1055  C1056   1.421   .     A
C1055  C328    1.427   1_556 S
C1055  C352    1.432   1_556 S
C1056  C1060   1.421   .     A
C1056  C1063   1.427   .     A
C1057  C1061   1.396   .     A
C1058  C1059   1.393   .     A
C1058  C328    1.418   1_556 S
C1058  C348    1.406   1_556 S
C1059  C1060   1.394   .     A
C1059  F1119   1.358   .     S
C1060  N1128   1.425   .     S
C1061  C1078   1.396   .     A
C1061  H1085   1.077   .     S
C1062  C1078   1.401   .     A
C1062  F1097   1.357   .     S
C1062  C1077   1.393   .     A
C1063  C1079   1.397   .     A
C1063  C1065   1.483   .     S
C1064  F1134   1.358   .     S
C1064  C1070   1.396   .     A
C1064  C1309   1.386   .     S
C1065  O1092   1.293   .     A
C1065  O1091   1.313   .     A
C1066  C1067   1.399   .     A
C1066  F1098   1.359   .     S
C1067  C1075   1.435   .     S
C1067  C1068   1.407   .     A
C1068  N1099   1.426   .     S
C1069  C1070   1.397   .     A
C1069  F1105   1.356   .     S
C1069  C1311   1.395   .     S
C1071  F1106   1.356   .     S
C1071  N1088   1.361   .     A
C1071  C1153   1.424   .     S
C1072  N1107   1.419   .     S
C1072  N1087   1.379   .     A
C1073  N1113   1.419   .     S
C1073  N1087   1.376   .     A
C1074  H1084   1.082   .     S
C1074  N1088   1.363   .     A
C1074  C1154   1.423   .     S
C1075  O1094   1.290   .     A
C1075  O1093   1.291   .     A
C1076  O1095   1.295   .     A
C1076  O1096   1.299   .     A
C1076  C1078   1.459   .     S
C1079  C1080   1.387   .     A
C1079  H1086   1.083   .     S
C1080  C352    1.401   1_556 S
C1080  F398    1.355   1_556 S
C1081  N1121   1.425   .     S
Cu1082 O1095   1.954   .     S
Cu1082 O1089   1.946   .     S
Cu1082 Cu1083  2.691   .     S
Cu1082 O1091   1.962   .     S
Cu1082 N1087   2.022   .     S
Cu1082 O1093   1.946   .     S
Cu1083 N1088   2.022   .     S
Cu1083 O1094   1.946   .     S
Cu1083 O1090   1.946   .     S
Cu1083 O1096   1.962   .     S
Cu1083 O1092   1.954   .     S
N1099  C1101   1.446   .     S
N1099  H1100   1.032   .     S
C1101  H1104   1.111   .     S
C1101  H1103   1.108   .     S
C1101  H1102   1.111   .     S
N1107  H1108   1.030   .     S
N1107  C1109   1.451   .     S
C1109  H1110   1.110   .     S
C1109  H1112   1.111   .     S
C1109  H1111   1.107   .     S
N1113  C1115   1.449   .     S
N1113  H1114   1.030   .     S
C1115  H1117   1.110   .     S
C1115  H1118   1.112   .     S
H1116  C1196   1.111   .     S
F1120  C348    1.358   1_556 S
N1121  H1122   1.032   .     S
N1121  C1123   1.447   .     S
C1123  H1124   1.111   .     S
C1123  H1126   1.111   .     S
C1123  H1125   1.111   .     S
N1128  H1129   1.030   .     S
N1128  C1130   1.447   .     S
C1130  H1131   1.110   .     S
C1130  H1132   1.112   .     S
C1130  H1133   1.111   .     S
C1135  O1171   1.291   .     A
C1135  C1151   1.435   .     S
C1135  O1170   1.291   .     A
C1136  C1137   1.421   .     A
C1136  C409    1.427   1_556 S
C1136  C433    1.432   1_556 S
C1137  C1141   1.421   .     A
C1137  C1144   1.427   .     A
C1138  C1142   1.396   .     A
C1139  C1140   1.393   .     A
C1139  C409    1.418   1_556 S
C1139  C429    1.406   1_556 S
C1140  C1141   1.394   .     A
C1140  F1200   1.358   .     S
C1141  N1209   1.425   .     S
C1142  C1159   1.396   .     A
C1142  H1166   1.077   .     S
C1143  C1159   1.401   .     A
C1143  F1178   1.357   .     S
C1143  C1158   1.393   .     A
C1144  C1160   1.397   .     A
C1144  C1146   1.483   .     S
C1145  F1215   1.358   .     S
C1145  C1151   1.396   .     A
C1145  C1390   1.386   .     S
C1146  O1173   1.293   .     A
C1146  O1172   1.313   .     A
C1147  C1148   1.399   .     A
C1147  F1179   1.359   .     S
C1148  C1156   1.435   .     S
C1148  C1149   1.407   .     A
C1149  N1180   1.426   .     S
C1150  C1151   1.397   .     A
C1150  F1186   1.356   .     S
C1150  C1392   1.395   .     S
C1152  F1187   1.356   .     S
C1152  N1169   1.361   .     A
C1152  C991    1.424   1_655 S
C1153  N1188   1.419   .     S
C1153  N1168   1.379   .     A
C1154  N1194   1.419   .     S
C1154  N1168   1.376   .     A
C1155  H1165   1.082   .     S
C1155  N1169   1.363   .     A
C1155  C992    1.423   1_655 S
C1156  O1175   1.290   .     A
C1156  O1174   1.291   .     A
C1157  O1176   1.295   .     A
C1157  O1177   1.299   .     A
C1157  C1159   1.459   .     S
C1160  C1161   1.387   .     A
C1160  H1167   1.083   .     S
C1161  C433    1.401   1_556 S
C1161  F479    1.355   1_556 S
C1162  N1202   1.425   .     S
Cu1163 O1176   1.954   .     S
Cu1163 O1170   1.946   .     S
Cu1163 Cu1164  2.691   .     S
Cu1163 O1172   1.962   .     S
Cu1163 N1168   2.022   .     S
Cu1163 O1174   1.946   .     S
Cu1164 N1169   2.022   .     S
Cu1164 O1175   1.946   .     S
Cu1164 O1171   1.946   .     S
Cu1164 O1177   1.962   .     S
Cu1164 O1173   1.954   .     S
N1180  C1182   1.446   .     S
N1180  H1181   1.032   .     S
C1182  H1185   1.111   .     S
C1182  H1184   1.108   .     S
C1182  H1183   1.111   .     S
N1188  H1189   1.030   .     S
N1188  C1190   1.451   .     S
C1190  H1191   1.110   .     S
C1190  H1193   1.111   .     S
C1190  H1192   1.107   .     S
N1194  C1196   1.449   .     S
N1194  H1195   1.030   .     S
C1196  H1198   1.110   .     S
C1196  H1199   1.112   .     S
H1197  C1034   1.111   1_655 S
F1201  C429    1.358   1_556 S
N1202  H1203   1.032   .     S
N1202  C1204   1.447   .     S
C1204  H1205   1.111   .     S
C1204  H1207   1.111   .     S
C1204  H1206   1.111   .     S
N1209  H1210   1.030   .     S
N1209  C1211   1.447   .     S
C1211  H1212   1.110   .     S
C1211  H1213   1.112   .     S
C1211  H1214   1.111   .     S
C1216  O1252   1.291   .     A
C1216  C1232   1.435   .     S
C1216  O1251   1.291   .     A
C1217  C1218   1.421   .     A
C1217  C490    1.427   1_556 S
C1217  C514    1.432   1_556 S
C1218  C1222   1.421   .     A
C1218  C1225   1.427   .     A
C1219  C1223   1.396   .     A
C1220  C1221   1.393   .     A
C1220  C490    1.418   1_556 S
C1220  C510    1.406   1_556 S
C1221  C1222   1.394   .     A
C1221  F1281   1.358   .     S
C1222  N1290   1.425   .     S
C1223  C1240   1.396   .     A
C1223  H1247   1.077   .     S
C1224  C1240   1.401   .     A
C1224  F1259   1.357   .     S
C1224  C1239   1.393   .     A
C1225  C1241   1.397   .     A
C1225  C1227   1.483   .     S
C1226  F1296   1.358   .     S
C1226  C1232   1.396   .     A
C1226  C742    1.386   1_565 S
C1227  O1254   1.293   .     A
C1227  O1253   1.313   .     A
C1228  C1229   1.399   .     A
C1228  F1260   1.359   .     S
C1229  C1237   1.435   .     S
C1229  C1230   1.407   .     A
C1230  N1261   1.426   .     S
C1231  C1232   1.397   .     A
C1231  F1267   1.356   .     S
C1231  C744    1.395   1_565 S
C1233  F1268   1.356   .     S
C1233  N1250   1.361   .     A
C1233  C1315   1.424   .     S
C1234  N1269   1.419   .     S
C1234  N1249   1.379   .     A
C1234  C1395   1.424   1_455 S
C1235  N1275   1.419   .     S
C1235  N1249   1.376   .     A
C1235  C1398   1.423   1_455 S
C1236  H1246   1.082   .     S
C1236  N1250   1.363   .     A
C1236  C1316   1.423   .     S
C1237  O1256   1.290   .     A
C1237  O1255   1.291   .     A
C1238  O1257   1.295   .     A
C1238  O1258   1.299   .     A
C1238  C1240   1.459   .     S
C1241  C1242   1.387   .     A
C1241  H1248   1.083   .     S
C1242  C514    1.401   1_556 S
C1242  F560    1.355   1_556 S
C1243  N1283   1.425   .     S
Cu1244 O1257   1.954   .     S
Cu1244 O1251   1.946   .     S
Cu1244 Cu1245  2.691   .     S
Cu1244 O1253   1.962   .     S
Cu1244 N1249   2.022   .     S
Cu1244 O1255   1.946   .     S
Cu1245 N1250   2.022   .     S
Cu1245 O1256   1.946   .     S
Cu1245 O1252   1.946   .     S
Cu1245 O1258   1.962   .     S
Cu1245 O1254   1.954   .     S
N1261  C1263   1.446   .     S
N1261  H1262   1.032   .     S
C1263  H1266   1.111   .     S
C1263  H1265   1.108   .     S
C1263  H1264   1.111   .     S
N1269  H1270   1.030   .     S
N1269  C1271   1.451   .     S
C1271  H1272   1.110   .     S
C1271  H1274   1.111   .     S
C1271  H1273   1.107   .     S
N1275  C1277   1.449   .     S
N1275  H1276   1.030   .     S
C1277  H1279   1.110   .     S
C1277  H1280   1.112   .     S
C1277  H1440   1.111   1_455 S
H1278  C1358   1.111   .     S
F1282  C510    1.358   1_556 S
N1283  H1284   1.032   .     S
N1283  C1285   1.447   .     S
C1285  H1286   1.111   .     S
C1285  H1288   1.111   .     S
C1285  H1287   1.111   .     S
N1290  H1291   1.030   .     S
N1290  C1292   1.447   .     S
C1292  H1293   1.110   .     S
C1292  H1294   1.112   .     S
C1292  H1295   1.111   .     S
C1297  O1333   1.291   .     A
C1297  C1313   1.435   .     S
C1297  O1332   1.291   .     A
C1298  C1299   1.421   .     A
C1298  C571    1.427   1_556 S
C1298  C595    1.432   1_556 S
C1299  C1303   1.421   .     A
C1299  C1306   1.427   .     A
C1300  C1304   1.396   .     A
C1301  C1302   1.393   .     A
C1301  C571    1.418   1_556 S
C1301  C591    1.406   1_556 S
C1302  C1303   1.394   .     A
C1302  F1362   1.358   .     S
C1303  N1371   1.425   .     S
C1304  C1321   1.396   .     A
C1304  H1328   1.077   .     S
C1305  C1321   1.401   .     A
C1305  F1340   1.357   .     S
C1305  C1320   1.393   .     A
C1306  C1322   1.397   .     A
C1306  C1308   1.483   .     S
C1307  F1377   1.358   .     S
C1307  C1313   1.396   .     A
C1307  C823    1.386   1_565 S
C1308  O1335   1.293   .     A
C1308  O1334   1.313   .     A
C1309  C1310   1.399   .     A
C1309  F1341   1.359   .     S
C1310  C1318   1.435   .     S
C1310  C1311   1.407   .     A
C1311  N1342   1.426   .     S
C1312  C1313   1.397   .     A
C1312  F1348   1.356   .     S
C1312  C825    1.395   1_565 S
C1314  F1349   1.356   .     S
C1314  N1331   1.361   .     A
C1314  C1396   1.424   .     S
C1315  N1350   1.419   .     S
C1315  N1330   1.379   .     A
C1316  N1356   1.419   .     S
C1316  N1330   1.376   .     A
C1317  H1327   1.082   .     S
C1317  N1331   1.363   .     A
C1317  C1397   1.423   .     S
C1318  O1337   1.290   .     A
C1318  O1336   1.291   .     A
C1319  O1338   1.295   .     A
C1319  O1339   1.299   .     A
C1319  C1321   1.459   .     S
C1322  C1323   1.387   .     A
C1322  H1329   1.083   .     S
C1323  C595    1.401   1_556 S
C1323  F641    1.355   1_556 S
C1324  N1364   1.425   .     S
Cu1325 O1338   1.954   .     S
Cu1325 O1332   1.946   .     S
Cu1325 Cu1326  2.691   .     S
Cu1325 O1334   1.962   .     S
Cu1325 N1330   2.022   .     S
Cu1325 O1336   1.946   .     S
Cu1326 N1331   2.022   .     S
Cu1326 O1337   1.946   .     S
Cu1326 O1333   1.946   .     S
Cu1326 O1339   1.962   .     S
Cu1326 O1335   1.954   .     S
N1342  C1344   1.446   .     S
N1342  H1343   1.032   .     S
C1344  H1347   1.111   .     S
C1344  H1346   1.108   .     S
C1344  H1345   1.111   .     S
N1350  H1351   1.030   .     S
N1350  C1352   1.451   .     S
C1352  H1353   1.110   .     S
C1352  H1355   1.111   .     S
C1352  H1354   1.107   .     S
N1356  C1358   1.449   .     S
N1356  H1357   1.030   .     S
C1358  H1360   1.110   .     S
C1358  H1361   1.112   .     S
H1359  C1439   1.111   .     S
F1363  C591    1.358   1_556 S
N1364  H1365   1.032   .     S
N1364  C1366   1.447   .     S
C1366  H1367   1.111   .     S
C1366  H1369   1.111   .     S
C1366  H1368   1.111   .     S
N1371  H1372   1.030   .     S
N1371  C1373   1.447   .     S
C1373  H1374   1.110   .     S
C1373  H1375   1.112   .     S
C1373  H1376   1.111   .     S
C1378  O1414   1.291   .     A
C1378  C1394   1.435   .     S
C1378  O1413   1.291   .     A
C1379  C1380   1.421   .     A
C1379  C652    1.427   1_556 S
C1379  C676    1.432   1_556 S
C1380  C1384   1.421   .     A
C1380  C1387   1.427   .     A
C1381  C1385   1.396   .     A
C1382  C1383   1.393   .     A
C1382  C652    1.418   1_556 S
C1382  C672    1.406   1_556 S
C1383  C1384   1.394   .     A
C1383  F1443   1.358   .     S
C1384  N1452   1.425   .     S
C1385  C1402   1.396   .     A
C1385  H1409   1.077   .     S
C1386  C1402   1.401   .     A
C1386  F1421   1.357   .     S
C1386  C1401   1.393   .     A
C1387  C1403   1.397   .     A
C1387  C1389   1.483   .     S
C1388  F1458   1.358   .     S
C1388  C1394   1.396   .     A
C1388  C904    1.386   1_565 S
C1389  O1416   1.293   .     A
C1389  O1415   1.313   .     A
C1390  C1391   1.399   .     A
C1390  F1422   1.359   .     S
C1391  C1399   1.435   .     S
C1391  C1392   1.407   .     A
C1392  N1423   1.426   .     S
C1393  C1394   1.397   .     A
C1393  F1429   1.356   .     S
C1393  C906    1.395   1_565 S
C1395  F1430   1.356   .     S
C1395  N1412   1.361   .     A
C1395  C1234   1.424   1_655 S
C1396  N1431   1.419   .     S
C1396  N1411   1.379   .     A
C1397  N1437   1.419   .     S
C1397  N1411   1.376   .     A
C1398  H1408   1.082   .     S
C1398  N1412   1.363   .     A
C1398  C1235   1.423   1_655 S
C1399  O1418   1.290   .     A
C1399  O1417   1.291   .     A
C1400  O1419   1.295   .     A
C1400  O1420   1.299   .     A
C1400  C1402   1.459   .     S
C1403  C1404   1.387   .     A
C1403  H1410   1.083   .     S
C1404  C676    1.401   1_556 S
C1404  F722    1.355   1_556 S
C1405  N1445   1.425   .     S
Cu1406 O1419   1.954   .     S
Cu1406 O1413   1.946   .     S
Cu1406 Cu1407  2.691   .     S
Cu1406 O1415   1.962   .     S
Cu1406 N1411   2.022   .     S
Cu1406 O1417   1.946   .     S
Cu1407 N1412   2.022   .     S
Cu1407 O1418   1.946   .     S
Cu1407 O1414   1.946   .     S
Cu1407 O1420   1.962   .     S
Cu1407 O1416   1.954   .     S
N1423  C1425   1.446   .     S
N1423  H1424   1.032   .     S
C1425  H1428   1.111   .     S
C1425  H1427   1.108   .     S
C1425  H1426   1.111   .     S
N1431  H1432   1.030   .     S
N1431  C1433   1.451   .     S
C1433  H1434   1.110   .     S
C1433  H1436   1.111   .     S
C1433  H1435   1.107   .     S
N1437  C1439   1.449   .     S
N1437  H1438   1.030   .     S
C1439  H1441   1.110   .     S
C1439  H1442   1.112   .     S
H1440  C1277   1.111   1_655 S
F1444  C672    1.358   1_556 S
N1445  H1446   1.032   .     S
N1445  C1447   1.447   .     S
C1447  H1448   1.111   .     S
C1447  H1450   1.111   .     S
C1447  H1449   1.111   .     S
N1452  H1453   1.030   .     S
N1452  C1454   1.447   .     S
C1454  H1455   1.110   .     S
C1454  H1456   1.112   .     S
C1454  H1457   1.111   .     S
