data_str_m1_o1_o17_pcu_sym.37
_audit_creation_date              2020-01-03
_audit_creation_method            'Materials Studio'
_symmetry_space_group_name_H-M    'P1'
_symmetry_Int_Tables_number       1
_symmetry_cell_setting            triclinic
loop_
_symmetry_equiv_pos_as_xyz
  x,y,z
_cell_length_a                    36.7329
_cell_length_b                    36.7122
_cell_length_c                    34.3601
_cell_angle_alpha                 89.9998
_cell_angle_beta                  89.9996
_cell_angle_gamma                 89.9535
loop_
_atom_site_label
_atom_site_type_symbol
_atom_site_fract_x
_atom_site_fract_y
_atom_site_fract_z
_atom_site_U_iso_or_equiv
_atom_site_adp_type
_atom_site_occupancy
Zn1    Zn    0.20659  -0.00000   0.21735   0.00000  Uiso   1.00
Zn2    Zn    0.29340   0.00000   0.78265   0.00000  Uiso   1.00
Zn3    Zn    0.00000   0.20659   0.21735   0.00000  Uiso   1.00
Zn4    Zn   -0.00000   0.29341   0.78265   0.00000  Uiso   1.00
Zn5    Zn    0.29340   0.00000   0.21735   0.00000  Uiso   1.00
Zn6    Zn    0.20659   0.00000   0.78265   0.00000  Uiso   1.00
Zn7    Zn    0.00000   0.29340   0.21735   0.00000  Uiso   1.00
Zn8    Zn    0.00000   0.20659   0.78265   0.00000  Uiso   1.00
Zn9    Zn    0.45659   0.25000   0.71735   0.00000  Uiso   1.00
Zn10   Zn    0.04340   0.25000   0.28265   0.00000  Uiso   1.00
Zn11   Zn    0.25000   0.45660   0.71735   0.00000  Uiso   1.00
Zn12   Zn    0.25000   0.04341   0.28265   0.00000  Uiso   1.00
Zn13   Zn    0.04340   0.25000   0.71735   0.00000  Uiso   1.00
Zn14   Zn    0.45659   0.25000   0.28265   0.00000  Uiso   1.00
Zn15   Zn    0.25000   0.04341   0.71735   0.00000  Uiso   1.00
Zn16   Zn    0.25000   0.45660   0.28265   0.00000  Uiso   1.00
C17    C     0.00244   0.28309   0.41809   0.00000  Uiso   1.00
C18    C     0.00218   0.21680   0.58174   0.00000  Uiso   1.00
C19    C     0.22014   0.48524   0.41797   0.00000  Uiso   1.00
C20    C     0.28303   0.00390   0.58230   0.00000  Uiso   1.00
C21    C     0.49756   0.21691   0.41809   0.00000  Uiso   1.00
C22    C     0.49782   0.28320   0.58174   0.00000  Uiso   1.00
C23    C     0.27986   0.01476   0.41797   0.00000  Uiso   1.00
C24    C     0.21697   0.49610   0.58230   0.00000  Uiso   1.00
C25    C     0.24685   0.03313   0.91827   0.00000  Uiso   1.00
C26    C     0.24797   0.46689   0.08190   0.00000  Uiso   1.00
C27    C     0.46850   0.23990   0.91847   0.00000  Uiso   1.00
C28    C     0.03002   0.26444   0.08203   0.00000  Uiso   1.00
C29    C     0.25314   0.46687   0.91827   0.00000  Uiso   1.00
C30    C     0.25203   0.03311   0.08190   0.00000  Uiso   1.00
C31    C     0.03154   0.26008   0.91845   0.00000  Uiso   1.00
C32    C     0.47005   0.23554   0.08202   0.00000  Uiso   1.00
C33    C    -0.00000   0.25000   0.39800   0.00000  Uiso   1.00
C34    C     0.00000   0.25000   0.60177   0.00000  Uiso   1.00
C35    C     0.25000  -0.00000   0.39801   0.00000  Uiso   1.00
C36    C     0.25000   0.00000   0.60209   0.00000  Uiso   1.00
C37    C     0.25000  -0.00000   0.89823   0.00000  Uiso   1.00
C38    C     0.25000   0.00000   0.10200   0.00000  Uiso   1.00
C39    C     0.00001   0.25000   0.89823   0.00000  Uiso   1.00
C40    C     0.00002   0.25000   0.10196   0.00000  Uiso   1.00
O41    O     0.25000   0.00000   0.25000   0.00000  Uiso   1.00
O42    O     0.25000  -0.00000   0.75000   0.00000  Uiso   1.00
O43    O     0.00000   0.25000   0.25000   0.00000  Uiso   1.00
O44    O     0.00000   0.25000   0.75000   0.00000  Uiso   1.00
O45    O     0.25000   0.46964   0.33755   0.00000  Uiso   1.00
O46    O     0.25000   0.03037   0.66245   0.00000  Uiso   1.00
O47    O     0.03036   0.25000   0.33755   0.00000  Uiso   1.00
O48    O     0.46963   0.25000   0.66245   0.00000  Uiso   1.00
O49    O     0.25000   0.03037   0.33755   0.00000  Uiso   1.00
O50    O     0.25000   0.46964   0.66245   0.00000  Uiso   1.00
O51    O     0.46963   0.25000   0.33755   0.00000  Uiso   1.00
O52    O     0.03036   0.25000   0.66245   0.00000  Uiso   1.00
O53    O    -0.00000   0.21964   0.83755   0.00000  Uiso   1.00
O54    O     0.00000   0.28036   0.16245   0.00000  Uiso   1.00
O55    O     0.28036   0.00000   0.83755   0.00000  Uiso   1.00
O56    O     0.21963   0.00000   0.16245   0.00000  Uiso   1.00
O57    O    -0.00000   0.28037   0.83755   0.00000  Uiso   1.00
O58    O     0.00000   0.21963   0.16245   0.00000  Uiso   1.00
O59    O     0.21963   0.00000   0.83755   0.00000  Uiso   1.00
O60    O     0.28036   0.00000   0.16245   0.00000  Uiso   1.00
O61    O     0.20724   0.07308   0.27302   0.00000  Uiso   1.00
O62    O     0.29275   0.42693   0.72698   0.00000  Uiso   1.00
O63    O     0.42692   0.20725   0.27302   0.00000  Uiso   1.00
O64    O     0.07307   0.29275   0.72698   0.00000  Uiso   1.00
O65    O     0.29275   0.42693   0.27302   0.00000  Uiso   1.00
O66    O     0.20724   0.07308   0.72698   0.00000  Uiso   1.00
O67    O     0.07307   0.29275   0.27302   0.00000  Uiso   1.00
O68    O     0.42692   0.20725   0.72698   0.00000  Uiso   1.00
O69    O     0.20724   0.42692   0.72698   0.00000  Uiso   1.00
O70    O     0.29275   0.07308   0.27302   0.00000  Uiso   1.00
O71    O     0.42692   0.29276   0.72698   0.00000  Uiso   1.00
O72    O     0.07307   0.20724   0.27302   0.00000  Uiso   1.00
O73    O     0.29275   0.07308   0.72698   0.00000  Uiso   1.00
O74    O     0.20724   0.42692   0.27302   0.00000  Uiso   1.00
O75    O     0.07307   0.20724   0.72698   0.00000  Uiso   1.00
O76    O     0.42692   0.29276   0.27302   0.00000  Uiso   1.00
O77    O     0.45724   0.32308   0.77302   0.00000  Uiso   1.00
O78    O     0.04275   0.17692   0.22698   0.00000  Uiso   1.00
O79    O     0.17692   0.45724   0.77302   0.00000  Uiso   1.00
O80    O     0.32307   0.04276   0.22698   0.00000  Uiso   1.00
O81    O     0.04275   0.17692   0.77302   0.00000  Uiso   1.00
O82    O     0.45724   0.32308   0.22698   0.00000  Uiso   1.00
O83    O     0.32307   0.04276   0.77302   0.00000  Uiso   1.00
O84    O     0.17692   0.45724   0.22698   0.00000  Uiso   1.00
O85    O     0.45724   0.17693   0.22698   0.00000  Uiso   1.00
O86    O     0.04275   0.32307   0.77302   0.00000  Uiso   1.00
O87    O     0.17692   0.04276   0.22698   0.00000  Uiso   1.00
O88    O     0.32307   0.45725   0.77302   0.00000  Uiso   1.00
O89    O     0.04275   0.32307   0.22698   0.00000  Uiso   1.00
O90    O     0.45724   0.17693   0.77302   0.00000  Uiso   1.00
O91    O     0.32307   0.45725   0.22698   0.00000  Uiso   1.00
O92    O     0.17692   0.04276   0.77302   0.00000  Uiso   1.00
C93    C     0.01358   0.18481   0.47894   0.00000  Uiso   1.00
C94    C     0.48388   0.31472   0.51977   0.00000  Uiso   1.00
C95    C     0.31455   0.01671   0.47957   0.00000  Uiso   1.00
C96    C     0.18566   0.48206   0.52025   0.00000  Uiso   1.00
C97    C     0.48642   0.31519   0.47894   0.00000  Uiso   1.00
C98    C     0.01612   0.18528   0.51977   0.00000  Uiso   1.00
C99    C     0.18545   0.48329   0.47957   0.00000  Uiso   1.00
C100   C     0.31434   0.01795   0.52025   0.00000  Uiso   1.00
C101   C     0.26752   0.43565   0.98030   0.00000  Uiso   1.00
C102   C     0.23529   0.06494   0.02111   0.00000  Uiso   1.00
C103   C     0.05549   0.28672   0.97924   0.00000  Uiso   1.00
C104   C     0.44592   0.21105   0.02009   0.00000  Uiso   1.00
C105   C     0.23247   0.06435   0.98030   0.00000  Uiso   1.00
C106   C     0.26471   0.43506   0.02111   0.00000  Uiso   1.00
C107   C     0.44462   0.21318   0.97926   0.00000  Uiso   1.00
C108   C     0.05423   0.28883   0.02008   0.00000  Uiso   1.00
C109   C     0.25000  -0.00000   0.35576   0.00000  Uiso   1.00
C110   C     0.25000   0.00000   0.64430   0.00000  Uiso   1.00
C111   C    -0.00000   0.25000   0.35575   0.00000  Uiso   1.00
C112   C     0.00000   0.25000   0.64418   0.00000  Uiso   1.00
C113   C     0.00000   0.25000   0.85584   0.00000  Uiso   1.00
C114   C     0.00000   0.25000   0.14424   0.00000  Uiso   1.00
C115   C     0.25000  -0.00000   0.85582   0.00000  Uiso   1.00
C116   C     0.25000   0.00000   0.14425   0.00000  Uiso   1.00
C117   C     0.17998   0.07001   0.25000   0.00000  Uiso   1.00
C118   C     0.32001   0.42988   0.74999   0.00000  Uiso   1.00
C119   C     0.42997   0.17997   0.24999   0.00000  Uiso   1.00
C120   C     0.07004   0.32009   0.74996   0.00000  Uiso   1.00
C121   C     0.32002   0.42999   0.25000   0.00000  Uiso   1.00
C122   C     0.17999   0.07012   0.74999   0.00000  Uiso   1.00
C123   C     0.07003   0.32003   0.25000   0.00000  Uiso   1.00
C124   C     0.42996   0.17991   0.74996   0.00000  Uiso   1.00
C125   C     0.17994   0.43002   0.74999   0.00000  Uiso   1.00
C126   C     0.32002   0.07004   0.25001   0.00000  Uiso   1.00
C127   C     0.42997   0.31998   0.75005   0.00000  Uiso   1.00
C128   C     0.06998   0.17991   0.25008   0.00000  Uiso   1.00
C129   C     0.32006   0.06998   0.74999   0.00000  Uiso   1.00
C130   C     0.17998   0.42996   0.25001   0.00000  Uiso   1.00
C131   C     0.07003   0.18002   0.75005   0.00000  Uiso   1.00
C132   C     0.43002   0.32009   0.25008   0.00000  Uiso   1.00
C133   C     0.11621   0.41087   0.26158   0.00000  Uiso   1.00
C134   C     0.36499   0.10797   0.78538   0.00000  Uiso   1.00
C135   C     0.11806   0.14511   0.21589   0.00000  Uiso   1.00
C136   C     0.38880   0.36164   0.78583   0.00000  Uiso   1.00
C137   C     0.38379   0.08914   0.26158   0.00000  Uiso   1.00
C138   C     0.13501   0.39203   0.78537   0.00000  Uiso   1.00
C139   C     0.38194   0.35489   0.21589   0.00000  Uiso   1.00
C140   C     0.11119   0.13835   0.78583   0.00000  Uiso   1.00
C141   C     0.13774   0.11096   0.78581   0.00000  Uiso   1.00
C142   C     0.35489   0.38188   0.21589   0.00000  Uiso   1.00
C143   C     0.10772   0.36551   0.78527   0.00000  Uiso   1.00
C144   C     0.41085   0.11614   0.26149   0.00000  Uiso   1.00
C145   C     0.36226   0.38904   0.78581   0.00000  Uiso   1.00
C146   C     0.14511   0.11812   0.21589   0.00000  Uiso   1.00
C147   C     0.39227   0.13450   0.78527   0.00000  Uiso   1.00
C148   C     0.08915   0.38386   0.26149   0.00000  Uiso   1.00
C149   C     0.38485   0.14182   0.71449   0.00000  Uiso   1.00
C150   C     0.13385   0.33910   0.23861   0.00000  Uiso   1.00
C151   C     0.35997   0.38658   0.71436   0.00000  Uiso   1.00
C152   C     0.13174   0.10455   0.28423   0.00000  Uiso   1.00
C153   C     0.11515   0.35818   0.71449   0.00000  Uiso   1.00
C154   C     0.36615   0.16090   0.23861   0.00000  Uiso   1.00
C155   C     0.14003   0.11342   0.71436   0.00000  Uiso   1.00
C156   C     0.36826   0.39546   0.28423   0.00000  Uiso   1.00
C157   C     0.39522   0.36834   0.28428   0.00000  Uiso   1.00
C158   C     0.11221   0.13945   0.71440   0.00000  Uiso   1.00
C159   C     0.33912   0.13387   0.23859   0.00000  Uiso   1.00
C160   C     0.14131   0.38585   0.71443   0.00000  Uiso   1.00
C161   C     0.10478   0.13166   0.28428   0.00000  Uiso   1.00
C162   C     0.38780   0.36055   0.71440   0.00000  Uiso   1.00
C163   C     0.16088   0.36613   0.23860   0.00000  Uiso   1.00
C164   C     0.35869   0.11415   0.71442   0.00000  Uiso   1.00
C165   C     0.00334   0.21670   0.45869   0.00000  Uiso   1.00
C166   C     0.49401   0.28307   0.54080   0.00000  Uiso   1.00
C167   C     0.28199   0.01019   0.45879   0.00000  Uiso   1.00
C168   C     0.21724   0.49212   0.54133   0.00000  Uiso   1.00
C169   C     0.49666   0.28330   0.45869   0.00000  Uiso   1.00
C170   C     0.00599   0.21693   0.54080   0.00000  Uiso   1.00
C171   C     0.21801   0.48981   0.45879   0.00000  Uiso   1.00
C172   C     0.28276   0.00788   0.54133   0.00000  Uiso   1.00
C173   C     0.25681   0.46708   0.95922   0.00000  Uiso   1.00
C174   C     0.24615   0.03323   0.04132   0.00000  Uiso   1.00
C175   C     0.02961   0.26548   0.95903   0.00000  Uiso   1.00
C176   C     0.47157   0.23211   0.04111   0.00000  Uiso   1.00
C177   C     0.24319   0.03292   0.95922   0.00000  Uiso   1.00
C178   C     0.25385   0.46677   0.04132   0.00000  Uiso   1.00
C179   C     0.47047   0.23446   0.95904   0.00000  Uiso   1.00
C180   C     0.02854   0.26782   0.04111   0.00000  Uiso   1.00
C181   C     0.09811   0.34811   0.25000   0.00000  Uiso   1.00
C182   C     0.40192   0.15175   0.74990   0.00000  Uiso   1.00
C183   C     0.15186   0.09802   0.25005   0.00000  Uiso   1.00
C184   C     0.34787   0.40151   0.75005   0.00000  Uiso   1.00
C185   C     0.40189   0.15189   0.25000   0.00000  Uiso   1.00
C186   C     0.09808   0.34825   0.74990   0.00000  Uiso   1.00
C187   C     0.34814   0.40198   0.25005   0.00000  Uiso   1.00
C188   C     0.15213   0.09849   0.75005   0.00000  Uiso   1.00
C189   C     0.09813   0.15207   0.75011   0.00000  Uiso   1.00
C190   C     0.40195   0.34820   0.25010   0.00000  Uiso   1.00
C191   C     0.15172   0.40218   0.74994   0.00000  Uiso   1.00
C192   C     0.34809   0.09812   0.25005   0.00000  Uiso   1.00
C193   C     0.40187   0.34793   0.75011   0.00000  Uiso   1.00
C194   C     0.09805   0.15180   0.25010   0.00000  Uiso   1.00
C195   C     0.34828   0.09782   0.74994   0.00000  Uiso   1.00
C196   C     0.15191   0.40188   0.25005   0.00000  Uiso   1.00
C197   C     0.00000   0.25000   0.47929   0.00000  Uiso   1.00
C198   C     0.00000   0.25000   0.52033   0.00000  Uiso   1.00
C199   C     0.25000   0.00000   0.47946   0.00000  Uiso   1.00
C200   C     0.25000   0.00000   0.52071   0.00000  Uiso   1.00
C201   C     0.25000  -0.00000   0.97969   0.00000  Uiso   1.00
C202   C     0.25000  -0.00000   0.02072   0.00000  Uiso   1.00
C203   C     0.00005   0.24997   0.97963   0.00000  Uiso   1.00
C204   C     0.00005   0.24997   0.02065   0.00000  Uiso   1.00
N205   N     0.02864   0.15438   0.45826   0.00000  Uiso   1.00
O206   O     0.05804   0.15853   0.43762   0.00000  Uiso   1.00
O207   O     0.01342   0.12245   0.46036   0.00000  Uiso   1.00
N208   N     0.46422   0.34356   0.53862   0.00000  Uiso   1.00
O209   O     0.43360   0.33652   0.55609   0.00000  Uiso   1.00
O210   O     0.47596   0.37696   0.53723   0.00000  Uiso   1.00
N211   N     0.34908   0.01805   0.46011   0.00000  Uiso   1.00
O212   O     0.36109   0.48935   0.44194   0.00000  Uiso   1.00
O213   O     0.36989   0.04660   0.46321   0.00000  Uiso   1.00
N214   N     0.15437   0.46715   0.53935   0.00000  Uiso   1.00
O215   O     0.15622   0.43481   0.55472   0.00000  Uiso   1.00
O216   O     0.12302   0.48361   0.53717   0.00000  Uiso   1.00
N217   N     0.47136   0.34562   0.45826   0.00000  Uiso   1.00
O218   O     0.44196   0.34147   0.43762   0.00000  Uiso   1.00
O219   O     0.48658   0.37755   0.46036   0.00000  Uiso   1.00
N220   N     0.03578   0.15644   0.53862   0.00000  Uiso   1.00
O221   O     0.02405   0.12304   0.53723   0.00000  Uiso   1.00
O222   O     0.06640   0.16349   0.55609   0.00000  Uiso   1.00
N223   N     0.15092   0.48195   0.46011   0.00000  Uiso   1.00
O224   O     0.13891   0.01065   0.44194   0.00000  Uiso   1.00
O225   O     0.13011   0.45340   0.46322   0.00000  Uiso   1.00
N226   N     0.34563   0.03286   0.53935   0.00000  Uiso   1.00
O227   O     0.34378   0.06520   0.55472   0.00000  Uiso   1.00
O228   O     0.37698   0.01640   0.53717   0.00000  Uiso   1.00
N229   N     0.28798   0.40729   0.96160   0.00000  Uiso   1.00
O230   O     0.27709   0.37360   0.96297   0.00000  Uiso   1.00
O231   O     0.31853   0.41507   0.94433   0.00000  Uiso   1.00
N232   N     0.21991   0.09515   0.04188   0.00000  Uiso   1.00
O233   O     0.19069   0.09059   0.06271   0.00000  Uiso   1.00
O234   O     0.23468   0.12729   0.03968   0.00000  Uiso   1.00
N235   N     0.07805   0.31200   0.95849   0.00000  Uiso   1.00
O236   O     0.06315   0.33797   0.93823   0.00000  Uiso   1.00
O237   O     0.11335   0.30968   0.96037   0.00000  Uiso   1.00
N238   N     0.42620   0.18231   0.03900   0.00000  Uiso   1.00
O239   O     0.39084   0.18102   0.03734   0.00000  Uiso   1.00
O240   O     0.44384   0.15670   0.05718   0.00000  Uiso   1.00
N241   N     0.21201   0.09271   0.96160   0.00000  Uiso   1.00
O242   O     0.22291   0.12640   0.96297   0.00000  Uiso   1.00
O243   O     0.18146   0.08493   0.94434   0.00000  Uiso   1.00
N244   N     0.28009   0.40485   0.04188   0.00000  Uiso   1.00
O245   O     0.30931   0.40941   0.06271   0.00000  Uiso   1.00
O246   O     0.26532   0.37271   0.03969   0.00000  Uiso   1.00
N247   N     0.42207   0.18790   0.95850   0.00000  Uiso   1.00
O248   O     0.43698   0.16196   0.93821   0.00000  Uiso   1.00
O249   O     0.38677   0.19022   0.96038   0.00000  Uiso   1.00
N250   N     0.07409   0.31747   0.03898   0.00000  Uiso   1.00
O251   O     0.10947   0.31852   0.03743   0.00000  Uiso   1.00
O252   O     0.05656   0.34332   0.05692   0.00000  Uiso   1.00
I253   I     0.10403   0.46505   0.28102   0.00000  Uiso   1.00
I254   I     0.34842   0.08484   0.84035   0.00000  Uiso   1.00
I255   I     0.10842   0.17726   0.16482   0.00000  Uiso   1.00
I256   I     0.40715   0.33929   0.84035   0.00000  Uiso   1.00
I257   I     0.39596   0.03495   0.28103   0.00000  Uiso   1.00
I258   I     0.15158   0.41516   0.84035   0.00000  Uiso   1.00
I259   I     0.39158   0.32274   0.16483   0.00000  Uiso   1.00
I260   I     0.09283   0.16069   0.84036   0.00000  Uiso   1.00
I261   I     0.15744   0.09051   0.84056   0.00000  Uiso   1.00
I262   I     0.32279   0.39133   0.16487   0.00000  Uiso   1.00
I263   I     0.08271   0.35122   0.83995   0.00000  Uiso   1.00
I264   I     0.46510   0.10378   0.28047   0.00000  Uiso   1.00
I265   I     0.34256   0.40949   0.84056   0.00000  Uiso   1.00
I266   I     0.17721   0.10866   0.16487   0.00000  Uiso   1.00
I267   I     0.41727   0.14882   0.83995   0.00000  Uiso   1.00
I268   I     0.03489   0.39622   0.28045   0.00000  Uiso   1.00
I269   I     0.39868   0.16706   0.65977   0.00000  Uiso   1.00
I270   I     0.14621   0.28478   0.21973   0.00000  Uiso   1.00
I271   I     0.33726   0.40313   0.65944   0.00000  Uiso   1.00
I272   I     0.14100   0.07170   0.33499   0.00000  Uiso   1.00
I273   I     0.10132   0.33294   0.65978   0.00000  Uiso   1.00
I274   I     0.35380   0.21521   0.21971   0.00000  Uiso   1.00
I275   I     0.16274   0.09687   0.65944   0.00000  Uiso   1.00
I276   I     0.35900   0.42830   0.33499   0.00000  Uiso   1.00
I277   I     0.42720   0.35880   0.33533   0.00000  Uiso   1.00
I278   I     0.08986   0.15774   0.65984   0.00000  Uiso   1.00
I279   I     0.28487   0.14621   0.21957   0.00000  Uiso   1.00
I280   I     0.16272   0.40461   0.65947   0.00000  Uiso   1.00
I281   I     0.07280   0.14120   0.33533   0.00000  Uiso   1.00
I282   I     0.41015   0.34227   0.65985   0.00000  Uiso   1.00
I283   I     0.21513   0.35379   0.21959   0.00000  Uiso   1.00
I284   I     0.33728   0.09539   0.65947   0.00000  Uiso   1.00
I285   I     0.02098   0.33027   0.38680   0.00000  Uiso   1.00
I286   I     0.49350   0.16768   0.61453   0.00000  Uiso   1.00
I287   I     0.18172   0.45265   0.38512   0.00000  Uiso   1.00
I288   I     0.33182   0.49771   0.61671   0.00000  Uiso   1.00
I289   I     0.47902   0.16973   0.38680   0.00000  Uiso   1.00
I290   I     0.00651   0.33232   0.61453   0.00000  Uiso   1.00
I291   I     0.31828   0.04735   0.38512   0.00000  Uiso   1.00
I292   I     0.16818   0.00229   0.61671   0.00000  Uiso   1.00
I293   I     0.25394   0.08246   0.88539   0.00000  Uiso   1.00
I294   I     0.22973   0.41953   0.11303   0.00000  Uiso   1.00
I295   I     0.41748   0.24176   0.88833   0.00000  Uiso   1.00
I296   I     0.07899   0.27410   0.11510   0.00000  Uiso   1.00
I297   I     0.24605   0.41754   0.88539   0.00000  Uiso   1.00
I298   I     0.27027   0.08047   0.11303   0.00000  Uiso   1.00
I299   I     0.08254   0.25823   0.88825   0.00000  Uiso   1.00
I300   I     0.42102   0.22593   0.11500   0.00000  Uiso   1.00
Zn301  Zn    0.70659  -0.00000   0.21735   0.00000  Uiso   1.00
Zn302  Zn    0.79340   0.00000   0.78265   0.00000  Uiso   1.00
Zn303  Zn    0.50000   0.20659   0.21735   0.00000  Uiso   1.00
Zn304  Zn    0.50000   0.29341   0.78265   0.00000  Uiso   1.00
Zn305  Zn    0.79340   0.00000   0.21735   0.00000  Uiso   1.00
Zn306  Zn    0.70659   0.00000   0.78265   0.00000  Uiso   1.00
Zn307  Zn    0.50000   0.29340   0.21735   0.00000  Uiso   1.00
Zn308  Zn    0.50000   0.20659   0.78265   0.00000  Uiso   1.00
Zn309  Zn    0.95659   0.25000   0.71735   0.00000  Uiso   1.00
Zn310  Zn    0.54340   0.25000   0.28265   0.00000  Uiso   1.00
Zn311  Zn    0.75000   0.45660   0.71735   0.00000  Uiso   1.00
Zn312  Zn    0.75000   0.04341   0.28265   0.00000  Uiso   1.00
Zn313  Zn    0.54340   0.25000   0.71735   0.00000  Uiso   1.00
Zn314  Zn    0.95659   0.25000   0.28265   0.00000  Uiso   1.00
Zn315  Zn    0.75000   0.04341   0.71735   0.00000  Uiso   1.00
Zn316  Zn    0.75000   0.45660   0.28265   0.00000  Uiso   1.00
C317   C     0.50244   0.28309   0.41809   0.00000  Uiso   1.00
C318   C     0.50218   0.21680   0.58174   0.00000  Uiso   1.00
C319   C     0.72014   0.48524   0.41797   0.00000  Uiso   1.00
C320   C     0.78303   0.00390   0.58230   0.00000  Uiso   1.00
C321   C     0.99756   0.21691   0.41809   0.00000  Uiso   1.00
C322   C     0.99782   0.28320   0.58174   0.00000  Uiso   1.00
C323   C     0.77986   0.01476   0.41797   0.00000  Uiso   1.00
C324   C     0.71697   0.49610   0.58230   0.00000  Uiso   1.00
C325   C     0.74685   0.03313   0.91827   0.00000  Uiso   1.00
C326   C     0.74797   0.46689   0.08190   0.00000  Uiso   1.00
C327   C     0.96850   0.23990   0.91847   0.00000  Uiso   1.00
C328   C     0.53002   0.26444   0.08203   0.00000  Uiso   1.00
C329   C     0.75314   0.46687   0.91827   0.00000  Uiso   1.00
C330   C     0.75203   0.03311   0.08190   0.00000  Uiso   1.00
C331   C     0.53154   0.26008   0.91845   0.00000  Uiso   1.00
C332   C     0.97005   0.23554   0.08202   0.00000  Uiso   1.00
C333   C     0.50000   0.25000   0.39800   0.00000  Uiso   1.00
C334   C     0.50000   0.25000   0.60177   0.00000  Uiso   1.00
C335   C     0.75000  -0.00000   0.39801   0.00000  Uiso   1.00
C336   C     0.75000   0.00000   0.60209   0.00000  Uiso   1.00
C337   C     0.75000  -0.00000   0.89823   0.00000  Uiso   1.00
C338   C     0.75000   0.00000   0.10200   0.00000  Uiso   1.00
C339   C     0.50001   0.25000   0.89823   0.00000  Uiso   1.00
C340   C     0.50002   0.25000   0.10196   0.00000  Uiso   1.00
O341   O     0.75000   0.00000   0.25000   0.00000  Uiso   1.00
O342   O     0.75000  -0.00000   0.75000   0.00000  Uiso   1.00
O343   O     0.50000   0.25000   0.25000   0.00000  Uiso   1.00
O344   O     0.50000   0.25000   0.75000   0.00000  Uiso   1.00
O345   O     0.75000   0.46964   0.33755   0.00000  Uiso   1.00
O346   O     0.75000   0.03037   0.66245   0.00000  Uiso   1.00
O347   O     0.53036   0.25000   0.33755   0.00000  Uiso   1.00
O348   O     0.96963   0.25000   0.66245   0.00000  Uiso   1.00
O349   O     0.75000   0.03037   0.33755   0.00000  Uiso   1.00
O350   O     0.75000   0.46964   0.66245   0.00000  Uiso   1.00
O351   O     0.96963   0.25000   0.33755   0.00000  Uiso   1.00
O352   O     0.53036   0.25000   0.66245   0.00000  Uiso   1.00
O353   O     0.50000   0.21964   0.83755   0.00000  Uiso   1.00
O354   O     0.50000   0.28036   0.16245   0.00000  Uiso   1.00
O355   O     0.78036   0.00000   0.83755   0.00000  Uiso   1.00
O356   O     0.71963   0.00000   0.16245   0.00000  Uiso   1.00
O357   O     0.50000   0.28037   0.83755   0.00000  Uiso   1.00
O358   O     0.50000   0.21963   0.16245   0.00000  Uiso   1.00
O359   O     0.71963   0.00000   0.83755   0.00000  Uiso   1.00
O360   O     0.78036   0.00000   0.16245   0.00000  Uiso   1.00
O361   O     0.70724   0.07308   0.27302   0.00000  Uiso   1.00
O362   O     0.79275   0.42693   0.72698   0.00000  Uiso   1.00
O363   O     0.92692   0.20725   0.27302   0.00000  Uiso   1.00
O364   O     0.57307   0.29275   0.72698   0.00000  Uiso   1.00
O365   O     0.79275   0.42693   0.27302   0.00000  Uiso   1.00
O366   O     0.70724   0.07308   0.72698   0.00000  Uiso   1.00
O367   O     0.57307   0.29275   0.27302   0.00000  Uiso   1.00
O368   O     0.92692   0.20725   0.72698   0.00000  Uiso   1.00
O369   O     0.70724   0.42692   0.72698   0.00000  Uiso   1.00
O370   O     0.79275   0.07308   0.27302   0.00000  Uiso   1.00
O371   O     0.92692   0.29276   0.72698   0.00000  Uiso   1.00
O372   O     0.57307   0.20724   0.27302   0.00000  Uiso   1.00
O373   O     0.79275   0.07308   0.72698   0.00000  Uiso   1.00
O374   O     0.70724   0.42692   0.27302   0.00000  Uiso   1.00
O375   O     0.57307   0.20724   0.72698   0.00000  Uiso   1.00
O376   O     0.92692   0.29276   0.27302   0.00000  Uiso   1.00
O377   O     0.95724   0.32308   0.77302   0.00000  Uiso   1.00
O378   O     0.54275   0.17692   0.22698   0.00000  Uiso   1.00
O379   O     0.67692   0.45724   0.77302   0.00000  Uiso   1.00
O380   O     0.82307   0.04276   0.22698   0.00000  Uiso   1.00
O381   O     0.54275   0.17692   0.77302   0.00000  Uiso   1.00
O382   O     0.95724   0.32308   0.22698   0.00000  Uiso   1.00
O383   O     0.82307   0.04276   0.77302   0.00000  Uiso   1.00
O384   O     0.67692   0.45724   0.22698   0.00000  Uiso   1.00
O385   O     0.95724   0.17693   0.22698   0.00000  Uiso   1.00
O386   O     0.54275   0.32307   0.77302   0.00000  Uiso   1.00
O387   O     0.67692   0.04276   0.22698   0.00000  Uiso   1.00
O388   O     0.82307   0.45725   0.77302   0.00000  Uiso   1.00
O389   O     0.54275   0.32307   0.22698   0.00000  Uiso   1.00
O390   O     0.95724   0.17693   0.77302   0.00000  Uiso   1.00
O391   O     0.82307   0.45725   0.22698   0.00000  Uiso   1.00
O392   O     0.67692   0.04276   0.77302   0.00000  Uiso   1.00
C393   C     0.51358   0.18481   0.47894   0.00000  Uiso   1.00
C394   C     0.98388   0.31472   0.51977   0.00000  Uiso   1.00
C395   C     0.81455   0.01671   0.47957   0.00000  Uiso   1.00
C396   C     0.68566   0.48206   0.52025   0.00000  Uiso   1.00
C397   C     0.98642   0.31519   0.47894   0.00000  Uiso   1.00
C398   C     0.51612   0.18528   0.51977   0.00000  Uiso   1.00
C399   C     0.68545   0.48329   0.47957   0.00000  Uiso   1.00
C400   C     0.81434   0.01795   0.52025   0.00000  Uiso   1.00
C401   C     0.76752   0.43565   0.98030   0.00000  Uiso   1.00
C402   C     0.73529   0.06494   0.02111   0.00000  Uiso   1.00
C403   C     0.55549   0.28672   0.97924   0.00000  Uiso   1.00
C404   C     0.94592   0.21105   0.02009   0.00000  Uiso   1.00
C405   C     0.73247   0.06435   0.98030   0.00000  Uiso   1.00
C406   C     0.76471   0.43506   0.02111   0.00000  Uiso   1.00
C407   C     0.94462   0.21318   0.97926   0.00000  Uiso   1.00
C408   C     0.55423   0.28883   0.02008   0.00000  Uiso   1.00
C409   C     0.75000  -0.00000   0.35576   0.00000  Uiso   1.00
C410   C     0.75000   0.00000   0.64430   0.00000  Uiso   1.00
C411   C     0.50000   0.25000   0.35575   0.00000  Uiso   1.00
C412   C     0.50000   0.25000   0.64418   0.00000  Uiso   1.00
C413   C     0.50000   0.25000   0.85584   0.00000  Uiso   1.00
C414   C     0.50000   0.25000   0.14424   0.00000  Uiso   1.00
C415   C     0.75000  -0.00000   0.85582   0.00000  Uiso   1.00
C416   C     0.75000   0.00000   0.14425   0.00000  Uiso   1.00
C417   C     0.67998   0.07001   0.25000   0.00000  Uiso   1.00
C418   C     0.82001   0.42988   0.74999   0.00000  Uiso   1.00
C419   C     0.92997   0.17997   0.24999   0.00000  Uiso   1.00
C420   C     0.57004   0.32009   0.74996   0.00000  Uiso   1.00
C421   C     0.82002   0.42999   0.25000   0.00000  Uiso   1.00
C422   C     0.67999   0.07012   0.74999   0.00000  Uiso   1.00
C423   C     0.57003   0.32003   0.25000   0.00000  Uiso   1.00
C424   C     0.92996   0.17991   0.74996   0.00000  Uiso   1.00
C425   C     0.67994   0.43002   0.74999   0.00000  Uiso   1.00
C426   C     0.82002   0.07004   0.25001   0.00000  Uiso   1.00
C427   C     0.92997   0.31998   0.75005   0.00000  Uiso   1.00
C428   C     0.56998   0.17991   0.25008   0.00000  Uiso   1.00
C429   C     0.82006   0.06998   0.74999   0.00000  Uiso   1.00
C430   C     0.67998   0.42996   0.25001   0.00000  Uiso   1.00
C431   C     0.57003   0.18002   0.75005   0.00000  Uiso   1.00
C432   C     0.93002   0.32009   0.25008   0.00000  Uiso   1.00
C433   C     0.61621   0.41087   0.26158   0.00000  Uiso   1.00
C434   C     0.86499   0.10797   0.78538   0.00000  Uiso   1.00
C435   C     0.61806   0.14511   0.21589   0.00000  Uiso   1.00
C436   C     0.88880   0.36164   0.78583   0.00000  Uiso   1.00
C437   C     0.88379   0.08914   0.26158   0.00000  Uiso   1.00
C438   C     0.63501   0.39203   0.78537   0.00000  Uiso   1.00
C439   C     0.88194   0.35489   0.21589   0.00000  Uiso   1.00
C440   C     0.61119   0.13835   0.78583   0.00000  Uiso   1.00
C441   C     0.63774   0.11096   0.78581   0.00000  Uiso   1.00
C442   C     0.85489   0.38188   0.21589   0.00000  Uiso   1.00
C443   C     0.60772   0.36551   0.78527   0.00000  Uiso   1.00
C444   C     0.91085   0.11614   0.26149   0.00000  Uiso   1.00
C445   C     0.86226   0.38904   0.78581   0.00000  Uiso   1.00
C446   C     0.64511   0.11812   0.21589   0.00000  Uiso   1.00
C447   C     0.89227   0.13450   0.78527   0.00000  Uiso   1.00
C448   C     0.58915   0.38386   0.26149   0.00000  Uiso   1.00
C449   C     0.88485   0.14182   0.71449   0.00000  Uiso   1.00
C450   C     0.63385   0.33910   0.23861   0.00000  Uiso   1.00
C451   C     0.85997   0.38658   0.71436   0.00000  Uiso   1.00
C452   C     0.63174   0.10455   0.28423   0.00000  Uiso   1.00
C453   C     0.61515   0.35818   0.71449   0.00000  Uiso   1.00
C454   C     0.86615   0.16090   0.23861   0.00000  Uiso   1.00
C455   C     0.64003   0.11342   0.71436   0.00000  Uiso   1.00
C456   C     0.86826   0.39546   0.28423   0.00000  Uiso   1.00
C457   C     0.89522   0.36834   0.28428   0.00000  Uiso   1.00
C458   C     0.61221   0.13945   0.71440   0.00000  Uiso   1.00
C459   C     0.83912   0.13387   0.23859   0.00000  Uiso   1.00
C460   C     0.64131   0.38585   0.71443   0.00000  Uiso   1.00
C461   C     0.60478   0.13166   0.28428   0.00000  Uiso   1.00
C462   C     0.88780   0.36055   0.71440   0.00000  Uiso   1.00
C463   C     0.66088   0.36613   0.23860   0.00000  Uiso   1.00
C464   C     0.85869   0.11415   0.71442   0.00000  Uiso   1.00
C465   C     0.50334   0.21670   0.45869   0.00000  Uiso   1.00
C466   C     0.99401   0.28307   0.54080   0.00000  Uiso   1.00
C467   C     0.78199   0.01019   0.45879   0.00000  Uiso   1.00
C468   C     0.71724   0.49212   0.54133   0.00000  Uiso   1.00
C469   C     0.99666   0.28330   0.45869   0.00000  Uiso   1.00
C470   C     0.50599   0.21693   0.54080   0.00000  Uiso   1.00
C471   C     0.71801   0.48981   0.45879   0.00000  Uiso   1.00
C472   C     0.78276   0.00788   0.54133   0.00000  Uiso   1.00
C473   C     0.75681   0.46708   0.95922   0.00000  Uiso   1.00
C474   C     0.74615   0.03323   0.04132   0.00000  Uiso   1.00
C475   C     0.52961   0.26548   0.95903   0.00000  Uiso   1.00
C476   C     0.97157   0.23211   0.04111   0.00000  Uiso   1.00
C477   C     0.74319   0.03292   0.95922   0.00000  Uiso   1.00
C478   C     0.75385   0.46677   0.04132   0.00000  Uiso   1.00
C479   C     0.97047   0.23446   0.95904   0.00000  Uiso   1.00
C480   C     0.52854   0.26782   0.04111   0.00000  Uiso   1.00
C481   C     0.59811   0.34811   0.25000   0.00000  Uiso   1.00
C482   C     0.90192   0.15175   0.74990   0.00000  Uiso   1.00
C483   C     0.65186   0.09802   0.25005   0.00000  Uiso   1.00
C484   C     0.84787   0.40151   0.75005   0.00000  Uiso   1.00
C485   C     0.90189   0.15189   0.25000   0.00000  Uiso   1.00
C486   C     0.59808   0.34825   0.74990   0.00000  Uiso   1.00
C487   C     0.84814   0.40198   0.25005   0.00000  Uiso   1.00
C488   C     0.65213   0.09849   0.75005   0.00000  Uiso   1.00
C489   C     0.59813   0.15207   0.75011   0.00000  Uiso   1.00
C490   C     0.90195   0.34820   0.25010   0.00000  Uiso   1.00
C491   C     0.65172   0.40218   0.74994   0.00000  Uiso   1.00
C492   C     0.84809   0.09812   0.25005   0.00000  Uiso   1.00
C493   C     0.90187   0.34793   0.75011   0.00000  Uiso   1.00
C494   C     0.59805   0.15180   0.25010   0.00000  Uiso   1.00
C495   C     0.84828   0.09782   0.74994   0.00000  Uiso   1.00
C496   C     0.65191   0.40188   0.25005   0.00000  Uiso   1.00
C497   C     0.50000   0.25000   0.47929   0.00000  Uiso   1.00
C498   C     0.50000   0.25000   0.52033   0.00000  Uiso   1.00
C499   C     0.75000   0.00000   0.47946   0.00000  Uiso   1.00
C500   C     0.75000   0.00000   0.52071   0.00000  Uiso   1.00
C501   C     0.75000  -0.00000   0.97969   0.00000  Uiso   1.00
C502   C     0.75000  -0.00000   0.02072   0.00000  Uiso   1.00
C503   C     0.50005   0.24997   0.97963   0.00000  Uiso   1.00
C504   C     0.50005   0.24997   0.02065   0.00000  Uiso   1.00
N505   N     0.52864   0.15438   0.45826   0.00000  Uiso   1.00
O506   O     0.55804   0.15853   0.43762   0.00000  Uiso   1.00
O507   O     0.51342   0.12245   0.46036   0.00000  Uiso   1.00
N508   N     0.96422   0.34356   0.53862   0.00000  Uiso   1.00
O509   O     0.93360   0.33652   0.55609   0.00000  Uiso   1.00
O510   O     0.97596   0.37696   0.53723   0.00000  Uiso   1.00
N511   N     0.84908   0.01805   0.46011   0.00000  Uiso   1.00
O512   O     0.86109   0.48935   0.44194   0.00000  Uiso   1.00
O513   O     0.86989   0.04660   0.46321   0.00000  Uiso   1.00
N514   N     0.65437   0.46715   0.53935   0.00000  Uiso   1.00
O515   O     0.65622   0.43481   0.55472   0.00000  Uiso   1.00
O516   O     0.62302   0.48361   0.53717   0.00000  Uiso   1.00
N517   N     0.97136   0.34562   0.45826   0.00000  Uiso   1.00
O518   O     0.94196   0.34147   0.43762   0.00000  Uiso   1.00
O519   O     0.98658   0.37755   0.46036   0.00000  Uiso   1.00
N520   N     0.53578   0.15644   0.53862   0.00000  Uiso   1.00
O521   O     0.52405   0.12304   0.53723   0.00000  Uiso   1.00
O522   O     0.56640   0.16349   0.55609   0.00000  Uiso   1.00
N523   N     0.65092   0.48195   0.46011   0.00000  Uiso   1.00
O524   O     0.63891   0.01065   0.44194   0.00000  Uiso   1.00
O525   O     0.63011   0.45340   0.46322   0.00000  Uiso   1.00
N526   N     0.84563   0.03286   0.53935   0.00000  Uiso   1.00
O527   O     0.84378   0.06520   0.55472   0.00000  Uiso   1.00
O528   O     0.87698   0.01640   0.53717   0.00000  Uiso   1.00
N529   N     0.78798   0.40729   0.96160   0.00000  Uiso   1.00
O530   O     0.77709   0.37360   0.96297   0.00000  Uiso   1.00
O531   O     0.81853   0.41507   0.94433   0.00000  Uiso   1.00
N532   N     0.71991   0.09515   0.04188   0.00000  Uiso   1.00
O533   O     0.69069   0.09059   0.06271   0.00000  Uiso   1.00
O534   O     0.73468   0.12729   0.03968   0.00000  Uiso   1.00
N535   N     0.57805   0.31200   0.95849   0.00000  Uiso   1.00
O536   O     0.56315   0.33797   0.93823   0.00000  Uiso   1.00
O537   O     0.61335   0.30968   0.96037   0.00000  Uiso   1.00
N538   N     0.92620   0.18231   0.03900   0.00000  Uiso   1.00
O539   O     0.89084   0.18102   0.03734   0.00000  Uiso   1.00
O540   O     0.94384   0.15670   0.05718   0.00000  Uiso   1.00
N541   N     0.71201   0.09271   0.96160   0.00000  Uiso   1.00
O542   O     0.72291   0.12640   0.96297   0.00000  Uiso   1.00
O543   O     0.68146   0.08493   0.94434   0.00000  Uiso   1.00
N544   N     0.78009   0.40485   0.04188   0.00000  Uiso   1.00
O545   O     0.80931   0.40941   0.06271   0.00000  Uiso   1.00
O546   O     0.76532   0.37271   0.03969   0.00000  Uiso   1.00
N547   N     0.92207   0.18790   0.95850   0.00000  Uiso   1.00
O548   O     0.93698   0.16196   0.93821   0.00000  Uiso   1.00
O549   O     0.88677   0.19022   0.96038   0.00000  Uiso   1.00
N550   N     0.57409   0.31747   0.03898   0.00000  Uiso   1.00
O551   O     0.60947   0.31852   0.03743   0.00000  Uiso   1.00
O552   O     0.55656   0.34332   0.05692   0.00000  Uiso   1.00
I553   I     0.60403   0.46505   0.28102   0.00000  Uiso   1.00
I554   I     0.84842   0.08484   0.84035   0.00000  Uiso   1.00
I555   I     0.60842   0.17726   0.16482   0.00000  Uiso   1.00
I556   I     0.90715   0.33929   0.84035   0.00000  Uiso   1.00
I557   I     0.89596   0.03495   0.28103   0.00000  Uiso   1.00
I558   I     0.65158   0.41516   0.84035   0.00000  Uiso   1.00
I559   I     0.89158   0.32274   0.16483   0.00000  Uiso   1.00
I560   I     0.59283   0.16069   0.84036   0.00000  Uiso   1.00
I561   I     0.65744   0.09051   0.84056   0.00000  Uiso   1.00
I562   I     0.82279   0.39133   0.16487   0.00000  Uiso   1.00
I563   I     0.58271   0.35122   0.83995   0.00000  Uiso   1.00
I564   I     0.96510   0.10378   0.28047   0.00000  Uiso   1.00
I565   I     0.84256   0.40949   0.84056   0.00000  Uiso   1.00
I566   I     0.67721   0.10866   0.16487   0.00000  Uiso   1.00
I567   I     0.91727   0.14882   0.83995   0.00000  Uiso   1.00
I568   I     0.53489   0.39622   0.28045   0.00000  Uiso   1.00
I569   I     0.89868   0.16706   0.65977   0.00000  Uiso   1.00
I570   I     0.64621   0.28478   0.21973   0.00000  Uiso   1.00
I571   I     0.83726   0.40313   0.65944   0.00000  Uiso   1.00
I572   I     0.64100   0.07170   0.33499   0.00000  Uiso   1.00
I573   I     0.60132   0.33294   0.65978   0.00000  Uiso   1.00
I574   I     0.85380   0.21521   0.21971   0.00000  Uiso   1.00
I575   I     0.66274   0.09687   0.65944   0.00000  Uiso   1.00
I576   I     0.85900   0.42830   0.33499   0.00000  Uiso   1.00
I577   I     0.92720   0.35880   0.33533   0.00000  Uiso   1.00
I578   I     0.58986   0.15774   0.65984   0.00000  Uiso   1.00
I579   I     0.78487   0.14621   0.21957   0.00000  Uiso   1.00
I580   I     0.66272   0.40461   0.65947   0.00000  Uiso   1.00
I581   I     0.57280   0.14120   0.33533   0.00000  Uiso   1.00
I582   I     0.91015   0.34227   0.65985   0.00000  Uiso   1.00
I583   I     0.71513   0.35379   0.21959   0.00000  Uiso   1.00
I584   I     0.83728   0.09539   0.65947   0.00000  Uiso   1.00
I585   I     0.52098   0.33027   0.38680   0.00000  Uiso   1.00
I586   I     0.99350   0.16768   0.61453   0.00000  Uiso   1.00
I587   I     0.68172   0.45265   0.38512   0.00000  Uiso   1.00
I588   I     0.83182   0.49771   0.61671   0.00000  Uiso   1.00
I589   I     0.97902   0.16973   0.38680   0.00000  Uiso   1.00
I590   I     0.50651   0.33232   0.61453   0.00000  Uiso   1.00
I591   I     0.81828   0.04735   0.38512   0.00000  Uiso   1.00
I592   I     0.66818   0.00229   0.61671   0.00000  Uiso   1.00
I593   I     0.75394   0.08246   0.88539   0.00000  Uiso   1.00
I594   I     0.72973   0.41953   0.11303   0.00000  Uiso   1.00
I595   I     0.91748   0.24176   0.88833   0.00000  Uiso   1.00
I596   I     0.57899   0.27410   0.11510   0.00000  Uiso   1.00
I597   I     0.74605   0.41754   0.88539   0.00000  Uiso   1.00
I598   I     0.77027   0.08047   0.11303   0.00000  Uiso   1.00
I599   I     0.58254   0.25823   0.88825   0.00000  Uiso   1.00
I600   I     0.92102   0.22593   0.11500   0.00000  Uiso   1.00
Zn601  Zn    0.20659   0.50000   0.21735   0.00000  Uiso   1.00
Zn602  Zn    0.29340   0.50000   0.78265   0.00000  Uiso   1.00
Zn603  Zn    0.00000   0.70659   0.21735   0.00000  Uiso   1.00
Zn604  Zn   -0.00000   0.79341   0.78265   0.00000  Uiso   1.00
Zn605  Zn    0.29340   0.50000   0.21735   0.00000  Uiso   1.00
Zn606  Zn    0.20659   0.50000   0.78265   0.00000  Uiso   1.00
Zn607  Zn    0.00000   0.79340   0.21735   0.00000  Uiso   1.00
Zn608  Zn    0.00000   0.70659   0.78265   0.00000  Uiso   1.00
Zn609  Zn    0.45659   0.75000   0.71735   0.00000  Uiso   1.00
Zn610  Zn    0.04340   0.75000   0.28265   0.00000  Uiso   1.00
Zn611  Zn    0.25000   0.95660   0.71735   0.00000  Uiso   1.00
Zn612  Zn    0.25000   0.54341   0.28265   0.00000  Uiso   1.00
Zn613  Zn    0.04340   0.75000   0.71735   0.00000  Uiso   1.00
Zn614  Zn    0.45659   0.75000   0.28265   0.00000  Uiso   1.00
Zn615  Zn    0.25000   0.54341   0.71735   0.00000  Uiso   1.00
Zn616  Zn    0.25000   0.95660   0.28265   0.00000  Uiso   1.00
C617   C     0.00244   0.78309   0.41809   0.00000  Uiso   1.00
C618   C     0.00218   0.71680   0.58174   0.00000  Uiso   1.00
C619   C     0.22014   0.98524   0.41797   0.00000  Uiso   1.00
C620   C     0.28303   0.50390   0.58230   0.00000  Uiso   1.00
C621   C     0.49756   0.71691   0.41809   0.00000  Uiso   1.00
C622   C     0.49782   0.78320   0.58174   0.00000  Uiso   1.00
C623   C     0.27986   0.51476   0.41797   0.00000  Uiso   1.00
C624   C     0.21697   0.99610   0.58230   0.00000  Uiso   1.00
C625   C     0.24685   0.53313   0.91827   0.00000  Uiso   1.00
C626   C     0.24797   0.96689   0.08190   0.00000  Uiso   1.00
C627   C     0.46850   0.73990   0.91847   0.00000  Uiso   1.00
C628   C     0.03002   0.76444   0.08203   0.00000  Uiso   1.00
C629   C     0.25314   0.96687   0.91827   0.00000  Uiso   1.00
C630   C     0.25203   0.53311   0.08190   0.00000  Uiso   1.00
C631   C     0.03154   0.76008   0.91845   0.00000  Uiso   1.00
C632   C     0.47005   0.73554   0.08202   0.00000  Uiso   1.00
C633   C    -0.00000   0.75000   0.39800   0.00000  Uiso   1.00
C634   C     0.00000   0.75000   0.60177   0.00000  Uiso   1.00
C635   C     0.25000   0.50000   0.39801   0.00000  Uiso   1.00
C636   C     0.25000   0.50000   0.60209   0.00000  Uiso   1.00
C637   C     0.25000   0.50000   0.89823   0.00000  Uiso   1.00
C638   C     0.25000   0.50000   0.10200   0.00000  Uiso   1.00
C639   C     0.00001   0.75000   0.89823   0.00000  Uiso   1.00
C640   C     0.00002   0.75000   0.10196   0.00000  Uiso   1.00
O641   O     0.25000   0.50000   0.25000   0.00000  Uiso   1.00
O642   O     0.25000   0.50000   0.75000   0.00000  Uiso   1.00
O643   O     0.00000   0.75000   0.25000   0.00000  Uiso   1.00
O644   O     0.00000   0.75000   0.75000   0.00000  Uiso   1.00
O645   O     0.25000   0.96964   0.33755   0.00000  Uiso   1.00
O646   O     0.25000   0.53037   0.66245   0.00000  Uiso   1.00
O647   O     0.03036   0.75000   0.33755   0.00000  Uiso   1.00
O648   O     0.46963   0.75000   0.66245   0.00000  Uiso   1.00
O649   O     0.25000   0.53037   0.33755   0.00000  Uiso   1.00
O650   O     0.25000   0.96964   0.66245   0.00000  Uiso   1.00
O651   O     0.46963   0.75000   0.33755   0.00000  Uiso   1.00
O652   O     0.03036   0.75000   0.66245   0.00000  Uiso   1.00
O653   O    -0.00000   0.71964   0.83755   0.00000  Uiso   1.00
O654   O     0.00000   0.78036   0.16245   0.00000  Uiso   1.00
O655   O     0.28036   0.50000   0.83755   0.00000  Uiso   1.00
O656   O     0.21963   0.50000   0.16245   0.00000  Uiso   1.00
O657   O    -0.00000   0.78037   0.83755   0.00000  Uiso   1.00
O658   O     0.00000   0.71963   0.16245   0.00000  Uiso   1.00
O659   O     0.21963   0.50000   0.83755   0.00000  Uiso   1.00
O660   O     0.28036   0.50000   0.16245   0.00000  Uiso   1.00
O661   O     0.20724   0.57308   0.27302   0.00000  Uiso   1.00
O662   O     0.29275   0.92693   0.72698   0.00000  Uiso   1.00
O663   O     0.42692   0.70725   0.27302   0.00000  Uiso   1.00
O664   O     0.07307   0.79275   0.72698   0.00000  Uiso   1.00
O665   O     0.29275   0.92693   0.27302   0.00000  Uiso   1.00
O666   O     0.20724   0.57308   0.72698   0.00000  Uiso   1.00
O667   O     0.07307   0.79275   0.27302   0.00000  Uiso   1.00
O668   O     0.42692   0.70725   0.72698   0.00000  Uiso   1.00
O669   O     0.20724   0.92692   0.72698   0.00000  Uiso   1.00
O670   O     0.29275   0.57308   0.27302   0.00000  Uiso   1.00
O671   O     0.42692   0.79276   0.72698   0.00000  Uiso   1.00
O672   O     0.07307   0.70724   0.27302   0.00000  Uiso   1.00
O673   O     0.29275   0.57308   0.72698   0.00000  Uiso   1.00
O674   O     0.20724   0.92692   0.27302   0.00000  Uiso   1.00
O675   O     0.07307   0.70724   0.72698   0.00000  Uiso   1.00
O676   O     0.42692   0.79276   0.27302   0.00000  Uiso   1.00
O677   O     0.45724   0.82308   0.77302   0.00000  Uiso   1.00
O678   O     0.04275   0.67692   0.22698   0.00000  Uiso   1.00
O679   O     0.17692   0.95724   0.77302   0.00000  Uiso   1.00
O680   O     0.32307   0.54276   0.22698   0.00000  Uiso   1.00
O681   O     0.04275   0.67692   0.77302   0.00000  Uiso   1.00
O682   O     0.45724   0.82308   0.22698   0.00000  Uiso   1.00
O683   O     0.32307   0.54276   0.77302   0.00000  Uiso   1.00
O684   O     0.17692   0.95724   0.22698   0.00000  Uiso   1.00
O685   O     0.45724   0.67693   0.22698   0.00000  Uiso   1.00
O686   O     0.04275   0.82307   0.77302   0.00000  Uiso   1.00
O687   O     0.17692   0.54276   0.22698   0.00000  Uiso   1.00
O688   O     0.32307   0.95725   0.77302   0.00000  Uiso   1.00
O689   O     0.04275   0.82307   0.22698   0.00000  Uiso   1.00
O690   O     0.45724   0.67693   0.77302   0.00000  Uiso   1.00
O691   O     0.32307   0.95725   0.22698   0.00000  Uiso   1.00
O692   O     0.17692   0.54276   0.77302   0.00000  Uiso   1.00
C693   C     0.01358   0.68481   0.47894   0.00000  Uiso   1.00
C694   C     0.48388   0.81472   0.51977   0.00000  Uiso   1.00
C695   C     0.31455   0.51671   0.47957   0.00000  Uiso   1.00
C696   C     0.18566   0.98206   0.52025   0.00000  Uiso   1.00
C697   C     0.48642   0.81519   0.47894   0.00000  Uiso   1.00
C698   C     0.01612   0.68528   0.51977   0.00000  Uiso   1.00
C699   C     0.18545   0.98329   0.47957   0.00000  Uiso   1.00
C700   C     0.31434   0.51795   0.52025   0.00000  Uiso   1.00
C701   C     0.26752   0.93565   0.98030   0.00000  Uiso   1.00
C702   C     0.23529   0.56494   0.02111   0.00000  Uiso   1.00
C703   C     0.05549   0.78672   0.97924   0.00000  Uiso   1.00
C704   C     0.44592   0.71105   0.02009   0.00000  Uiso   1.00
C705   C     0.23247   0.56435   0.98030   0.00000  Uiso   1.00
C706   C     0.26471   0.93506   0.02111   0.00000  Uiso   1.00
C707   C     0.44462   0.71318   0.97926   0.00000  Uiso   1.00
C708   C     0.05423   0.78883   0.02008   0.00000  Uiso   1.00
C709   C     0.25000   0.50000   0.35576   0.00000  Uiso   1.00
C710   C     0.25000   0.50000   0.64430   0.00000  Uiso   1.00
C711   C    -0.00000   0.75000   0.35575   0.00000  Uiso   1.00
C712   C     0.00000   0.75000   0.64418   0.00000  Uiso   1.00
C713   C     0.00000   0.75000   0.85584   0.00000  Uiso   1.00
C714   C     0.00000   0.75000   0.14424   0.00000  Uiso   1.00
C715   C     0.25000   0.50000   0.85582   0.00000  Uiso   1.00
C716   C     0.25000   0.50000   0.14425   0.00000  Uiso   1.00
C717   C     0.17998   0.57001   0.25000   0.00000  Uiso   1.00
C718   C     0.32001   0.92988   0.74999   0.00000  Uiso   1.00
C719   C     0.42997   0.67997   0.24999   0.00000  Uiso   1.00
C720   C     0.07004   0.82009   0.74996   0.00000  Uiso   1.00
C721   C     0.32002   0.92999   0.25000   0.00000  Uiso   1.00
C722   C     0.17999   0.57012   0.74999   0.00000  Uiso   1.00
C723   C     0.07003   0.82003   0.25000   0.00000  Uiso   1.00
C724   C     0.42996   0.67991   0.74996   0.00000  Uiso   1.00
C725   C     0.17994   0.93002   0.74999   0.00000  Uiso   1.00
C726   C     0.32002   0.57004   0.25001   0.00000  Uiso   1.00
C727   C     0.42997   0.81998   0.75005   0.00000  Uiso   1.00
C728   C     0.06998   0.67991   0.25008   0.00000  Uiso   1.00
C729   C     0.32006   0.56998   0.74999   0.00000  Uiso   1.00
C730   C     0.17998   0.92996   0.25001   0.00000  Uiso   1.00
C731   C     0.07003   0.68002   0.75005   0.00000  Uiso   1.00
C732   C     0.43002   0.82009   0.25008   0.00000  Uiso   1.00
C733   C     0.11621   0.91087   0.26158   0.00000  Uiso   1.00
C734   C     0.36499   0.60797   0.78538   0.00000  Uiso   1.00
C735   C     0.11806   0.64511   0.21589   0.00000  Uiso   1.00
C736   C     0.38880   0.86164   0.78583   0.00000  Uiso   1.00
C737   C     0.38379   0.58914   0.26158   0.00000  Uiso   1.00
C738   C     0.13501   0.89203   0.78537   0.00000  Uiso   1.00
C739   C     0.38194   0.85489   0.21589   0.00000  Uiso   1.00
C740   C     0.11119   0.63835   0.78583   0.00000  Uiso   1.00
C741   C     0.13774   0.61096   0.78581   0.00000  Uiso   1.00
C742   C     0.35489   0.88188   0.21589   0.00000  Uiso   1.00
C743   C     0.10772   0.86551   0.78527   0.00000  Uiso   1.00
C744   C     0.41085   0.61614   0.26149   0.00000  Uiso   1.00
C745   C     0.36226   0.88904   0.78581   0.00000  Uiso   1.00
C746   C     0.14511   0.61812   0.21589   0.00000  Uiso   1.00
C747   C     0.39227   0.63450   0.78527   0.00000  Uiso   1.00
C748   C     0.08915   0.88386   0.26149   0.00000  Uiso   1.00
C749   C     0.38485   0.64182   0.71449   0.00000  Uiso   1.00
C750   C     0.13385   0.83910   0.23861   0.00000  Uiso   1.00
C751   C     0.35997   0.88658   0.71436   0.00000  Uiso   1.00
C752   C     0.13174   0.60455   0.28423   0.00000  Uiso   1.00
C753   C     0.11515   0.85818   0.71449   0.00000  Uiso   1.00
C754   C     0.36615   0.66090   0.23861   0.00000  Uiso   1.00
C755   C     0.14003   0.61342   0.71436   0.00000  Uiso   1.00
C756   C     0.36826   0.89546   0.28423   0.00000  Uiso   1.00
C757   C     0.39522   0.86834   0.28428   0.00000  Uiso   1.00
C758   C     0.11221   0.63945   0.71440   0.00000  Uiso   1.00
C759   C     0.33912   0.63387   0.23859   0.00000  Uiso   1.00
C760   C     0.14131   0.88585   0.71443   0.00000  Uiso   1.00
C761   C     0.10478   0.63166   0.28428   0.00000  Uiso   1.00
C762   C     0.38780   0.86055   0.71440   0.00000  Uiso   1.00
C763   C     0.16088   0.86613   0.23860   0.00000  Uiso   1.00
C764   C     0.35869   0.61415   0.71442   0.00000  Uiso   1.00
C765   C     0.00334   0.71670   0.45869   0.00000  Uiso   1.00
C766   C     0.49401   0.78307   0.54080   0.00000  Uiso   1.00
C767   C     0.28199   0.51019   0.45879   0.00000  Uiso   1.00
C768   C     0.21724   0.99212   0.54133   0.00000  Uiso   1.00
C769   C     0.49666   0.78330   0.45869   0.00000  Uiso   1.00
C770   C     0.00599   0.71693   0.54080   0.00000  Uiso   1.00
C771   C     0.21801   0.98981   0.45879   0.00000  Uiso   1.00
C772   C     0.28276   0.50788   0.54133   0.00000  Uiso   1.00
C773   C     0.25681   0.96708   0.95922   0.00000  Uiso   1.00
C774   C     0.24615   0.53323   0.04132   0.00000  Uiso   1.00
C775   C     0.02961   0.76548   0.95903   0.00000  Uiso   1.00
C776   C     0.47157   0.73211   0.04111   0.00000  Uiso   1.00
C777   C     0.24319   0.53292   0.95922   0.00000  Uiso   1.00
C778   C     0.25385   0.96677   0.04132   0.00000  Uiso   1.00
C779   C     0.47047   0.73446   0.95904   0.00000  Uiso   1.00
C780   C     0.02854   0.76782   0.04111   0.00000  Uiso   1.00
C781   C     0.09811   0.84811   0.25000   0.00000  Uiso   1.00
C782   C     0.40192   0.65175   0.74990   0.00000  Uiso   1.00
C783   C     0.15186   0.59802   0.25005   0.00000  Uiso   1.00
C784   C     0.34787   0.90151   0.75005   0.00000  Uiso   1.00
C785   C     0.40189   0.65189   0.25000   0.00000  Uiso   1.00
C786   C     0.09808   0.84825   0.74990   0.00000  Uiso   1.00
C787   C     0.34814   0.90198   0.25005   0.00000  Uiso   1.00
C788   C     0.15213   0.59849   0.75005   0.00000  Uiso   1.00
C789   C     0.09813   0.65207   0.75011   0.00000  Uiso   1.00
C790   C     0.40195   0.84820   0.25010   0.00000  Uiso   1.00
C791   C     0.15172   0.90218   0.74994   0.00000  Uiso   1.00
C792   C     0.34809   0.59812   0.25005   0.00000  Uiso   1.00
C793   C     0.40187   0.84793   0.75011   0.00000  Uiso   1.00
C794   C     0.09805   0.65180   0.25010   0.00000  Uiso   1.00
C795   C     0.34828   0.59782   0.74994   0.00000  Uiso   1.00
C796   C     0.15191   0.90188   0.25005   0.00000  Uiso   1.00
C797   C     0.00000   0.75000   0.47929   0.00000  Uiso   1.00
C798   C     0.00000   0.75000   0.52033   0.00000  Uiso   1.00
C799   C     0.25000   0.50000   0.47946   0.00000  Uiso   1.00
C800   C     0.25000   0.50000   0.52071   0.00000  Uiso   1.00
C801   C     0.25000   0.50000   0.97969   0.00000  Uiso   1.00
C802   C     0.25000   0.50000   0.02072   0.00000  Uiso   1.00
C803   C     0.00005   0.74997   0.97963   0.00000  Uiso   1.00
C804   C     0.00005   0.74997   0.02065   0.00000  Uiso   1.00
N805   N     0.02864   0.65438   0.45826   0.00000  Uiso   1.00
O806   O     0.05804   0.65853   0.43762   0.00000  Uiso   1.00
O807   O     0.01342   0.62245   0.46036   0.00000  Uiso   1.00
N808   N     0.46422   0.84356   0.53862   0.00000  Uiso   1.00
O809   O     0.43360   0.83652   0.55609   0.00000  Uiso   1.00
O810   O     0.47596   0.87696   0.53723   0.00000  Uiso   1.00
N811   N     0.34908   0.51805   0.46011   0.00000  Uiso   1.00
O812   O     0.36109   0.98935   0.44194   0.00000  Uiso   1.00
O813   O     0.36989   0.54660   0.46321   0.00000  Uiso   1.00
N814   N     0.15437   0.96715   0.53935   0.00000  Uiso   1.00
O815   O     0.15622   0.93481   0.55472   0.00000  Uiso   1.00
O816   O     0.12302   0.98361   0.53717   0.00000  Uiso   1.00
N817   N     0.47136   0.84562   0.45826   0.00000  Uiso   1.00
O818   O     0.44196   0.84147   0.43762   0.00000  Uiso   1.00
O819   O     0.48658   0.87755   0.46036   0.00000  Uiso   1.00
N820   N     0.03578   0.65644   0.53862   0.00000  Uiso   1.00
O821   O     0.02405   0.62304   0.53723   0.00000  Uiso   1.00
O822   O     0.06640   0.66349   0.55609   0.00000  Uiso   1.00
N823   N     0.15092   0.98195   0.46011   0.00000  Uiso   1.00
O824   O     0.13891   0.51065   0.44194   0.00000  Uiso   1.00
O825   O     0.13011   0.95340   0.46322   0.00000  Uiso   1.00
N826   N     0.34563   0.53286   0.53935   0.00000  Uiso   1.00
O827   O     0.34378   0.56520   0.55472   0.00000  Uiso   1.00
O828   O     0.37698   0.51640   0.53717   0.00000  Uiso   1.00
N829   N     0.28798   0.90729   0.96160   0.00000  Uiso   1.00
O830   O     0.27709   0.87360   0.96297   0.00000  Uiso   1.00
O831   O     0.31853   0.91507   0.94433   0.00000  Uiso   1.00
N832   N     0.21991   0.59515   0.04188   0.00000  Uiso   1.00
O833   O     0.19069   0.59059   0.06271   0.00000  Uiso   1.00
O834   O     0.23468   0.62729   0.03968   0.00000  Uiso   1.00
N835   N     0.07805   0.81200   0.95849   0.00000  Uiso   1.00
O836   O     0.06315   0.83797   0.93823   0.00000  Uiso   1.00
O837   O     0.11335   0.80968   0.96037   0.00000  Uiso   1.00
N838   N     0.42620   0.68231   0.03900   0.00000  Uiso   1.00
O839   O     0.39084   0.68102   0.03734   0.00000  Uiso   1.00
O840   O     0.44384   0.65670   0.05718   0.00000  Uiso   1.00
N841   N     0.21201   0.59271   0.96160   0.00000  Uiso   1.00
O842   O     0.22291   0.62640   0.96297   0.00000  Uiso   1.00
O843   O     0.18146   0.58493   0.94434   0.00000  Uiso   1.00
N844   N     0.28009   0.90485   0.04188   0.00000  Uiso   1.00
O845   O     0.30931   0.90941   0.06271   0.00000  Uiso   1.00
O846   O     0.26532   0.87271   0.03969   0.00000  Uiso   1.00
N847   N     0.42207   0.68790   0.95850   0.00000  Uiso   1.00
O848   O     0.43698   0.66196   0.93821   0.00000  Uiso   1.00
O849   O     0.38677   0.69022   0.96038   0.00000  Uiso   1.00
N850   N     0.07409   0.81747   0.03898   0.00000  Uiso   1.00
O851   O     0.10947   0.81852   0.03743   0.00000  Uiso   1.00
O852   O     0.05656   0.84332   0.05692   0.00000  Uiso   1.00
I853   I     0.10403   0.96505   0.28102   0.00000  Uiso   1.00
I854   I     0.34842   0.58484   0.84035   0.00000  Uiso   1.00
I855   I     0.10842   0.67726   0.16482   0.00000  Uiso   1.00
I856   I     0.40715   0.83929   0.84035   0.00000  Uiso   1.00
I857   I     0.39596   0.53495   0.28103   0.00000  Uiso   1.00
I858   I     0.15158   0.91516   0.84035   0.00000  Uiso   1.00
I859   I     0.39158   0.82274   0.16483   0.00000  Uiso   1.00
I860   I     0.09283   0.66069   0.84036   0.00000  Uiso   1.00
I861   I     0.15744   0.59051   0.84056   0.00000  Uiso   1.00
I862   I     0.32279   0.89133   0.16487   0.00000  Uiso   1.00
I863   I     0.08271   0.85122   0.83995   0.00000  Uiso   1.00
I864   I     0.46510   0.60378   0.28047   0.00000  Uiso   1.00
I865   I     0.34256   0.90949   0.84056   0.00000  Uiso   1.00
I866   I     0.17721   0.60866   0.16487   0.00000  Uiso   1.00
I867   I     0.41727   0.64882   0.83995   0.00000  Uiso   1.00
I868   I     0.03489   0.89622   0.28045   0.00000  Uiso   1.00
I869   I     0.39868   0.66706   0.65977   0.00000  Uiso   1.00
I870   I     0.14621   0.78478   0.21973   0.00000  Uiso   1.00
I871   I     0.33726   0.90313   0.65944   0.00000  Uiso   1.00
I872   I     0.14100   0.57170   0.33499   0.00000  Uiso   1.00
I873   I     0.10132   0.83294   0.65978   0.00000  Uiso   1.00
I874   I     0.35380   0.71521   0.21971   0.00000  Uiso   1.00
I875   I     0.16274   0.59687   0.65944   0.00000  Uiso   1.00
I876   I     0.35900   0.92830   0.33499   0.00000  Uiso   1.00
I877   I     0.42720   0.85880   0.33533   0.00000  Uiso   1.00
I878   I     0.08986   0.65774   0.65984   0.00000  Uiso   1.00
I879   I     0.28487   0.64621   0.21957   0.00000  Uiso   1.00
I880   I     0.16272   0.90461   0.65947   0.00000  Uiso   1.00
I881   I     0.07280   0.64120   0.33533   0.00000  Uiso   1.00
I882   I     0.41015   0.84227   0.65985   0.00000  Uiso   1.00
I883   I     0.21513   0.85379   0.21959   0.00000  Uiso   1.00
I884   I     0.33728   0.59539   0.65947   0.00000  Uiso   1.00
I885   I     0.02098   0.83027   0.38680   0.00000  Uiso   1.00
I886   I     0.49350   0.66768   0.61453   0.00000  Uiso   1.00
I887   I     0.18172   0.95265   0.38512   0.00000  Uiso   1.00
I888   I     0.33182   0.99771   0.61671   0.00000  Uiso   1.00
I889   I     0.47902   0.66973   0.38680   0.00000  Uiso   1.00
I890   I     0.00651   0.83232   0.61453   0.00000  Uiso   1.00
I891   I     0.31828   0.54735   0.38512   0.00000  Uiso   1.00
I892   I     0.16818   0.50229   0.61671   0.00000  Uiso   1.00
I893   I     0.25394   0.58246   0.88539   0.00000  Uiso   1.00
I894   I     0.22973   0.91953   0.11303   0.00000  Uiso   1.00
I895   I     0.41748   0.74176   0.88833   0.00000  Uiso   1.00
I896   I     0.07899   0.77410   0.11510   0.00000  Uiso   1.00
I897   I     0.24605   0.91754   0.88539   0.00000  Uiso   1.00
I898   I     0.27027   0.58047   0.11303   0.00000  Uiso   1.00
I899   I     0.08254   0.75823   0.88825   0.00000  Uiso   1.00
I900   I     0.42102   0.72593   0.11500   0.00000  Uiso   1.00
Zn901  Zn    0.70659   0.50000   0.21735   0.00000  Uiso   1.00
Zn902  Zn    0.79340   0.50000   0.78265   0.00000  Uiso   1.00
Zn903  Zn    0.50000   0.70659   0.21735   0.00000  Uiso   1.00
Zn904  Zn    0.50000   0.79341   0.78265   0.00000  Uiso   1.00
Zn905  Zn    0.79340   0.50000   0.21735   0.00000  Uiso   1.00
Zn906  Zn    0.70659   0.50000   0.78265   0.00000  Uiso   1.00
Zn907  Zn    0.50000   0.79340   0.21735   0.00000  Uiso   1.00
Zn908  Zn    0.50000   0.70659   0.78265   0.00000  Uiso   1.00
Zn909  Zn    0.95659   0.75000   0.71735   0.00000  Uiso   1.00
Zn910  Zn    0.54340   0.75000   0.28265   0.00000  Uiso   1.00
Zn911  Zn    0.75000   0.95660   0.71735   0.00000  Uiso   1.00
Zn912  Zn    0.75000   0.54341   0.28265   0.00000  Uiso   1.00
Zn913  Zn    0.54340   0.75000   0.71735   0.00000  Uiso   1.00
Zn914  Zn    0.95659   0.75000   0.28265   0.00000  Uiso   1.00
Zn915  Zn    0.75000   0.54341   0.71735   0.00000  Uiso   1.00
Zn916  Zn    0.75000   0.95660   0.28265   0.00000  Uiso   1.00
C917   C     0.50244   0.78309   0.41809   0.00000  Uiso   1.00
C918   C     0.50218   0.71680   0.58174   0.00000  Uiso   1.00
C919   C     0.72014   0.98524   0.41797   0.00000  Uiso   1.00
C920   C     0.78303   0.50390   0.58230   0.00000  Uiso   1.00
C921   C     0.99756   0.71691   0.41809   0.00000  Uiso   1.00
C922   C     0.99782   0.78320   0.58174   0.00000  Uiso   1.00
C923   C     0.77986   0.51476   0.41797   0.00000  Uiso   1.00
C924   C     0.71697   0.99610   0.58230   0.00000  Uiso   1.00
C925   C     0.74685   0.53313   0.91827   0.00000  Uiso   1.00
C926   C     0.74797   0.96689   0.08190   0.00000  Uiso   1.00
C927   C     0.96850   0.73990   0.91847   0.00000  Uiso   1.00
C928   C     0.53002   0.76444   0.08203   0.00000  Uiso   1.00
C929   C     0.75314   0.96687   0.91827   0.00000  Uiso   1.00
C930   C     0.75203   0.53311   0.08190   0.00000  Uiso   1.00
C931   C     0.53154   0.76008   0.91845   0.00000  Uiso   1.00
C932   C     0.97005   0.73554   0.08202   0.00000  Uiso   1.00
C933   C     0.50000   0.75000   0.39800   0.00000  Uiso   1.00
C934   C     0.50000   0.75000   0.60177   0.00000  Uiso   1.00
C935   C     0.75000   0.50000   0.39801   0.00000  Uiso   1.00
C936   C     0.75000   0.50000   0.60209   0.00000  Uiso   1.00
C937   C     0.75000   0.50000   0.89823   0.00000  Uiso   1.00
C938   C     0.75000   0.50000   0.10200   0.00000  Uiso   1.00
C939   C     0.50001   0.75000   0.89823   0.00000  Uiso   1.00
C940   C     0.50002   0.75000   0.10196   0.00000  Uiso   1.00
O941   O     0.75000   0.50000   0.25000   0.00000  Uiso   1.00
O942   O     0.75000   0.50000   0.75000   0.00000  Uiso   1.00
O943   O     0.50000   0.75000   0.25000   0.00000  Uiso   1.00
O944   O     0.50000   0.75000   0.75000   0.00000  Uiso   1.00
O945   O     0.75000   0.96964   0.33755   0.00000  Uiso   1.00
O946   O     0.75000   0.53037   0.66245   0.00000  Uiso   1.00
O947   O     0.53036   0.75000   0.33755   0.00000  Uiso   1.00
O948   O     0.96963   0.75000   0.66245   0.00000  Uiso   1.00
O949   O     0.75000   0.53037   0.33755   0.00000  Uiso   1.00
O950   O     0.75000   0.96964   0.66245   0.00000  Uiso   1.00
O951   O     0.96963   0.75000   0.33755   0.00000  Uiso   1.00
O952   O     0.53036   0.75000   0.66245   0.00000  Uiso   1.00
O953   O     0.50000   0.71964   0.83755   0.00000  Uiso   1.00
O954   O     0.50000   0.78036   0.16245   0.00000  Uiso   1.00
O955   O     0.78036   0.50000   0.83755   0.00000  Uiso   1.00
O956   O     0.71963   0.50000   0.16245   0.00000  Uiso   1.00
O957   O     0.50000   0.78037   0.83755   0.00000  Uiso   1.00
O958   O     0.50000   0.71963   0.16245   0.00000  Uiso   1.00
O959   O     0.71963   0.50000   0.83755   0.00000  Uiso   1.00
O960   O     0.78036   0.50000   0.16245   0.00000  Uiso   1.00
O961   O     0.70724   0.57308   0.27302   0.00000  Uiso   1.00
O962   O     0.79275   0.92693   0.72698   0.00000  Uiso   1.00
O963   O     0.92692   0.70725   0.27302   0.00000  Uiso   1.00
O964   O     0.57307   0.79275   0.72698   0.00000  Uiso   1.00
O965   O     0.79275   0.92693   0.27302   0.00000  Uiso   1.00
O966   O     0.70724   0.57308   0.72698   0.00000  Uiso   1.00
O967   O     0.57307   0.79275   0.27302   0.00000  Uiso   1.00
O968   O     0.92692   0.70725   0.72698   0.00000  Uiso   1.00
O969   O     0.70724   0.92692   0.72698   0.00000  Uiso   1.00
O970   O     0.79275   0.57308   0.27302   0.00000  Uiso   1.00
O971   O     0.92692   0.79276   0.72698   0.00000  Uiso   1.00
O972   O     0.57307   0.70724   0.27302   0.00000  Uiso   1.00
O973   O     0.79275   0.57308   0.72698   0.00000  Uiso   1.00
O974   O     0.70724   0.92692   0.27302   0.00000  Uiso   1.00
O975   O     0.57307   0.70724   0.72698   0.00000  Uiso   1.00
O976   O     0.92692   0.79276   0.27302   0.00000  Uiso   1.00
O977   O     0.95724   0.82308   0.77302   0.00000  Uiso   1.00
O978   O     0.54275   0.67692   0.22698   0.00000  Uiso   1.00
O979   O     0.67692   0.95724   0.77302   0.00000  Uiso   1.00
O980   O     0.82307   0.54276   0.22698   0.00000  Uiso   1.00
O981   O     0.54275   0.67692   0.77302   0.00000  Uiso   1.00
O982   O     0.95724   0.82308   0.22698   0.00000  Uiso   1.00
O983   O     0.82307   0.54276   0.77302   0.00000  Uiso   1.00
O984   O     0.67692   0.95724   0.22698   0.00000  Uiso   1.00
O985   O     0.95724   0.67693   0.22698   0.00000  Uiso   1.00
O986   O     0.54275   0.82307   0.77302   0.00000  Uiso   1.00
O987   O     0.67692   0.54276   0.22698   0.00000  Uiso   1.00
O988   O     0.82307   0.95725   0.77302   0.00000  Uiso   1.00
O989   O     0.54275   0.82307   0.22698   0.00000  Uiso   1.00
O990   O     0.95724   0.67693   0.77302   0.00000  Uiso   1.00
O991   O     0.82307   0.95725   0.22698   0.00000  Uiso   1.00
O992   O     0.67692   0.54276   0.77302   0.00000  Uiso   1.00
C993   C     0.51358   0.68481   0.47894   0.00000  Uiso   1.00
C994   C     0.98388   0.81472   0.51977   0.00000  Uiso   1.00
C995   C     0.81455   0.51671   0.47957   0.00000  Uiso   1.00
C996   C     0.68566   0.98206   0.52025   0.00000  Uiso   1.00
C997   C     0.98642   0.81519   0.47894   0.00000  Uiso   1.00
C998   C     0.51612   0.68528   0.51977   0.00000  Uiso   1.00
C999   C     0.68545   0.98329   0.47957   0.00000  Uiso   1.00
C1000  C     0.81434   0.51795   0.52025   0.00000  Uiso   1.00
C1001  C     0.76752   0.93565   0.98030   0.00000  Uiso   1.00
C1002  C     0.73529   0.56494   0.02111   0.00000  Uiso   1.00
C1003  C     0.55549   0.78672   0.97924   0.00000  Uiso   1.00
C1004  C     0.94592   0.71105   0.02009   0.00000  Uiso   1.00
C1005  C     0.73247   0.56435   0.98030   0.00000  Uiso   1.00
C1006  C     0.76471   0.93506   0.02111   0.00000  Uiso   1.00
C1007  C     0.94462   0.71318   0.97926   0.00000  Uiso   1.00
C1008  C     0.55423   0.78883   0.02008   0.00000  Uiso   1.00
C1009  C     0.75000   0.50000   0.35576   0.00000  Uiso   1.00
C1010  C     0.75000   0.50000   0.64430   0.00000  Uiso   1.00
C1011  C     0.50000   0.75000   0.35575   0.00000  Uiso   1.00
C1012  C     0.50000   0.75000   0.64418   0.00000  Uiso   1.00
C1013  C     0.50000   0.75000   0.85584   0.00000  Uiso   1.00
C1014  C     0.50000   0.75000   0.14424   0.00000  Uiso   1.00
C1015  C     0.75000   0.50000   0.85582   0.00000  Uiso   1.00
C1016  C     0.75000   0.50000   0.14425   0.00000  Uiso   1.00
C1017  C     0.67998   0.57001   0.25000   0.00000  Uiso   1.00
C1018  C     0.82001   0.92988   0.74999   0.00000  Uiso   1.00
C1019  C     0.92997   0.67997   0.24999   0.00000  Uiso   1.00
C1020  C     0.57004   0.82009   0.74996   0.00000  Uiso   1.00
C1021  C     0.82002   0.92999   0.25000   0.00000  Uiso   1.00
C1022  C     0.67999   0.57012   0.74999   0.00000  Uiso   1.00
C1023  C     0.57003   0.82003   0.25000   0.00000  Uiso   1.00
C1024  C     0.92996   0.67991   0.74996   0.00000  Uiso   1.00
C1025  C     0.67994   0.93002   0.74999   0.00000  Uiso   1.00
C1026  C     0.82002   0.57004   0.25001   0.00000  Uiso   1.00
C1027  C     0.92997   0.81998   0.75005   0.00000  Uiso   1.00
C1028  C     0.56998   0.67991   0.25008   0.00000  Uiso   1.00
C1029  C     0.82006   0.56998   0.74999   0.00000  Uiso   1.00
C1030  C     0.67998   0.92996   0.25001   0.00000  Uiso   1.00
C1031  C     0.57003   0.68002   0.75005   0.00000  Uiso   1.00
C1032  C     0.93002   0.82009   0.25008   0.00000  Uiso   1.00
C1033  C     0.61621   0.91087   0.26158   0.00000  Uiso   1.00
C1034  C     0.86499   0.60797   0.78538   0.00000  Uiso   1.00
C1035  C     0.61806   0.64511   0.21589   0.00000  Uiso   1.00
C1036  C     0.88880   0.86164   0.78583   0.00000  Uiso   1.00
C1037  C     0.88379   0.58914   0.26158   0.00000  Uiso   1.00
C1038  C     0.63501   0.89203   0.78537   0.00000  Uiso   1.00
C1039  C     0.88194   0.85489   0.21589   0.00000  Uiso   1.00
C1040  C     0.61119   0.63835   0.78583   0.00000  Uiso   1.00
C1041  C     0.63774   0.61096   0.78581   0.00000  Uiso   1.00
C1042  C     0.85489   0.88188   0.21589   0.00000  Uiso   1.00
C1043  C     0.60772   0.86551   0.78527   0.00000  Uiso   1.00
C1044  C     0.91085   0.61614   0.26149   0.00000  Uiso   1.00
C1045  C     0.86226   0.88904   0.78581   0.00000  Uiso   1.00
C1046  C     0.64511   0.61812   0.21589   0.00000  Uiso   1.00
C1047  C     0.89227   0.63450   0.78527   0.00000  Uiso   1.00
C1048  C     0.58915   0.88386   0.26149   0.00000  Uiso   1.00
C1049  C     0.88485   0.64182   0.71449   0.00000  Uiso   1.00
C1050  C     0.63385   0.83910   0.23861   0.00000  Uiso   1.00
C1051  C     0.85997   0.88658   0.71436   0.00000  Uiso   1.00
C1052  C     0.63174   0.60455   0.28423   0.00000  Uiso   1.00
C1053  C     0.61515   0.85818   0.71449   0.00000  Uiso   1.00
C1054  C     0.86615   0.66090   0.23861   0.00000  Uiso   1.00
C1055  C     0.64003   0.61342   0.71436   0.00000  Uiso   1.00
C1056  C     0.86826   0.89546   0.28423   0.00000  Uiso   1.00
C1057  C     0.89522   0.86834   0.28428   0.00000  Uiso   1.00
C1058  C     0.61221   0.63945   0.71440   0.00000  Uiso   1.00
C1059  C     0.83912   0.63387   0.23859   0.00000  Uiso   1.00
C1060  C     0.64131   0.88585   0.71443   0.00000  Uiso   1.00
C1061  C     0.60478   0.63166   0.28428   0.00000  Uiso   1.00
C1062  C     0.88780   0.86055   0.71440   0.00000  Uiso   1.00
C1063  C     0.66088   0.86613   0.23860   0.00000  Uiso   1.00
C1064  C     0.85869   0.61415   0.71442   0.00000  Uiso   1.00
C1065  C     0.50334   0.71670   0.45869   0.00000  Uiso   1.00
C1066  C     0.99401   0.78307   0.54080   0.00000  Uiso   1.00
C1067  C     0.78199   0.51019   0.45879   0.00000  Uiso   1.00
C1068  C     0.71724   0.99212   0.54133   0.00000  Uiso   1.00
C1069  C     0.99666   0.78330   0.45869   0.00000  Uiso   1.00
C1070  C     0.50599   0.71693   0.54080   0.00000  Uiso   1.00
C1071  C     0.71801   0.98981   0.45879   0.00000  Uiso   1.00
C1072  C     0.78276   0.50788   0.54133   0.00000  Uiso   1.00
C1073  C     0.75681   0.96708   0.95922   0.00000  Uiso   1.00
C1074  C     0.74615   0.53323   0.04132   0.00000  Uiso   1.00
C1075  C     0.52961   0.76548   0.95903   0.00000  Uiso   1.00
C1076  C     0.97157   0.73211   0.04111   0.00000  Uiso   1.00
C1077  C     0.74319   0.53292   0.95922   0.00000  Uiso   1.00
C1078  C     0.75385   0.96677   0.04132   0.00000  Uiso   1.00
C1079  C     0.97047   0.73446   0.95904   0.00000  Uiso   1.00
C1080  C     0.52854   0.76782   0.04111   0.00000  Uiso   1.00
C1081  C     0.59811   0.84811   0.25000   0.00000  Uiso   1.00
C1082  C     0.90192   0.65175   0.74990   0.00000  Uiso   1.00
C1083  C     0.65186   0.59802   0.25005   0.00000  Uiso   1.00
C1084  C     0.84787   0.90151   0.75005   0.00000  Uiso   1.00
C1085  C     0.90189   0.65189   0.25000   0.00000  Uiso   1.00
C1086  C     0.59808   0.84825   0.74990   0.00000  Uiso   1.00
C1087  C     0.84814   0.90198   0.25005   0.00000  Uiso   1.00
C1088  C     0.65213   0.59849   0.75005   0.00000  Uiso   1.00
C1089  C     0.59813   0.65207   0.75011   0.00000  Uiso   1.00
C1090  C     0.90195   0.84820   0.25010   0.00000  Uiso   1.00
C1091  C     0.65172   0.90218   0.74994   0.00000  Uiso   1.00
C1092  C     0.84809   0.59812   0.25005   0.00000  Uiso   1.00
C1093  C     0.90187   0.84793   0.75011   0.00000  Uiso   1.00
C1094  C     0.59805   0.65180   0.25010   0.00000  Uiso   1.00
C1095  C     0.84828   0.59782   0.74994   0.00000  Uiso   1.00
C1096  C     0.65191   0.90188   0.25005   0.00000  Uiso   1.00
C1097  C     0.50000   0.75000   0.47929   0.00000  Uiso   1.00
C1098  C     0.50000   0.75000   0.52033   0.00000  Uiso   1.00
C1099  C     0.75000   0.50000   0.47946   0.00000  Uiso   1.00
C1100  C     0.75000   0.50000   0.52071   0.00000  Uiso   1.00
C1101  C     0.75000   0.50000   0.97969   0.00000  Uiso   1.00
C1102  C     0.75000   0.50000   0.02072   0.00000  Uiso   1.00
C1103  C     0.50005   0.74997   0.97963   0.00000  Uiso   1.00
C1104  C     0.50005   0.74997   0.02065   0.00000  Uiso   1.00
N1105  N     0.52864   0.65438   0.45826   0.00000  Uiso   1.00
O1106  O     0.55804   0.65853   0.43762   0.00000  Uiso   1.00
O1107  O     0.51342   0.62245   0.46036   0.00000  Uiso   1.00
N1108  N     0.96422   0.84356   0.53862   0.00000  Uiso   1.00
O1109  O     0.93360   0.83652   0.55609   0.00000  Uiso   1.00
O1110  O     0.97596   0.87696   0.53723   0.00000  Uiso   1.00
N1111  N     0.84908   0.51805   0.46011   0.00000  Uiso   1.00
O1112  O     0.86109   0.98935   0.44194   0.00000  Uiso   1.00
O1113  O     0.86989   0.54660   0.46321   0.00000  Uiso   1.00
N1114  N     0.65437   0.96715   0.53935   0.00000  Uiso   1.00
O1115  O     0.65622   0.93481   0.55472   0.00000  Uiso   1.00
O1116  O     0.62302   0.98361   0.53717   0.00000  Uiso   1.00
N1117  N     0.97136   0.84562   0.45826   0.00000  Uiso   1.00
O1118  O     0.94196   0.84147   0.43762   0.00000  Uiso   1.00
O1119  O     0.98658   0.87755   0.46036   0.00000  Uiso   1.00
N1120  N     0.53578   0.65644   0.53862   0.00000  Uiso   1.00
O1121  O     0.52405   0.62304   0.53723   0.00000  Uiso   1.00
O1122  O     0.56640   0.66349   0.55609   0.00000  Uiso   1.00
N1123  N     0.65092   0.98195   0.46011   0.00000  Uiso   1.00
O1124  O     0.63891   0.51065   0.44194   0.00000  Uiso   1.00
O1125  O     0.63011   0.95340   0.46322   0.00000  Uiso   1.00
N1126  N     0.84563   0.53286   0.53935   0.00000  Uiso   1.00
O1127  O     0.84378   0.56520   0.55472   0.00000  Uiso   1.00
O1128  O     0.87698   0.51640   0.53717   0.00000  Uiso   1.00
N1129  N     0.78798   0.90729   0.96160   0.00000  Uiso   1.00
O1130  O     0.77709   0.87360   0.96297   0.00000  Uiso   1.00
O1131  O     0.81853   0.91507   0.94433   0.00000  Uiso   1.00
N1132  N     0.71991   0.59515   0.04188   0.00000  Uiso   1.00
O1133  O     0.69069   0.59059   0.06271   0.00000  Uiso   1.00
O1134  O     0.73468   0.62729   0.03968   0.00000  Uiso   1.00
N1135  N     0.57805   0.81200   0.95849   0.00000  Uiso   1.00
O1136  O     0.56315   0.83797   0.93823   0.00000  Uiso   1.00
O1137  O     0.61335   0.80968   0.96037   0.00000  Uiso   1.00
N1138  N     0.92620   0.68231   0.03900   0.00000  Uiso   1.00
O1139  O     0.89084   0.68102   0.03734   0.00000  Uiso   1.00
O1140  O     0.94384   0.65670   0.05718   0.00000  Uiso   1.00
N1141  N     0.71201   0.59271   0.96160   0.00000  Uiso   1.00
O1142  O     0.72291   0.62640   0.96297   0.00000  Uiso   1.00
O1143  O     0.68146   0.58493   0.94434   0.00000  Uiso   1.00
N1144  N     0.78009   0.90485   0.04188   0.00000  Uiso   1.00
O1145  O     0.80931   0.90941   0.06271   0.00000  Uiso   1.00
O1146  O     0.76532   0.87271   0.03969   0.00000  Uiso   1.00
N1147  N     0.92207   0.68790   0.95850   0.00000  Uiso   1.00
O1148  O     0.93698   0.66196   0.93821   0.00000  Uiso   1.00
O1149  O     0.88677   0.69022   0.96038   0.00000  Uiso   1.00
N1150  N     0.57409   0.81747   0.03898   0.00000  Uiso   1.00
O1151  O     0.60947   0.81852   0.03743   0.00000  Uiso   1.00
O1152  O     0.55656   0.84332   0.05692   0.00000  Uiso   1.00
I1153  I     0.60403   0.96505   0.28102   0.00000  Uiso   1.00
I1154  I     0.84842   0.58484   0.84035   0.00000  Uiso   1.00
I1155  I     0.60842   0.67726   0.16482   0.00000  Uiso   1.00
I1156  I     0.90715   0.83929   0.84035   0.00000  Uiso   1.00
I1157  I     0.89596   0.53495   0.28103   0.00000  Uiso   1.00
I1158  I     0.65158   0.91516   0.84035   0.00000  Uiso   1.00
I1159  I     0.89158   0.82274   0.16483   0.00000  Uiso   1.00
I1160  I     0.59283   0.66069   0.84036   0.00000  Uiso   1.00
I1161  I     0.65744   0.59051   0.84056   0.00000  Uiso   1.00
I1162  I     0.82279   0.89133   0.16487   0.00000  Uiso   1.00
I1163  I     0.58271   0.85122   0.83995   0.00000  Uiso   1.00
I1164  I     0.96510   0.60378   0.28047   0.00000  Uiso   1.00
I1165  I     0.84256   0.90949   0.84056   0.00000  Uiso   1.00
I1166  I     0.67721   0.60866   0.16487   0.00000  Uiso   1.00
I1167  I     0.91727   0.64882   0.83995   0.00000  Uiso   1.00
I1168  I     0.53489   0.89622   0.28045   0.00000  Uiso   1.00
I1169  I     0.89868   0.66706   0.65977   0.00000  Uiso   1.00
I1170  I     0.64621   0.78478   0.21973   0.00000  Uiso   1.00
I1171  I     0.83726   0.90313   0.65944   0.00000  Uiso   1.00
I1172  I     0.64100   0.57170   0.33499   0.00000  Uiso   1.00
I1173  I     0.60132   0.83294   0.65978   0.00000  Uiso   1.00
I1174  I     0.85380   0.71521   0.21971   0.00000  Uiso   1.00
I1175  I     0.66274   0.59687   0.65944   0.00000  Uiso   1.00
I1176  I     0.85900   0.92830   0.33499   0.00000  Uiso   1.00
I1177  I     0.92720   0.85880   0.33533   0.00000  Uiso   1.00
I1178  I     0.58986   0.65774   0.65984   0.00000  Uiso   1.00
I1179  I     0.78487   0.64621   0.21957   0.00000  Uiso   1.00
I1180  I     0.66272   0.90461   0.65947   0.00000  Uiso   1.00
I1181  I     0.57280   0.64120   0.33533   0.00000  Uiso   1.00
I1182  I     0.91015   0.84227   0.65985   0.00000  Uiso   1.00
I1183  I     0.71513   0.85379   0.21959   0.00000  Uiso   1.00
I1184  I     0.83728   0.59539   0.65947   0.00000  Uiso   1.00
I1185  I     0.52098   0.83027   0.38680   0.00000  Uiso   1.00
I1186  I     0.99350   0.66768   0.61453   0.00000  Uiso   1.00
I1187  I     0.68172   0.95265   0.38512   0.00000  Uiso   1.00
I1188  I     0.83182   0.99771   0.61671   0.00000  Uiso   1.00
I1189  I     0.97902   0.66973   0.38680   0.00000  Uiso   1.00
I1190  I     0.50651   0.83232   0.61453   0.00000  Uiso   1.00
I1191  I     0.81828   0.54735   0.38512   0.00000  Uiso   1.00
I1192  I     0.66818   0.50229   0.61671   0.00000  Uiso   1.00
I1193  I     0.75394   0.58246   0.88539   0.00000  Uiso   1.00
I1194  I     0.72973   0.91953   0.11303   0.00000  Uiso   1.00
I1195  I     0.91748   0.74176   0.88833   0.00000  Uiso   1.00
I1196  I     0.57899   0.77410   0.11510   0.00000  Uiso   1.00
I1197  I     0.74605   0.91754   0.88539   0.00000  Uiso   1.00
I1198  I     0.77027   0.58047   0.11303   0.00000  Uiso   1.00
I1199  I     0.58254   0.75823   0.88825   0.00000  Uiso   1.00
I1200  I     0.92102   0.72593   0.11500   0.00000  Uiso   1.00
loop_
_geom_bond_atom_site_label_1
_geom_bond_atom_site_label_2
_geom_bond_distance
_geom_bond_site_symmetry_2
_ccdc_geom_bond_type
Zn1    O684    1.940   1_545 S
Zn1    O41     1.950   .     S
Zn1    O56     1.946   .     S
Zn1    O87     1.939   .     S
Zn2    O55     1.946   .     S
Zn2    O83     1.940   .     S
Zn2    O42     1.950   .     S
Zn2    O688    1.939   1_545 S
Zn3    O58     1.946   .     S
Zn3    O78     1.939   .     S
Zn3    O43     1.949   .     S
Zn3    O385    1.940   1_455 S
Zn4    O377    1.939   1_455 S
Zn4    O57     1.946   .     S
Zn4    O44     1.949   .     S
Zn4    O86     1.940   .     S
Zn5    O691    1.939   1_545 S
Zn5    O41     1.950   .     S
Zn5    O60     1.946   .     S
Zn5    O80     1.940   .     S
Zn6    O59     1.946   .     S
Zn6    O92     1.939   .     S
Zn6    O42     1.950   .     S
Zn6    O679    1.940   1_545 S
Zn7    O43     1.949   .     S
Zn7    O54     1.946   .     S
Zn7    O89     1.940   .     S
Zn7    O382    1.939   1_455 S
Zn8    O81     1.939   .     S
Zn8    O44     1.949   .     S
Zn8    O53     1.946   .     S
Zn8    O390    1.940   1_455 S
Zn9    O48     1.946   .     S
Zn9    O71     1.939   .     S
Zn9    O68     1.940   .     S
Zn9    O344    1.950   .     S
Zn10   O47     1.946   .     S
Zn10   O72     1.939   .     S
Zn10   O67     1.940   .     S
Zn10   O43     1.950   .     S
Zn11   O62     1.939   .     S
Zn11   O642    1.949   .     S
Zn11   O69     1.940   .     S
Zn11   O50     1.946   .     S
Zn12   O49     1.946   .     S
Zn12   O70     1.940   .     S
Zn12   O41     1.949   .     S
Zn12   O61     1.939   .     S
Zn13   O75     1.939   .     S
Zn13   O44     1.950   .     S
Zn13   O52     1.946   .     S
Zn13   O64     1.940   .     S
Zn14   O76     1.939   .     S
Zn14   O51     1.946   .     S
Zn14   O63     1.940   .     S
Zn14   O343    1.950   .     S
Zn15   O66     1.939   .     S
Zn15   O46     1.946   .     S
Zn15   O73     1.940   .     S
Zn15   O42     1.949   .     S
Zn16   O45     1.946   .     S
Zn16   O65     1.939   .     S
Zn16   O74     1.940   .     S
Zn16   O641    1.949   .     S
C17    I285    2.150   .     S
C17    C33     1.400   .     S
C17    C469    1.411   1_455 S
C18    C170    1.413   .     A
C18    C34     1.402   .     A
C18    I586    2.150   1_455 S
C19    C635    1.403   .     A
C19    C171    1.414   .     A
C19    I287    2.168   .     S
C20    C172    1.415   .     A
C20    C36     1.398   .     A
C20    I888    2.159   1_545 S
C21    C333    1.400   .     A
C21    I289    2.150   .     S
C21    C465    1.411   .     S
C22    C166    1.413   .     A
C22    C334    1.402   .     S
C22    I590    2.150   .     S
C23    C167    1.415   .     A
C23    I291    2.168   .     S
C23    C35     1.403   .     S
C24    C168    1.415   .     A
C24    C636    1.398   .     S
C24    I892    2.159   .     S
C25    I293    2.150   .     S
C25    C177    1.414   .     A
C25    C37     1.402   .     S
C26    C178    1.411   .     A
C26    I294    2.149   .     S
C26    C638    1.400   .     S
C27    I295    2.143   .     S
C27    C179    1.410   .     A
C27    C339    1.401   .     S
C28    C40     1.402   .     A
C28    C180    1.413   .     A
C28    I296    2.157   .     S
C29    I297    2.150   .     S
C29    C637    1.402   .     A
C29    C173    1.414   .     A
C30    C38     1.400   .     A
C30    C174    1.411   .     A
C30    I298    2.149   .     S
C31    C175    1.410   .     A
C31    I299    2.143   .     S
C31    C39     1.401   .     A
C32    I300    2.157   .     S
C32    C176    1.412   .     A
C32    C340    1.402   .     S
C33    C321    1.400   1_455 A
C33    C111    1.452   .     S
C34    C112    1.457   .     S
C34    C322    1.402   1_455 S
C35    C109    1.452   .     S
C35    C619    1.403   1_545 A
C36    C110    1.450   .     S
C36    C624    1.398   1_545 S
C37    C115    1.457   .     S
C37    C629    1.402   1_545 A
C38    C116    1.452   .     S
C38    C626    1.400   1_545 S
C39    C113    1.457   .     S
C39    C327    1.401   1_455 S
C40    C114    1.453   .     S
C40    C332    1.402   1_455 S
O41    Zn616   1.949   1_545 S
O42    Zn611   1.949   1_545 S
O43    Zn314   1.950   1_455 S
O44    Zn309   1.950   1_455 S
O45    C709    1.278   .     A
O46    C110    1.277   .     A
O47    C111    1.279   .     S
O48    C412    1.280   .     S
O49    C109    1.278   .     S
O50    C710    1.277   .     S
O51    C411    1.279   .     A
O52    C112    1.280   .     A
O53    C113    1.280   .     S
O54    C114    1.278   .     A
O55    C115    1.280   .     S
O56    C116    1.279   .     A
O57    C113    1.280   .     S
O58    C114    1.278   .     A
O59    C115    1.280   .     S
O60    C116    1.279   .     A
O61    C117    1.281   .     A
O62    C118    1.280   .     A
O63    C119    1.281   .     A
O64    C120    1.282   .     A
O65    C121    1.281   .     A
O66    C122    1.280   .     A
O67    C123    1.281   .     A
O68    C124    1.282   .     A
O69    C125    1.282   .     A
O70    C126    1.281   .     A
O71    C127    1.281   .     A
O72    C128    1.281   .     A
O73    C129    1.282   .     A
O74    C130    1.281   .     A
O75    C131    1.281   .     A
O76    C132    1.281   .     A
O77    C127    1.281   .     A
O77    Zn304   1.939   .     S
O78    C128    1.282   .     A
O79    C125    1.280   .     A
O79    Zn606   1.940   .     S
O80    C126    1.281   .     A
O81    C131    1.281   .     A
O82    C132    1.281   .     A
O82    Zn307   1.939   .     S
O83    C129    1.280   .     A
O84    C130    1.281   .     A
O84    Zn601   1.940   .     S
O85    C119    1.281   .     A
O85    Zn303   1.940   .     S
O86    C120    1.282   .     A
O87    C117    1.281   .     A
O88    C118    1.284   .     A
O88    Zn602   1.939   .     S
O89    C123    1.281   .     A
O90    C124    1.282   .     A
O90    Zn308   1.940   .     S
O91    Zn605   1.939   .     S
O91    C121    1.281   .     A
O92    C122    1.284   .     A
C93    N205    1.435   .     S
C93    C165    1.413   .     A
C93    C98     1.406   .     A
C94    N208    1.435   .     S
C94    C97     1.406   .     A
C94    C166    1.418   .     A
C95    C167    1.414   .     A
C95    N211    1.435   .     S
C95    C100    1.399   .     A
C96    C99     1.399   .     A
C96    N214    1.433   .     S
C96    C168    1.417   .     A
C97    N217    1.435   .     S
C97    C169    1.413   .     A
C98    N220    1.435   .     S
C98    C170    1.418   .     A
C99    N223    1.435   .     S
C99    C171    1.414   .     A
C100   C172    1.417   .     A
C100   N226    1.433   .     S
C101   C173    1.418   .     A
C101   N229    1.435   .     S
C101   C106    1.406   1_556 S
C102   N232    1.435   .     S
C102   C174    1.413   .     A
C102   C105    1.406   1_554 S
C103   N235    1.434   .     S
C103   C175    1.413   .     A
C103   C108    1.406   1_556 S
C104   N238    1.436   .     S
C104   C176    1.417   .     A
C104   C107    1.406   1_554 S
C105   N241    1.435   .     S
C105   C177    1.418   .     A
C105   C102    1.406   1_556 S
C106   N244    1.435   .     S
C106   C178    1.413   .     A
C106   C101    1.406   1_554 S
C107   C179    1.413   .     A
C107   N247    1.434   .     S
C107   C104    1.406   1_556 S
C108   N250    1.436   .     S
C108   C180    1.417   .     A
C108   C103    1.406   1_554 S
C109   O645    1.278   1_545 A
C110   O650    1.277   1_545 S
C111   O351    1.279   1_455 A
C112   O348    1.280   1_455 S
C117   C183    1.457   .     S
C118   C184    1.460   .     S
C119   C185    1.459   .     S
C120   C186    1.460   .     S
C121   C187    1.457   .     S
C122   C188    1.460   .     S
C123   C181    1.459   .     S
C124   C182    1.460   .     S
C125   C191    1.456   .     S
C126   C192    1.459   .     S
C127   C193    1.455   .     S
C128   C194    1.458   .     S
C129   C195    1.456   .     S
C130   C196    1.459   .     S
C131   C189    1.455   .     S
C132   C190    1.458   .     S
C133   I253    2.145   .     S
C133   C196    1.409   .     A
C133   C148    1.405   .     A
C134   C147    1.398   .     A
C134   C195    1.414   .     A
C134   I254    2.159   .     S
C135   C146    1.403   .     A
C135   C194    1.408   .     A
C135   I255    2.144   .     S
C136   C145    1.400   .     A
C136   I256    2.153   .     S
C136   C193    1.411   .     A
C137   C192    1.409   .     A
C137   I257    2.145   .     S
C137   C144    1.405   .     A
C138   C143    1.398   .     A
C138   I258    2.159   .     S
C138   C191    1.414   .     A
C139   C142    1.403   .     A
C139   C190    1.408   .     A
C139   I259    2.144   .     S
C140   C141    1.400   .     A
C140   I260    2.153   .     S
C140   C189    1.411   .     A
C141   I261    2.151   .     S
C141   C188    1.414   .     A
C142   C187    1.408   .     A
C142   I262    2.141   .     S
C143   C186    1.416   .     A
C143   I263    2.156   .     S
C144   C185    1.409   .     A
C144   I264    2.145   .     S
C145   C184    1.414   .     A
C145   I265    2.151   .     S
C146   C183    1.408   .     A
C146   I266    2.141   .     S
C147   C182    1.416   .     A
C147   I267    2.156   .     S
C148   C181    1.409   .     A
C148   I268    2.145   .     S
C149   C182    1.417   .     A
C149   C164    1.399   .     A
C149   I269    2.157   .     S
C150   C163    1.404   .     A
C150   C181    1.409   .     A
C150   I270    2.145   .     S
C151   C184    1.415   .     A
C151   C162    1.399   .     A
C151   I271    2.150   .     S
C152   C161    1.404   .     A
C152   C183    1.408   .     A
C152   I272    2.147   .     S
C153   I273    2.157   .     S
C153   C160    1.399   .     A
C153   C186    1.417   .     A
C154   C159    1.404   .     A
C154   I274    2.145   .     S
C154   C185    1.409   .     A
C155   C158    1.399   .     A
C155   I275    2.150   .     S
C155   C188    1.415   .     A
C156   C187    1.408   .     A
C156   I276    2.147   .     S
C156   C157    1.404   .     A
C157   I277    2.140   .     S
C157   C190    1.409   .     A
C158   I278    2.153   .     S
C158   C189    1.410   .     A
C159   C192    1.409   .     A
C159   I279    2.145   .     S
C160   C191    1.412   .     A
C160   I280    2.158   .     S
C161   I281    2.140   .     S
C161   C194    1.409   .     A
C162   C193    1.410   .     A
C162   I282    2.153   .     S
C163   C196    1.409   .     A
C163   I283    2.145   .     S
C164   C195    1.412   .     A
C164   I284    2.158   .     S
C165   C197    1.418   .     A
C165   C321    1.411   1_455 S
C166   C498    1.420   .     S
C167   C199    1.423   .     A
C168   C800    1.426   .     S
C169   C317    1.411   .     S
C169   C497    1.418   .     S
C170   C198    1.420   .     A
C171   C799    1.423   .     S
C172   C200    1.426   .     A
C173   C801    1.420   .     A
C174   C202    1.417   .     S
C175   C203    1.416   .     A
C176   C504    1.421   .     S
C177   C201    1.420   .     S
C178   C802    1.417   .     A
C179   C503    1.416   .     S
C180   C204    1.421   .     A
C197   C198    1.410   .     A
C197   C469    1.418   1_455 S
C198   C466    1.420   1_455 S
C199   C200    1.417   .     A
C199   C771    1.423   1_545 S
C200   C768    1.426   1_545 S
C201   C773    1.420   1_545 A
C201   C202    1.410   1_556 S
C202   C778    1.417   1_545 A
C202   C201    1.410   1_554 S
C203   C479    1.416   1_455 S
C203   C204    1.409   1_556 S
C204   C476    1.421   1_455 S
C204   C203    1.409   1_554 S
N205   O207    1.301   .     A
N205   O206    1.301   .     A
N208   O209    1.301   .     A
N208   O210    1.301   .     A
N211   O213    1.302   .     A
N211   O812    1.301   1_545 S
O212   N811    1.301   .     S
N214   O216    1.302   .     A
N214   O215    1.301   .     A
N217   O218    1.301   .     A
N217   O219    1.301   .     A
N220   O221    1.301   .     A
N220   O222    1.301   .     A
N223   O225    1.302   .     A
N223   O824    1.301   .     S
O224   N823    1.301   1_545 S
N226   O227    1.301   .     A
N226   O228    1.302   .     A
N229   O230    1.301   .     A
N229   O231    1.301   .     A
N232   O234    1.301   .     A
N232   O233    1.301   .     A
N235   O236    1.301   .     A
N235   O237    1.301   .     A
N238   O240    1.301   .     A
N238   O239    1.301   .     A
N241   O242    1.301   .     A
N241   O243    1.301   .     A
N244   O245    1.301   .     A
N244   O246    1.301   .     A
N247   O249    1.301   .     A
N247   O248    1.301   .     A
N250   O252    1.302   .     A
N250   O251    1.301   .     A
I286   C318    2.150   .     S
I288   C620    2.159   .     S
I290   C322    2.150   1_455 S
I292   C624    2.159   1_545 S
Zn301  O984    1.940   1_545 S
Zn301  O341    1.950   .     S
Zn301  O356    1.946   .     S
Zn301  O387    1.939   .     S
Zn302  O355    1.946   .     S
Zn302  O383    1.940   .     S
Zn302  O342    1.950   .     S
Zn302  O988    1.939   1_545 S
Zn303  O358    1.946   .     S
Zn303  O378    1.939   .     S
Zn303  O343    1.949   .     S
Zn304  O357    1.946   .     S
Zn304  O344    1.949   .     S
Zn304  O386    1.940   .     S
Zn305  O991    1.939   1_545 S
Zn305  O341    1.950   .     S
Zn305  O360    1.946   .     S
Zn305  O380    1.940   .     S
Zn306  O359    1.946   .     S
Zn306  O392    1.939   .     S
Zn306  O342    1.950   .     S
Zn306  O979    1.940   1_545 S
Zn307  O343    1.949   .     S
Zn307  O354    1.946   .     S
Zn307  O389    1.940   .     S
Zn308  O381    1.939   .     S
Zn308  O344    1.949   .     S
Zn308  O353    1.946   .     S
Zn309  O348    1.946   .     S
Zn309  O371    1.939   .     S
Zn309  O368    1.940   .     S
Zn309  O44     1.950   1_655 S
Zn310  O347    1.946   .     S
Zn310  O372    1.939   .     S
Zn310  O367    1.940   .     S
Zn310  O343    1.950   .     S
Zn311  O362    1.939   .     S
Zn311  O942    1.949   .     S
Zn311  O369    1.940   .     S
Zn311  O350    1.946   .     S
Zn312  O349    1.946   .     S
Zn312  O370    1.940   .     S
Zn312  O341    1.949   .     S
Zn312  O361    1.939   .     S
Zn313  O375    1.939   .     S
Zn313  O344    1.950   .     S
Zn313  O352    1.946   .     S
Zn313  O364    1.940   .     S
Zn314  O376    1.939   .     S
Zn314  O351    1.946   .     S
Zn314  O363    1.940   .     S
Zn314  O43     1.950   1_655 S
Zn315  O366    1.939   .     S
Zn315  O346    1.946   .     S
Zn315  O373    1.940   .     S
Zn315  O342    1.949   .     S
Zn316  O345    1.946   .     S
Zn316  O365    1.939   .     S
Zn316  O374    1.940   .     S
Zn316  O941    1.949   .     S
C317   I585    2.150   .     S
C317   C333    1.400   .     S
C318   C470    1.413   .     A
C318   C334    1.402   .     A
C319   C935    1.403   .     A
C319   C471    1.414   .     A
C319   I587    2.168   .     S
C320   C472    1.415   .     A
C320   C336    1.398   .     A
C320   I1188   2.159   1_545 S
C321   C33     1.400   1_655 A
C321   I589    2.150   .     S
C321   C165    1.411   1_655 S
C322   C466    1.413   .     A
C322   C34     1.402   1_655 S
C322   I290    2.150   1_655 S
C323   C467    1.415   .     A
C323   I591    2.168   .     S
C323   C335    1.403   .     S
C324   C468    1.415   .     A
C324   C936    1.398   .     S
C324   I1192   2.159   .     S
C325   I593    2.150   .     S
C325   C477    1.414   .     A
C325   C337    1.402   .     S
C326   C478    1.411   .     A
C326   I594    2.149   .     S
C326   C938    1.400   .     S
C327   I595    2.143   .     S
C327   C479    1.410   .     A
C327   C39     1.401   1_655 S
C328   C340    1.402   .     A
C328   C480    1.413   .     A
C328   I596    2.157   .     S
C329   I597    2.150   .     S
C329   C937    1.402   .     A
C329   C473    1.414   .     A
C330   C338    1.400   .     A
C330   C474    1.411   .     A
C330   I598    2.149   .     S
C331   C475    1.410   .     A
C331   I599    2.143   .     S
C331   C339    1.401   .     A
C332   I600    2.157   .     S
C332   C476    1.412   .     A
C332   C40     1.402   1_655 S
C333   C411    1.452   .     S
C334   C412    1.457   .     S
C335   C409    1.452   .     S
C335   C919    1.403   1_545 A
C336   C410    1.450   .     S
C336   C924    1.398   1_545 S
C337   C415    1.457   .     S
C337   C929    1.402   1_545 A
C338   C416    1.452   .     S
C338   C926    1.400   1_545 S
C339   C413    1.457   .     S
C340   C414    1.453   .     S
O341   Zn916   1.949   1_545 S
O342   Zn911   1.949   1_545 S
O345   C1009   1.278   .     A
O346   C410    1.277   .     A
O347   C411    1.279   .     S
O348   C112    1.280   1_655 S
O349   C409    1.278   .     S
O350   C1010   1.277   .     S
O351   C111    1.279   1_655 A
O352   C412    1.280   .     A
O353   C413    1.280   .     S
O354   C414    1.278   .     A
O355   C415    1.280   .     S
O356   C416    1.279   .     A
O357   C413    1.280   .     S
O358   C414    1.278   .     A
O359   C415    1.280   .     S
O360   C416    1.279   .     A
O361   C417    1.281   .     A
O362   C418    1.280   .     A
O363   C419    1.281   .     A
O364   C420    1.282   .     A
O365   C421    1.281   .     A
O366   C422    1.280   .     A
O367   C423    1.281   .     A
O368   C424    1.282   .     A
O369   C425    1.282   .     A
O370   C426    1.281   .     A
O371   C427    1.281   .     A
O372   C428    1.281   .     A
O373   C429    1.282   .     A
O374   C430    1.281   .     A
O375   C431    1.281   .     A
O376   C432    1.281   .     A
O377   C427    1.281   .     A
O377   Zn4     1.939   1_655 S
O378   C428    1.282   .     A
O379   C425    1.280   .     A
O379   Zn906   1.940   .     S
O380   C426    1.281   .     A
O381   C431    1.281   .     A
O382   C432    1.281   .     A
O382   Zn7     1.939   1_655 S
O383   C429    1.280   .     A
O384   C430    1.281   .     A
O384   Zn901   1.940   .     S
O385   C419    1.281   .     A
O385   Zn3     1.940   1_655 S
O386   C420    1.282   .     A
O387   C417    1.281   .     A
O388   C418    1.284   .     A
O388   Zn902   1.939   .     S
O389   C423    1.281   .     A
O390   C424    1.282   .     A
O390   Zn8     1.940   1_655 S
O391   Zn905   1.939   .     S
O391   C421    1.281   .     A
O392   C422    1.284   .     A
C393   N505    1.435   .     S
C393   C465    1.413   .     A
C393   C398    1.406   .     A
C394   N508    1.435   .     S
C394   C397    1.406   .     A
C394   C466    1.418   .     A
C395   C467    1.414   .     A
C395   N511    1.435   .     S
C395   C400    1.399   .     A
C396   C399    1.399   .     A
C396   N514    1.433   .     S
C396   C468    1.417   .     A
C397   N517    1.435   .     S
C397   C469    1.413   .     A
C398   N520    1.435   .     S
C398   C470    1.418   .     A
C399   N523    1.435   .     S
C399   C471    1.414   .     A
C400   C472    1.417   .     A
C400   N526    1.433   .     S
C401   C473    1.418   .     A
C401   N529    1.435   .     S
C401   C406    1.406   1_556 S
C402   N532    1.435   .     S
C402   C474    1.413   .     A
C402   C405    1.406   1_554 S
C403   N535    1.434   .     S
C403   C475    1.413   .     A
C403   C408    1.406   1_556 S
C404   N538    1.436   .     S
C404   C476    1.417   .     A
C404   C407    1.406   1_554 S
C405   N541    1.435   .     S
C405   C477    1.418   .     A
C405   C402    1.406   1_556 S
C406   N544    1.435   .     S
C406   C478    1.413   .     A
C406   C401    1.406   1_554 S
C407   C479    1.413   .     A
C407   N547    1.434   .     S
C407   C404    1.406   1_556 S
C408   N550    1.436   .     S
C408   C480    1.417   .     A
C408   C403    1.406   1_554 S
C409   O945    1.278   1_545 A
C410   O950    1.277   1_545 S
C417   C483    1.457   .     S
C418   C484    1.460   .     S
C419   C485    1.459   .     S
C420   C486    1.460   .     S
C421   C487    1.457   .     S
C422   C488    1.460   .     S
C423   C481    1.459   .     S
C424   C482    1.460   .     S
C425   C491    1.456   .     S
C426   C492    1.459   .     S
C427   C493    1.455   .     S
C428   C494    1.458   .     S
C429   C495    1.456   .     S
C430   C496    1.459   .     S
C431   C489    1.455   .     S
C432   C490    1.458   .     S
C433   I553    2.145   .     S
C433   C496    1.409   .     A
C433   C448    1.405   .     A
C434   C447    1.398   .     A
C434   C495    1.414   .     A
C434   I554    2.159   .     S
C435   C446    1.403   .     A
C435   C494    1.408   .     A
C435   I555    2.144   .     S
C436   C445    1.400   .     A
C436   I556    2.153   .     S
C436   C493    1.411   .     A
C437   C492    1.409   .     A
C437   I557    2.145   .     S
C437   C444    1.405   .     A
C438   C443    1.398   .     A
C438   I558    2.159   .     S
C438   C491    1.414   .     A
C439   C442    1.403   .     A
C439   C490    1.408   .     A
C439   I559    2.144   .     S
C440   C441    1.400   .     A
C440   I560    2.153   .     S
C440   C489    1.411   .     A
C441   I561    2.151   .     S
C441   C488    1.414   .     A
C442   C487    1.408   .     A
C442   I562    2.141   .     S
C443   C486    1.416   .     A
C443   I563    2.156   .     S
C444   C485    1.409   .     A
C444   I564    2.145   .     S
C445   C484    1.414   .     A
C445   I565    2.151   .     S
C446   C483    1.408   .     A
C446   I566    2.141   .     S
C447   C482    1.416   .     A
C447   I567    2.156   .     S
C448   C481    1.409   .     A
C448   I568    2.145   .     S
C449   C482    1.417   .     A
C449   C464    1.399   .     A
C449   I569    2.157   .     S
C450   C463    1.404   .     A
C450   C481    1.409   .     A
C450   I570    2.145   .     S
C451   C484    1.415   .     A
C451   C462    1.399   .     A
C451   I571    2.150   .     S
C452   C461    1.404   .     A
C452   C483    1.408   .     A
C452   I572    2.147   .     S
C453   I573    2.157   .     S
C453   C460    1.399   .     A
C453   C486    1.417   .     A
C454   C459    1.404   .     A
C454   I574    2.145   .     S
C454   C485    1.409   .     A
C455   C458    1.399   .     A
C455   I575    2.150   .     S
C455   C488    1.415   .     A
C456   C487    1.408   .     A
C456   I576    2.147   .     S
C456   C457    1.404   .     A
C457   I577    2.140   .     S
C457   C490    1.409   .     A
C458   I578    2.153   .     S
C458   C489    1.410   .     A
C459   C492    1.409   .     A
C459   I579    2.145   .     S
C460   C491    1.412   .     A
C460   I580    2.158   .     S
C461   I581    2.140   .     S
C461   C494    1.409   .     A
C462   C493    1.410   .     A
C462   I582    2.153   .     S
C463   C496    1.409   .     A
C463   I583    2.145   .     S
C464   C495    1.412   .     A
C464   I584    2.158   .     S
C465   C497    1.418   .     A
C466   C198    1.420   1_655 S
C467   C499    1.423   .     A
C468   C1100   1.426   .     S
C469   C17     1.411   1_655 S
C469   C197    1.418   1_655 S
C470   C498    1.420   .     A
C471   C1099   1.423   .     S
C472   C500    1.426   .     A
C473   C1101   1.420   .     A
C474   C502    1.417   .     S
C475   C503    1.416   .     A
C476   C204    1.421   1_655 S
C477   C501    1.420   .     S
C478   C1102   1.417   .     A
C479   C203    1.416   1_655 S
C480   C504    1.421   .     A
C497   C498    1.410   .     A
C499   C500    1.417   .     A
C499   C1071   1.423   1_545 S
C500   C1068   1.426   1_545 S
C501   C1073   1.420   1_545 A
C501   C502    1.410   1_556 S
C502   C1078   1.417   1_545 A
C502   C501    1.410   1_554 S
C503   C504    1.409   1_556 S
C504   C503    1.409   1_554 S
N505   O507    1.301   .     A
N505   O506    1.301   .     A
N508   O509    1.301   .     A
N508   O510    1.301   .     A
N511   O513    1.302   .     A
N511   O1112   1.301   1_545 S
O512   N1111   1.301   .     S
N514   O516    1.302   .     A
N514   O515    1.301   .     A
N517   O518    1.301   .     A
N517   O519    1.301   .     A
N520   O521    1.301   .     A
N520   O522    1.301   .     A
N523   O525    1.302   .     A
N523   O1124   1.301   .     S
O524   N1123   1.301   1_545 S
N526   O527    1.301   .     A
N526   O528    1.302   .     A
N529   O530    1.301   .     A
N529   O531    1.301   .     A
N532   O534    1.301   .     A
N532   O533    1.301   .     A
N535   O536    1.301   .     A
N535   O537    1.301   .     A
N538   O540    1.301   .     A
N538   O539    1.301   .     A
N541   O542    1.301   .     A
N541   O543    1.301   .     A
N544   O545    1.301   .     A
N544   O546    1.301   .     A
N547   O549    1.301   .     A
N547   O548    1.301   .     A
N550   O552    1.302   .     A
N550   O551    1.301   .     A
I586   C18     2.150   1_655 S
I588   C920    2.159   .     S
I592   C924    2.159   1_545 S
Zn601  O641    1.950   .     S
Zn601  O656    1.946   .     S
Zn601  O687    1.939   .     S
Zn602  O655    1.946   .     S
Zn602  O683    1.940   .     S
Zn602  O642    1.950   .     S
Zn603  O658    1.946   .     S
Zn603  O678    1.939   .     S
Zn603  O643    1.949   .     S
Zn603  O985    1.940   1_455 S
Zn604  O977    1.939   1_455 S
Zn604  O657    1.946   .     S
Zn604  O644    1.949   .     S
Zn604  O686    1.940   .     S
Zn605  O641    1.950   .     S
Zn605  O660    1.946   .     S
Zn605  O680    1.940   .     S
Zn606  O659    1.946   .     S
Zn606  O692    1.939   .     S
Zn606  O642    1.950   .     S
Zn607  O643    1.949   .     S
Zn607  O654    1.946   .     S
Zn607  O689    1.940   .     S
Zn607  O982    1.939   1_455 S
Zn608  O681    1.939   .     S
Zn608  O644    1.949   .     S
Zn608  O653    1.946   .     S
Zn608  O990    1.940   1_455 S
Zn609  O648    1.946   .     S
Zn609  O671    1.939   .     S
Zn609  O668    1.940   .     S
Zn609  O944    1.950   .     S
Zn610  O647    1.946   .     S
Zn610  O672    1.939   .     S
Zn610  O667    1.940   .     S
Zn610  O643    1.950   .     S
Zn611  O662    1.939   .     S
Zn611  O42     1.949   1_565 S
Zn611  O669    1.940   .     S
Zn611  O650    1.946   .     S
Zn612  O649    1.946   .     S
Zn612  O670    1.940   .     S
Zn612  O641    1.949   .     S
Zn612  O661    1.939   .     S
Zn613  O675    1.939   .     S
Zn613  O644    1.950   .     S
Zn613  O652    1.946   .     S
Zn613  O664    1.940   .     S
Zn614  O676    1.939   .     S
Zn614  O651    1.946   .     S
Zn614  O663    1.940   .     S
Zn614  O943    1.950   .     S
Zn615  O666    1.939   .     S
Zn615  O646    1.946   .     S
Zn615  O673    1.940   .     S
Zn615  O642    1.949   .     S
Zn616  O645    1.946   .     S
Zn616  O665    1.939   .     S
Zn616  O674    1.940   .     S
Zn616  O41     1.949   1_565 S
C617   I885    2.150   .     S
C617   C633    1.400   .     S
C617   C1069   1.411   1_455 S
C618   C770    1.413   .     A
C618   C634    1.402   .     A
C618   I1186   2.150   1_455 S
C619   C35     1.403   1_565 A
C619   C771    1.414   .     A
C619   I887    2.168   .     S
C620   C772    1.415   .     A
C620   C636    1.398   .     A
C621   C933    1.400   .     A
C621   I889    2.150   .     S
C621   C1065   1.411   .     S
C622   C766    1.413   .     A
C622   C934    1.402   .     S
C622   I1190   2.150   .     S
C623   C767    1.415   .     A
C623   I891    2.168   .     S
C623   C635    1.403   .     S
C624   C768    1.415   .     A
C624   C36     1.398   1_565 S
C624   I292    2.159   1_565 S
C625   I893    2.150   .     S
C625   C777    1.414   .     A
C625   C637    1.402   .     S
C626   C778    1.411   .     A
C626   I894    2.149   .     S
C626   C38     1.400   1_565 S
C627   I895    2.143   .     S
C627   C779    1.410   .     A
C627   C939    1.401   .     S
C628   C640    1.402   .     A
C628   C780    1.413   .     A
C628   I896    2.157   .     S
C629   I897    2.150   .     S
C629   C37     1.402   1_565 A
C629   C773    1.414   .     A
C630   C638    1.400   .     A
C630   C774    1.411   .     A
C630   I898    2.149   .     S
C631   C775    1.410   .     A
C631   I899    2.143   .     S
C631   C639    1.401   .     A
C632   I900    2.157   .     S
C632   C776    1.412   .     A
C632   C940    1.402   .     S
C633   C921    1.400   1_455 A
C633   C711    1.452   .     S
C634   C712    1.457   .     S
C634   C922    1.402   1_455 S
C635   C709    1.452   .     S
C636   C710    1.450   .     S
C637   C715    1.457   .     S
C638   C716    1.452   .     S
C639   C713    1.457   .     S
C639   C927    1.401   1_455 S
C640   C714    1.453   .     S
C640   C932    1.402   1_455 S
O643   Zn914   1.950   1_455 S
O644   Zn909   1.950   1_455 S
O645   C109    1.278   1_565 A
O646   C710    1.277   .     A
O647   C711    1.279   .     S
O648   C1012   1.280   .     S
O649   C709    1.278   .     S
O650   C110    1.277   1_565 S
O651   C1011   1.279   .     A
O652   C712    1.280   .     A
O653   C713    1.280   .     S
O654   C714    1.278   .     A
O655   C715    1.280   .     S
O656   C716    1.279   .     A
O657   C713    1.280   .     S
O658   C714    1.278   .     A
O659   C715    1.280   .     S
O660   C716    1.279   .     A
O661   C717    1.281   .     A
O662   C718    1.280   .     A
O663   C719    1.281   .     A
O664   C720    1.282   .     A
O665   C721    1.281   .     A
O666   C722    1.280   .     A
O667   C723    1.281   .     A
O668   C724    1.282   .     A
O669   C725    1.282   .     A
O670   C726    1.281   .     A
O671   C727    1.281   .     A
O672   C728    1.281   .     A
O673   C729    1.282   .     A
O674   C730    1.281   .     A
O675   C731    1.281   .     A
O676   C732    1.281   .     A
O677   C727    1.281   .     A
O677   Zn904   1.939   .     S
O678   C728    1.282   .     A
O679   C725    1.280   .     A
O679   Zn6     1.940   1_565 S
O680   C726    1.281   .     A
O681   C731    1.281   .     A
O682   C732    1.281   .     A
O682   Zn907   1.939   .     S
O683   C729    1.280   .     A
O684   C730    1.281   .     A
O684   Zn1     1.940   1_565 S
O685   C719    1.281   .     A
O685   Zn903   1.940   .     S
O686   C720    1.282   .     A
O687   C717    1.281   .     A
O688   C718    1.284   .     A
O688   Zn2     1.939   1_565 S
O689   C723    1.281   .     A
O690   C724    1.282   .     A
O690   Zn908   1.940   .     S
O691   Zn5     1.939   1_565 S
O691   C721    1.281   .     A
O692   C722    1.284   .     A
C693   N805    1.435   .     S
C693   C765    1.413   .     A
C693   C698    1.406   .     A
C694   N808    1.435   .     S
C694   C697    1.406   .     A
C694   C766    1.418   .     A
C695   C767    1.414   .     A
C695   N811    1.435   .     S
C695   C700    1.399   .     A
C696   C699    1.399   .     A
C696   N814    1.433   .     S
C696   C768    1.417   .     A
C697   N817    1.435   .     S
C697   C769    1.413   .     A
C698   N820    1.435   .     S
C698   C770    1.418   .     A
C699   N823    1.435   .     S
C699   C771    1.414   .     A
C700   C772    1.417   .     A
C700   N826    1.433   .     S
C701   C773    1.418   .     A
C701   N829    1.435   .     S
C701   C706    1.406   1_556 S
C702   N832    1.435   .     S
C702   C774    1.413   .     A
C702   C705    1.406   1_554 S
C703   N835    1.434   .     S
C703   C775    1.413   .     A
C703   C708    1.406   1_556 S
C704   N838    1.436   .     S
C704   C776    1.417   .     A
C704   C707    1.406   1_554 S
C705   N841    1.435   .     S
C705   C777    1.418   .     A
C705   C702    1.406   1_556 S
C706   N844    1.435   .     S
C706   C778    1.413   .     A
C706   C701    1.406   1_554 S
C707   C779    1.413   .     A
C707   N847    1.434   .     S
C707   C704    1.406   1_556 S
C708   N850    1.436   .     S
C708   C780    1.417   .     A
C708   C703    1.406   1_554 S
C711   O951    1.279   1_455 A
C712   O948    1.280   1_455 S
C717   C783    1.457   .     S
C718   C784    1.460   .     S
C719   C785    1.459   .     S
C720   C786    1.460   .     S
C721   C787    1.457   .     S
C722   C788    1.460   .     S
C723   C781    1.459   .     S
C724   C782    1.460   .     S
C725   C791    1.456   .     S
C726   C792    1.459   .     S
C727   C793    1.455   .     S
C728   C794    1.458   .     S
C729   C795    1.456   .     S
C730   C796    1.459   .     S
C731   C789    1.455   .     S
C732   C790    1.458   .     S
C733   I853    2.145   .     S
C733   C796    1.409   .     A
C733   C748    1.405   .     A
C734   C747    1.398   .     A
C734   C795    1.414   .     A
C734   I854    2.159   .     S
C735   C746    1.403   .     A
C735   C794    1.408   .     A
C735   I855    2.144   .     S
C736   C745    1.400   .     A
C736   I856    2.153   .     S
C736   C793    1.411   .     A
C737   C792    1.409   .     A
C737   I857    2.145   .     S
C737   C744    1.405   .     A
C738   C743    1.398   .     A
C738   I858    2.159   .     S
C738   C791    1.414   .     A
C739   C742    1.403   .     A
C739   C790    1.408   .     A
C739   I859    2.144   .     S
C740   C741    1.400   .     A
C740   I860    2.153   .     S
C740   C789    1.411   .     A
C741   I861    2.151   .     S
C741   C788    1.414   .     A
C742   C787    1.408   .     A
C742   I862    2.141   .     S
C743   C786    1.416   .     A
C743   I863    2.156   .     S
C744   C785    1.409   .     A
C744   I864    2.145   .     S
C745   C784    1.414   .     A
C745   I865    2.151   .     S
C746   C783    1.408   .     A
C746   I866    2.141   .     S
C747   C782    1.416   .     A
C747   I867    2.156   .     S
C748   C781    1.409   .     A
C748   I868    2.145   .     S
C749   C782    1.417   .     A
C749   C764    1.399   .     A
C749   I869    2.157   .     S
C750   C763    1.404   .     A
C750   C781    1.409   .     A
C750   I870    2.145   .     S
C751   C784    1.415   .     A
C751   C762    1.399   .     A
C751   I871    2.150   .     S
C752   C761    1.404   .     A
C752   C783    1.408   .     A
C752   I872    2.147   .     S
C753   I873    2.157   .     S
C753   C760    1.399   .     A
C753   C786    1.417   .     A
C754   C759    1.404   .     A
C754   I874    2.145   .     S
C754   C785    1.409   .     A
C755   C758    1.399   .     A
C755   I875    2.150   .     S
C755   C788    1.415   .     A
C756   C787    1.408   .     A
C756   I876    2.147   .     S
C756   C757    1.404   .     A
C757   I877    2.140   .     S
C757   C790    1.409   .     A
C758   I878    2.153   .     S
C758   C789    1.410   .     A
C759   C792    1.409   .     A
C759   I879    2.145   .     S
C760   C791    1.412   .     A
C760   I880    2.158   .     S
C761   I881    2.140   .     S
C761   C794    1.409   .     A
C762   C793    1.410   .     A
C762   I882    2.153   .     S
C763   C796    1.409   .     A
C763   I883    2.145   .     S
C764   C795    1.412   .     A
C764   I884    2.158   .     S
C765   C797    1.418   .     A
C765   C921    1.411   1_455 S
C766   C1098   1.420   .     S
C767   C799    1.423   .     A
C768   C200    1.426   1_565 S
C769   C917    1.411   .     S
C769   C1097   1.418   .     S
C770   C798    1.420   .     A
C771   C199    1.423   1_565 S
C772   C800    1.426   .     A
C773   C201    1.420   1_565 A
C774   C802    1.417   .     S
C775   C803    1.416   .     A
C776   C1104   1.421   .     S
C777   C801    1.420   .     S
C778   C202    1.417   1_565 A
C779   C1103   1.416   .     S
C780   C804    1.421   .     A
C797   C798    1.410   .     A
C797   C1069   1.418   1_455 S
C798   C1066   1.420   1_455 S
C799   C800    1.417   .     A
C801   C802    1.410   1_556 S
C802   C801    1.410   1_554 S
C803   C1079   1.416   1_455 S
C803   C804    1.409   1_556 S
C804   C1076   1.421   1_455 S
C804   C803    1.409   1_554 S
N805   O807    1.301   .     A
N805   O806    1.301   .     A
N808   O809    1.301   .     A
N808   O810    1.301   .     A
N811   O813    1.302   .     A
O812   N211    1.301   1_565 S
N814   O816    1.302   .     A
N814   O815    1.301   .     A
N817   O818    1.301   .     A
N817   O819    1.301   .     A
N820   O821    1.301   .     A
N820   O822    1.301   .     A
N823   O825    1.302   .     A
N823   O224    1.301   1_565 S
N826   O827    1.301   .     A
N826   O828    1.302   .     A
N829   O830    1.301   .     A
N829   O831    1.301   .     A
N832   O834    1.301   .     A
N832   O833    1.301   .     A
N835   O836    1.301   .     A
N835   O837    1.301   .     A
N838   O840    1.301   .     A
N838   O839    1.301   .     A
N841   O842    1.301   .     A
N841   O843    1.301   .     A
N844   O845    1.301   .     A
N844   O846    1.301   .     A
N847   O849    1.301   .     A
N847   O848    1.301   .     A
N850   O852    1.302   .     A
N850   O851    1.301   .     A
I886   C918    2.150   .     S
I888   C20     2.159   1_565 S
I890   C922    2.150   1_455 S
Zn901  O941    1.950   .     S
Zn901  O956    1.946   .     S
Zn901  O987    1.939   .     S
Zn902  O955    1.946   .     S
Zn902  O983    1.940   .     S
Zn902  O942    1.950   .     S
Zn903  O958    1.946   .     S
Zn903  O978    1.939   .     S
Zn903  O943    1.949   .     S
Zn904  O957    1.946   .     S
Zn904  O944    1.949   .     S
Zn904  O986    1.940   .     S
Zn905  O941    1.950   .     S
Zn905  O960    1.946   .     S
Zn905  O980    1.940   .     S
Zn906  O959    1.946   .     S
Zn906  O992    1.939   .     S
Zn906  O942    1.950   .     S
Zn907  O943    1.949   .     S
Zn907  O954    1.946   .     S
Zn907  O989    1.940   .     S
Zn908  O981    1.939   .     S
Zn908  O944    1.949   .     S
Zn908  O953    1.946   .     S
Zn909  O948    1.946   .     S
Zn909  O971    1.939   .     S
Zn909  O968    1.940   .     S
Zn909  O644    1.950   1_655 S
Zn910  O947    1.946   .     S
Zn910  O972    1.939   .     S
Zn910  O967    1.940   .     S
Zn910  O943    1.950   .     S
Zn911  O962    1.939   .     S
Zn911  O342    1.949   1_565 S
Zn911  O969    1.940   .     S
Zn911  O950    1.946   .     S
Zn912  O949    1.946   .     S
Zn912  O970    1.940   .     S
Zn912  O941    1.949   .     S
Zn912  O961    1.939   .     S
Zn913  O975    1.939   .     S
Zn913  O944    1.950   .     S
Zn913  O952    1.946   .     S
Zn913  O964    1.940   .     S
Zn914  O976    1.939   .     S
Zn914  O951    1.946   .     S
Zn914  O963    1.940   .     S
Zn914  O643    1.950   1_655 S
Zn915  O966    1.939   .     S
Zn915  O946    1.946   .     S
Zn915  O973    1.940   .     S
Zn915  O942    1.949   .     S
Zn916  O945    1.946   .     S
Zn916  O965    1.939   .     S
Zn916  O974    1.940   .     S
Zn916  O341    1.949   1_565 S
C917   I1185   2.150   .     S
C917   C933    1.400   .     S
C918   C1070   1.413   .     A
C918   C934    1.402   .     A
C919   C335    1.403   1_565 A
C919   C1071   1.414   .     A
C919   I1187   2.168   .     S
C920   C1072   1.415   .     A
C920   C936    1.398   .     A
C921   C633    1.400   1_655 A
C921   I1189   2.150   .     S
C921   C765    1.411   1_655 S
C922   C1066   1.413   .     A
C922   C634    1.402   1_655 S
C922   I890    2.150   1_655 S
C923   C1067   1.415   .     A
C923   I1191   2.168   .     S
C923   C935    1.403   .     S
C924   C1068   1.415   .     A
C924   C336    1.398   1_565 S
C924   I592    2.159   1_565 S
C925   I1193   2.150   .     S
C925   C1077   1.414   .     A
C925   C937    1.402   .     S
C926   C1078   1.411   .     A
C926   I1194   2.149   .     S
C926   C338    1.400   1_565 S
C927   I1195   2.143   .     S
C927   C1079   1.410   .     A
C927   C639    1.401   1_655 S
C928   C940    1.402   .     A
C928   C1080   1.413   .     A
C928   I1196   2.157   .     S
C929   I1197   2.150   .     S
C929   C337    1.402   1_565 A
C929   C1073   1.414   .     A
C930   C938    1.400   .     A
C930   C1074   1.411   .     A
C930   I1198   2.149   .     S
C931   C1075   1.410   .     A
C931   I1199   2.143   .     S
C931   C939    1.401   .     A
C932   I1200   2.157   .     S
C932   C1076   1.412   .     A
C932   C640    1.402   1_655 S
C933   C1011   1.452   .     S
C934   C1012   1.457   .     S
C935   C1009   1.452   .     S
C936   C1010   1.450   .     S
C937   C1015   1.457   .     S
C938   C1016   1.452   .     S
C939   C1013   1.457   .     S
C940   C1014   1.453   .     S
O945   C409    1.278   1_565 A
O946   C1010   1.277   .     A
O947   C1011   1.279   .     S
O948   C712    1.280   1_655 S
O949   C1009   1.278   .     S
O950   C410    1.277   1_565 S
O951   C711    1.279   1_655 A
O952   C1012   1.280   .     A
O953   C1013   1.280   .     S
O954   C1014   1.278   .     A
O955   C1015   1.280   .     S
O956   C1016   1.279   .     A
O957   C1013   1.280   .     S
O958   C1014   1.278   .     A
O959   C1015   1.280   .     S
O960   C1016   1.279   .     A
O961   C1017   1.281   .     A
O962   C1018   1.280   .     A
O963   C1019   1.281   .     A
O964   C1020   1.282   .     A
O965   C1021   1.281   .     A
O966   C1022   1.280   .     A
O967   C1023   1.281   .     A
O968   C1024   1.282   .     A
O969   C1025   1.282   .     A
O970   C1026   1.281   .     A
O971   C1027   1.281   .     A
O972   C1028   1.281   .     A
O973   C1029   1.282   .     A
O974   C1030   1.281   .     A
O975   C1031   1.281   .     A
O976   C1032   1.281   .     A
O977   C1027   1.281   .     A
O977   Zn604   1.939   1_655 S
O978   C1028   1.282   .     A
O979   C1025   1.280   .     A
O979   Zn306   1.940   1_565 S
O980   C1026   1.281   .     A
O981   C1031   1.281   .     A
O982   C1032   1.281   .     A
O982   Zn607   1.939   1_655 S
O983   C1029   1.280   .     A
O984   C1030   1.281   .     A
O984   Zn301   1.940   1_565 S
O985   C1019   1.281   .     A
O985   Zn603   1.940   1_655 S
O986   C1020   1.282   .     A
O987   C1017   1.281   .     A
O988   C1018   1.284   .     A
O988   Zn302   1.939   1_565 S
O989   C1023   1.281   .     A
O990   C1024   1.282   .     A
O990   Zn608   1.940   1_655 S
O991   Zn305   1.939   1_565 S
O991   C1021   1.281   .     A
O992   C1022   1.284   .     A
C993   N1105   1.435   .     S
C993   C1065   1.413   .     A
C993   C998    1.406   .     A
C994   N1108   1.435   .     S
C994   C997    1.406   .     A
C994   C1066   1.418   .     A
C995   C1067   1.414   .     A
C995   N1111   1.435   .     S
C995   C1000   1.399   .     A
C996   C999    1.399   .     A
C996   N1114   1.433   .     S
C996   C1068   1.417   .     A
C997   N1117   1.435   .     S
C997   C1069   1.413   .     A
C998   N1120   1.435   .     S
C998   C1070   1.418   .     A
C999   N1123   1.435   .     S
C999   C1071   1.414   .     A
C1000  C1072   1.417   .     A
C1000  N1126   1.433   .     S
C1001  C1073   1.418   .     A
C1001  N1129   1.435   .     S
C1001  C1006   1.406   1_556 S
C1002  N1132   1.435   .     S
C1002  C1074   1.413   .     A
C1002  C1005   1.406   1_554 S
C1003  N1135   1.434   .     S
C1003  C1075   1.413   .     A
C1003  C1008   1.406   1_556 S
C1004  N1138   1.436   .     S
C1004  C1076   1.417   .     A
C1004  C1007   1.406   1_554 S
C1005  N1141   1.435   .     S
C1005  C1077   1.418   .     A
C1005  C1002   1.406   1_556 S
C1006  N1144   1.435   .     S
C1006  C1078   1.413   .     A
C1006  C1001   1.406   1_554 S
C1007  C1079   1.413   .     A
C1007  N1147   1.434   .     S
C1007  C1004   1.406   1_556 S
C1008  N1150   1.436   .     S
C1008  C1080   1.417   .     A
C1008  C1003   1.406   1_554 S
C1017  C1083   1.457   .     S
C1018  C1084   1.460   .     S
C1019  C1085   1.459   .     S
C1020  C1086   1.460   .     S
C1021  C1087   1.457   .     S
C1022  C1088   1.460   .     S
C1023  C1081   1.459   .     S
C1024  C1082   1.460   .     S
C1025  C1091   1.456   .     S
C1026  C1092   1.459   .     S
C1027  C1093   1.455   .     S
C1028  C1094   1.458   .     S
C1029  C1095   1.456   .     S
C1030  C1096   1.459   .     S
C1031  C1089   1.455   .     S
C1032  C1090   1.458   .     S
C1033  I1153   2.145   .     S
C1033  C1096   1.409   .     A
C1033  C1048   1.405   .     A
C1034  C1047   1.398   .     A
C1034  C1095   1.414   .     A
C1034  I1154   2.159   .     S
C1035  C1046   1.403   .     A
C1035  C1094   1.408   .     A
C1035  I1155   2.144   .     S
C1036  C1045   1.400   .     A
C1036  I1156   2.153   .     S
C1036  C1093   1.411   .     A
C1037  C1092   1.409   .     A
C1037  I1157   2.145   .     S
C1037  C1044   1.405   .     A
C1038  C1043   1.398   .     A
C1038  I1158   2.159   .     S
C1038  C1091   1.414   .     A
C1039  C1042   1.403   .     A
C1039  C1090   1.408   .     A
C1039  I1159   2.144   .     S
C1040  C1041   1.400   .     A
C1040  I1160   2.153   .     S
C1040  C1089   1.411   .     A
C1041  I1161   2.151   .     S
C1041  C1088   1.414   .     A
C1042  C1087   1.408   .     A
C1042  I1162   2.141   .     S
C1043  C1086   1.416   .     A
C1043  I1163   2.156   .     S
C1044  C1085   1.409   .     A
C1044  I1164   2.145   .     S
C1045  C1084   1.414   .     A
C1045  I1165   2.151   .     S
C1046  C1083   1.408   .     A
C1046  I1166   2.141   .     S
C1047  C1082   1.416   .     A
C1047  I1167   2.156   .     S
C1048  C1081   1.409   .     A
C1048  I1168   2.145   .     S
C1049  C1082   1.417   .     A
C1049  C1064   1.399   .     A
C1049  I1169   2.157   .     S
C1050  C1063   1.404   .     A
C1050  C1081   1.409   .     A
C1050  I1170   2.145   .     S
C1051  C1084   1.415   .     A
C1051  C1062   1.399   .     A
C1051  I1171   2.150   .     S
C1052  C1061   1.404   .     A
C1052  C1083   1.408   .     A
C1052  I1172   2.147   .     S
C1053  I1173   2.157   .     S
C1053  C1060   1.399   .     A
C1053  C1086   1.417   .     A
C1054  C1059   1.404   .     A
C1054  I1174   2.145   .     S
C1054  C1085   1.409   .     A
C1055  C1058   1.399   .     A
C1055  I1175   2.150   .     S
C1055  C1088   1.415   .     A
C1056  C1087   1.408   .     A
C1056  I1176   2.147   .     S
C1056  C1057   1.404   .     A
C1057  I1177   2.140   .     S
C1057  C1090   1.409   .     A
C1058  I1178   2.153   .     S
C1058  C1089   1.410   .     A
C1059  C1092   1.409   .     A
C1059  I1179   2.145   .     S
C1060  C1091   1.412   .     A
C1060  I1180   2.158   .     S
C1061  I1181   2.140   .     S
C1061  C1094   1.409   .     A
C1062  C1093   1.410   .     A
C1062  I1182   2.153   .     S
C1063  C1096   1.409   .     A
C1063  I1183   2.145   .     S
C1064  C1095   1.412   .     A
C1064  I1184   2.158   .     S
C1065  C1097   1.418   .     A
C1066  C798    1.420   1_655 S
C1067  C1099   1.423   .     A
C1068  C500    1.426   1_565 S
C1069  C617    1.411   1_655 S
C1069  C797    1.418   1_655 S
C1070  C1098   1.420   .     A
C1071  C499    1.423   1_565 S
C1072  C1100   1.426   .     A
C1073  C501    1.420   1_565 A
C1074  C1102   1.417   .     S
C1075  C1103   1.416   .     A
C1076  C804    1.421   1_655 S
C1077  C1101   1.420   .     S
C1078  C502    1.417   1_565 A
C1079  C803    1.416   1_655 S
C1080  C1104   1.421   .     A
C1097  C1098   1.410   .     A
C1099  C1100   1.417   .     A
C1101  C1102   1.410   1_556 S
C1102  C1101   1.410   1_554 S
C1103  C1104   1.409   1_556 S
C1104  C1103   1.409   1_554 S
N1105  O1107   1.301   .     A
N1105  O1106   1.301   .     A
N1108  O1109   1.301   .     A
N1108  O1110   1.301   .     A
N1111  O1113   1.302   .     A
O1112  N511    1.301   1_565 S
N1114  O1116   1.302   .     A
N1114  O1115   1.301   .     A
N1117  O1118   1.301   .     A
N1117  O1119   1.301   .     A
N1120  O1121   1.301   .     A
N1120  O1122   1.301   .     A
N1123  O1125   1.302   .     A
N1123  O524    1.301   1_565 S
N1126  O1127   1.301   .     A
N1126  O1128   1.302   .     A
N1129  O1130   1.301   .     A
N1129  O1131   1.301   .     A
N1132  O1134   1.301   .     A
N1132  O1133   1.301   .     A
N1135  O1136   1.301   .     A
N1135  O1137   1.301   .     A
N1138  O1140   1.301   .     A
N1138  O1139   1.301   .     A
N1141  O1142   1.301   .     A
N1141  O1143   1.301   .     A
N1144  O1145   1.301   .     A
N1144  O1146   1.301   .     A
N1147  O1149   1.301   .     A
N1147  O1148   1.301   .     A
N1150  O1152   1.302   .     A
N1150  O1151   1.301   .     A
I1186  C618    2.150   1_655 S
I1188  C320    2.159   1_565 S
