data_str_m3_o2_o10_pcu_sym.166
_audit_creation_date              2020-01-03
_audit_creation_method            'Materials Studio'
_symmetry_space_group_name_H-M    'P1'
_symmetry_Int_Tables_number       1
_symmetry_cell_setting            triclinic
loop_
_symmetry_equiv_pos_as_xyz
  x,y,z
_cell_length_a                    25.8995
_cell_length_b                    29.8691
_cell_length_c                    28.3534
_cell_angle_alpha                 90.1935
_cell_angle_beta                  97.8192
_cell_angle_gamma                 90.0163
loop_
_atom_site_label
_atom_site_type_symbol
_atom_site_fract_x
_atom_site_fract_y
_atom_site_fract_z
_atom_site_U_iso_or_equiv
_atom_site_adp_type
_atom_site_occupancy
C1     C     0.16709   0.16389   0.24997   0.00000  Uiso   1.00
C2     C     0.16717   0.33613   0.25014   0.00000  Uiso   1.00
C3     C     0.16071   0.21004   0.05164   0.00000  Uiso   1.00
C4     C     0.19655   0.28117   0.45113   0.00000  Uiso   1.00
C5     C     0.16060   0.21081   0.10123   0.00000  Uiso   1.00
C6     C     0.19582   0.28065   0.40143   0.00000  Uiso   1.00
C7     C     0.17296   0.28914   0.10303   0.00000  Uiso   1.00
C8     C     0.13785   0.21918   0.39406   0.00000  Uiso   1.00
C9     C     0.17302   0.28988   0.05344   0.00000  Uiso   1.00
C10    C     0.13720   0.21868   0.44358   0.00000  Uiso   1.00
C11    C     0.16687   0.24996   0.02661   0.00000  Uiso   1.00
C12    C     0.16685   0.24995   0.47327   0.00000  Uiso   1.00
C13    C     0.06731   0.25095   0.23805   0.00000  Uiso   1.00
C14    C     0.26601   0.24913   0.26192   0.00000  Uiso   1.00
C15    C     0.01348   0.25929   0.23358   0.00000  Uiso   1.00
C16    C     0.31979   0.24075   0.26631   0.00000  Uiso   1.00
C17    C     0.14877   0.04551   0.28200   0.00000  Uiso   1.00
C18    C     0.15020   0.45448   0.21293   0.00000  Uiso   1.00
C19    C     0.14492   0.09155   0.28165   0.00000  Uiso   1.00
C20    C     0.14638   0.40843   0.21229   0.00000  Uiso   1.00
C21    C     0.17082   0.11604   0.25025   0.00000  Uiso   1.00
C22    C     0.17095   0.38401   0.25079   0.00000  Uiso   1.00
C23    C     0.20170   0.09492   0.21999   0.00000  Uiso   1.00
C24    C     0.20055   0.40526   0.28943   0.00000  Uiso   1.00
C25    C     0.20683   0.04861   0.22082   0.00000  Uiso   1.00
C26    C     0.20562   0.45158   0.28997   0.00000  Uiso   1.00
C27    C     0.17953   0.02416   0.25187   0.00000  Uiso   1.00
C28    C     0.17960   0.47594   0.25145   0.00000  Uiso   1.00
H29    H     0.12743   0.02636   0.30540   0.00000  Uiso   1.00
H30    H     0.12984   0.47355   0.18367   0.00000  Uiso   1.00
H31    H     0.12104   0.10799   0.30508   0.00000  Uiso   1.00
H32    H     0.12350   0.39194   0.18235   0.00000  Uiso   1.00
H33    H     0.22233   0.11464   0.19648   0.00000  Uiso   1.00
H34    H     0.22021   0.38564   0.31861   0.00000  Uiso   1.00
H35    H     0.15674   0.17815   0.03328   0.00000  Uiso   1.00
H36    H     0.22090   0.30549   0.47198   0.00000  Uiso   1.00
H37    H     0.15580   0.17977   0.11963   0.00000  Uiso   1.00
H38    H     0.21889   0.30473   0.38494   0.00000  Uiso   1.00
H39    H     0.17784   0.32018   0.12283   0.00000  Uiso   1.00
H40    H     0.11521   0.19479   0.37179   0.00000  Uiso   1.00
H41    H     0.17712   0.32175   0.03629   0.00000  Uiso   1.00
H42    H     0.11301   0.19426   0.45825   0.00000  Uiso   1.00
N43    N     0.16667   0.24999   0.12623   0.00000  Uiso   1.00
N44    N     0.16667   0.25001   0.37376   0.00000  Uiso   1.00
O45    O     0.16667   0.18454   0.28974   0.00000  Uiso   1.00
O46    O     0.16666   0.31547   0.21026   0.00000  Uiso   1.00
O47    O     0.16667   0.18453   0.21026   0.00000  Uiso   1.00
O48    O     0.16666   0.31547   0.28974   0.00000  Uiso   1.00
O49    O     0.09058   0.25000   0.28044   0.00000  Uiso   1.00
O50    O     0.24275   0.25000   0.21955   0.00000  Uiso   1.00
O51    O     0.09058   0.25000   0.20096   0.00000  Uiso   1.00
O52    O     0.24275   0.25001   0.29903   0.00000  Uiso   1.00
Zn53   Zn    0.16667   0.25001   0.30307   0.00000  Uiso   1.00
Zn54   Zn    0.16667   0.25000   0.19693   0.00000  Uiso   1.00
C55    C     0.32582   0.29492   0.19758   0.00000  Uiso   1.00
H56    H     0.02453   0.31359   0.18402   0.00000  Uiso   1.00
H57    H     0.30197   0.27919   0.16639   0.00000  Uiso   1.00
H58    H     0.30237   0.32008   0.21431   0.00000  Uiso   1.00
C59    C     0.00737   0.20521   0.30237   0.00000  Uiso   1.00
H60    H     0.30862   0.18587   0.31505   0.00000  Uiso   1.00
H61    H     0.03195   0.18055   0.28622   0.00000  Uiso   1.00
H62    H     0.02990   0.22134   0.33397   0.00000  Uiso   1.00
C63    C     0.24155   0.02599   0.18941   0.00000  Uiso   1.00
H64    H     0.27145   0.00566   0.21157   0.00000  Uiso   1.00
H65    H     0.21807   0.00390   0.16321   0.00000  Uiso   1.00
H66    H     0.26203   0.05071   0.16937   0.00000  Uiso   1.00
C67    C     0.23891   0.47432   0.33088   0.00000  Uiso   1.00
H68    H     0.26943   0.49474   0.31716   0.00000  Uiso   1.00
H69    H     0.21450   0.49634   0.35038   0.00000  Uiso   1.00
H70    H     0.25858   0.44968   0.35655   0.00000  Uiso   1.00
C71    C     0.50043   0.16389   0.24997   0.00000  Uiso   1.00
C72    C     0.50051   0.33613   0.25014   0.00000  Uiso   1.00
C73    C     0.49405   0.21004   0.05164   0.00000  Uiso   1.00
C74    C     0.52988   0.28117   0.45113   0.00000  Uiso   1.00
C75    C     0.49394   0.21081   0.10123   0.00000  Uiso   1.00
C76    C     0.52915   0.28065   0.40143   0.00000  Uiso   1.00
C77    C     0.50630   0.28914   0.10303   0.00000  Uiso   1.00
C78    C     0.47119   0.21918   0.39406   0.00000  Uiso   1.00
C79    C     0.50636   0.28988   0.05344   0.00000  Uiso   1.00
C80    C     0.47053   0.21868   0.44358   0.00000  Uiso   1.00
C81    C     0.50020   0.24996   0.02661   0.00000  Uiso   1.00
C82    C     0.50019   0.24995   0.47327   0.00000  Uiso   1.00
C83    C     0.40064   0.25095   0.23805   0.00000  Uiso   1.00
C84    C     0.59934   0.24913   0.26192   0.00000  Uiso   1.00
C85    C     0.34681   0.25929   0.23358   0.00000  Uiso   1.00
C86    C     0.65313   0.24075   0.26631   0.00000  Uiso   1.00
C87    C     0.48210   0.04551   0.28200   0.00000  Uiso   1.00
C88    C     0.48353   0.45448   0.21293   0.00000  Uiso   1.00
C89    C     0.47826   0.09155   0.28165   0.00000  Uiso   1.00
C90    C     0.47971   0.40843   0.21229   0.00000  Uiso   1.00
C91    C     0.50416   0.11604   0.25025   0.00000  Uiso   1.00
C92    C     0.50429   0.38401   0.25079   0.00000  Uiso   1.00
C93    C     0.53503   0.09492   0.21999   0.00000  Uiso   1.00
C94    C     0.53388   0.40526   0.28943   0.00000  Uiso   1.00
C95    C     0.54016   0.04861   0.22082   0.00000  Uiso   1.00
C96    C     0.53895   0.45158   0.28997   0.00000  Uiso   1.00
C97    C     0.51286   0.02416   0.25187   0.00000  Uiso   1.00
C98    C     0.51294   0.47594   0.25145   0.00000  Uiso   1.00
H99    H     0.46077   0.02636   0.30540   0.00000  Uiso   1.00
H100   H     0.46317   0.47355   0.18367   0.00000  Uiso   1.00
H101   H     0.45437   0.10799   0.30508   0.00000  Uiso   1.00
H102   H     0.45683   0.39194   0.18235   0.00000  Uiso   1.00
H103   H     0.55566   0.11464   0.19648   0.00000  Uiso   1.00
H104   H     0.55355   0.38564   0.31861   0.00000  Uiso   1.00
H105   H     0.49007   0.17815   0.03328   0.00000  Uiso   1.00
H106   H     0.55423   0.30549   0.47198   0.00000  Uiso   1.00
H107   H     0.48914   0.17977   0.11963   0.00000  Uiso   1.00
H108   H     0.55222   0.30473   0.38494   0.00000  Uiso   1.00
H109   H     0.51118   0.32018   0.12283   0.00000  Uiso   1.00
H110   H     0.44854   0.19479   0.37179   0.00000  Uiso   1.00
H111   H     0.51045   0.32175   0.03629   0.00000  Uiso   1.00
H112   H     0.44634   0.19426   0.45825   0.00000  Uiso   1.00
N113   N     0.50000   0.24999   0.12623   0.00000  Uiso   1.00
N114   N     0.50000   0.25001   0.37376   0.00000  Uiso   1.00
O115   O     0.50000   0.18454   0.28974   0.00000  Uiso   1.00
O116   O     0.50000   0.31547   0.21026   0.00000  Uiso   1.00
O117   O     0.50000   0.18453   0.21026   0.00000  Uiso   1.00
O118   O     0.50000   0.31547   0.28974   0.00000  Uiso   1.00
O119   O     0.42392   0.25000   0.28044   0.00000  Uiso   1.00
O120   O     0.57608   0.25000   0.21955   0.00000  Uiso   1.00
O121   O     0.42392   0.25000   0.20096   0.00000  Uiso   1.00
O122   O     0.57608   0.25001   0.29903   0.00000  Uiso   1.00
Zn123  Zn    0.50000   0.25001   0.30307   0.00000  Uiso   1.00
Zn124  Zn    0.50000   0.25000   0.19693   0.00000  Uiso   1.00
C125   C     0.65915   0.29492   0.19758   0.00000  Uiso   1.00
H126   H     0.35786   0.31359   0.18402   0.00000  Uiso   1.00
H127   H     0.63530   0.27919   0.16639   0.00000  Uiso   1.00
H128   H     0.63570   0.32008   0.21431   0.00000  Uiso   1.00
C129   C     0.34070   0.20521   0.30237   0.00000  Uiso   1.00
H130   H     0.64196   0.18587   0.31505   0.00000  Uiso   1.00
H131   H     0.36528   0.18055   0.28622   0.00000  Uiso   1.00
H132   H     0.36323   0.22134   0.33397   0.00000  Uiso   1.00
C133   C     0.57489   0.02599   0.18941   0.00000  Uiso   1.00
H134   H     0.60478   0.00566   0.21157   0.00000  Uiso   1.00
H135   H     0.55141   0.00390   0.16321   0.00000  Uiso   1.00
H136   H     0.59536   0.05071   0.16937   0.00000  Uiso   1.00
C137   C     0.57224   0.47432   0.33088   0.00000  Uiso   1.00
H138   H     0.60276   0.49474   0.31716   0.00000  Uiso   1.00
H139   H     0.54784   0.49634   0.35038   0.00000  Uiso   1.00
H140   H     0.59191   0.44968   0.35655   0.00000  Uiso   1.00
C141   C     0.83376   0.16389   0.24997   0.00000  Uiso   1.00
C142   C     0.83384   0.33613   0.25014   0.00000  Uiso   1.00
C143   C     0.82738   0.21004   0.05164   0.00000  Uiso   1.00
C144   C     0.86321   0.28117   0.45113   0.00000  Uiso   1.00
C145   C     0.82727   0.21081   0.10123   0.00000  Uiso   1.00
C146   C     0.86249   0.28065   0.40143   0.00000  Uiso   1.00
C147   C     0.83963   0.28914   0.10303   0.00000  Uiso   1.00
C148   C     0.80452   0.21918   0.39406   0.00000  Uiso   1.00
C149   C     0.83969   0.28988   0.05344   0.00000  Uiso   1.00
C150   C     0.80386   0.21868   0.44358   0.00000  Uiso   1.00
C151   C     0.83354   0.24996   0.02661   0.00000  Uiso   1.00
C152   C     0.83352   0.24995   0.47327   0.00000  Uiso   1.00
C153   C     0.73398   0.25095   0.23805   0.00000  Uiso   1.00
C154   C     0.93268   0.24913   0.26192   0.00000  Uiso   1.00
C155   C     0.68014   0.25929   0.23358   0.00000  Uiso   1.00
C156   C     0.98646   0.24075   0.26631   0.00000  Uiso   1.00
C157   C     0.81544   0.04551   0.28200   0.00000  Uiso   1.00
C158   C     0.81686   0.45448   0.21293   0.00000  Uiso   1.00
C159   C     0.81159   0.09155   0.28165   0.00000  Uiso   1.00
C160   C     0.81304   0.40843   0.21229   0.00000  Uiso   1.00
C161   C     0.83749   0.11604   0.25025   0.00000  Uiso   1.00
C162   C     0.83762   0.38401   0.25079   0.00000  Uiso   1.00
C163   C     0.86836   0.09492   0.21999   0.00000  Uiso   1.00
C164   C     0.86721   0.40526   0.28943   0.00000  Uiso   1.00
C165   C     0.87349   0.04861   0.22082   0.00000  Uiso   1.00
C166   C     0.87228   0.45158   0.28997   0.00000  Uiso   1.00
C167   C     0.84619   0.02416   0.25187   0.00000  Uiso   1.00
C168   C     0.84627   0.47594   0.25145   0.00000  Uiso   1.00
H169   H     0.79410   0.02636   0.30540   0.00000  Uiso   1.00
H170   H     0.79651   0.47355   0.18367   0.00000  Uiso   1.00
H171   H     0.78770   0.10799   0.30508   0.00000  Uiso   1.00
H172   H     0.79017   0.39194   0.18235   0.00000  Uiso   1.00
H173   H     0.88899   0.11464   0.19648   0.00000  Uiso   1.00
H174   H     0.88688   0.38564   0.31861   0.00000  Uiso   1.00
H175   H     0.82340   0.17815   0.03328   0.00000  Uiso   1.00
H176   H     0.88756   0.30549   0.47198   0.00000  Uiso   1.00
H177   H     0.82247   0.17977   0.11963   0.00000  Uiso   1.00
H178   H     0.88555   0.30473   0.38494   0.00000  Uiso   1.00
H179   H     0.84451   0.32018   0.12283   0.00000  Uiso   1.00
H180   H     0.78188   0.19479   0.37179   0.00000  Uiso   1.00
H181   H     0.84378   0.32175   0.03629   0.00000  Uiso   1.00
H182   H     0.77967   0.19426   0.45825   0.00000  Uiso   1.00
N183   N     0.83333   0.24999   0.12623   0.00000  Uiso   1.00
N184   N     0.83333   0.25001   0.37376   0.00000  Uiso   1.00
O185   O     0.83334   0.18454   0.28974   0.00000  Uiso   1.00
O186   O     0.83333   0.31547   0.21026   0.00000  Uiso   1.00
O187   O     0.83334   0.18453   0.21026   0.00000  Uiso   1.00
O188   O     0.83333   0.31547   0.28974   0.00000  Uiso   1.00
O189   O     0.75725   0.25000   0.28044   0.00000  Uiso   1.00
O190   O     0.90942   0.25000   0.21955   0.00000  Uiso   1.00
O191   O     0.75725   0.25000   0.20096   0.00000  Uiso   1.00
O192   O     0.90942   0.25001   0.29903   0.00000  Uiso   1.00
Zn193  Zn    0.83333   0.25001   0.30307   0.00000  Uiso   1.00
Zn194  Zn    0.83333   0.25000   0.19693   0.00000  Uiso   1.00
C195   C     0.99248   0.29492   0.19758   0.00000  Uiso   1.00
H196   H     0.69120   0.31359   0.18402   0.00000  Uiso   1.00
H197   H     0.96864   0.27919   0.16639   0.00000  Uiso   1.00
H198   H     0.96904   0.32008   0.21431   0.00000  Uiso   1.00
C199   C     0.67403   0.20521   0.30237   0.00000  Uiso   1.00
H200   H     0.97529   0.18587   0.31505   0.00000  Uiso   1.00
H201   H     0.69861   0.18055   0.28622   0.00000  Uiso   1.00
H202   H     0.69656   0.22134   0.33397   0.00000  Uiso   1.00
C203   C     0.90822   0.02599   0.18941   0.00000  Uiso   1.00
H204   H     0.93811   0.00566   0.21157   0.00000  Uiso   1.00
H205   H     0.88474   0.00390   0.16321   0.00000  Uiso   1.00
H206   H     0.92870   0.05071   0.16937   0.00000  Uiso   1.00
C207   C     0.90558   0.47432   0.33088   0.00000  Uiso   1.00
H208   H     0.93610   0.49474   0.31716   0.00000  Uiso   1.00
H209   H     0.88117   0.49634   0.35038   0.00000  Uiso   1.00
H210   H     0.92524   0.44968   0.35655   0.00000  Uiso   1.00
C211   C     0.16709   0.66389   0.24997   0.00000  Uiso   1.00
C212   C     0.16717   0.83613   0.25014   0.00000  Uiso   1.00
C213   C     0.16071   0.71004   0.05164   0.00000  Uiso   1.00
C214   C     0.19655   0.78117   0.45113   0.00000  Uiso   1.00
C215   C     0.16060   0.71081   0.10123   0.00000  Uiso   1.00
C216   C     0.19582   0.78065   0.40143   0.00000  Uiso   1.00
C217   C     0.17296   0.78914   0.10303   0.00000  Uiso   1.00
C218   C     0.13785   0.71918   0.39406   0.00000  Uiso   1.00
C219   C     0.17302   0.78988   0.05344   0.00000  Uiso   1.00
C220   C     0.13720   0.71868   0.44358   0.00000  Uiso   1.00
C221   C     0.16687   0.74996   0.02661   0.00000  Uiso   1.00
C222   C     0.16685   0.74995   0.47327   0.00000  Uiso   1.00
C223   C     0.06731   0.75095   0.23805   0.00000  Uiso   1.00
C224   C     0.26601   0.74913   0.26192   0.00000  Uiso   1.00
C225   C     0.01348   0.75929   0.23358   0.00000  Uiso   1.00
C226   C     0.31979   0.74075   0.26631   0.00000  Uiso   1.00
C227   C     0.14877   0.54551   0.28200   0.00000  Uiso   1.00
C228   C     0.15020   0.95448   0.21293   0.00000  Uiso   1.00
C229   C     0.14492   0.59155   0.28165   0.00000  Uiso   1.00
C230   C     0.14638   0.90843   0.21229   0.00000  Uiso   1.00
C231   C     0.17082   0.61604   0.25025   0.00000  Uiso   1.00
C232   C     0.17095   0.88401   0.25079   0.00000  Uiso   1.00
C233   C     0.20170   0.59492   0.21999   0.00000  Uiso   1.00
C234   C     0.20055   0.90526   0.28943   0.00000  Uiso   1.00
C235   C     0.20683   0.54861   0.22082   0.00000  Uiso   1.00
C236   C     0.20562   0.95158   0.28997   0.00000  Uiso   1.00
C237   C     0.17953   0.52416   0.25187   0.00000  Uiso   1.00
C238   C     0.17960   0.97594   0.25145   0.00000  Uiso   1.00
H239   H     0.12743   0.52636   0.30540   0.00000  Uiso   1.00
H240   H     0.12984   0.97355   0.18367   0.00000  Uiso   1.00
H241   H     0.12104   0.60799   0.30508   0.00000  Uiso   1.00
H242   H     0.12350   0.89194   0.18235   0.00000  Uiso   1.00
H243   H     0.22233   0.61464   0.19648   0.00000  Uiso   1.00
H244   H     0.22021   0.88564   0.31861   0.00000  Uiso   1.00
H245   H     0.15674   0.67815   0.03328   0.00000  Uiso   1.00
H246   H     0.22090   0.80549   0.47198   0.00000  Uiso   1.00
H247   H     0.15580   0.67977   0.11963   0.00000  Uiso   1.00
H248   H     0.21889   0.80473   0.38494   0.00000  Uiso   1.00
H249   H     0.17784   0.82018   0.12283   0.00000  Uiso   1.00
H250   H     0.11521   0.69479   0.37179   0.00000  Uiso   1.00
H251   H     0.17712   0.82175   0.03629   0.00000  Uiso   1.00
H252   H     0.11301   0.69426   0.45825   0.00000  Uiso   1.00
N253   N     0.16667   0.74999   0.12623   0.00000  Uiso   1.00
N254   N     0.16667   0.75001   0.37376   0.00000  Uiso   1.00
O255   O     0.16667   0.68454   0.28974   0.00000  Uiso   1.00
O256   O     0.16666   0.81547   0.21026   0.00000  Uiso   1.00
O257   O     0.16667   0.68453   0.21026   0.00000  Uiso   1.00
O258   O     0.16666   0.81547   0.28974   0.00000  Uiso   1.00
O259   O     0.09058   0.75000   0.28044   0.00000  Uiso   1.00
O260   O     0.24275   0.75000   0.21955   0.00000  Uiso   1.00
O261   O     0.09058   0.75000   0.20096   0.00000  Uiso   1.00
O262   O     0.24275   0.75001   0.29903   0.00000  Uiso   1.00
Zn263  Zn    0.16667   0.75001   0.30307   0.00000  Uiso   1.00
Zn264  Zn    0.16667   0.75000   0.19693   0.00000  Uiso   1.00
C265   C     0.32582   0.79492   0.19758   0.00000  Uiso   1.00
H266   H     0.02453   0.81359   0.18402   0.00000  Uiso   1.00
H267   H     0.30197   0.77919   0.16639   0.00000  Uiso   1.00
H268   H     0.30237   0.82008   0.21431   0.00000  Uiso   1.00
C269   C     0.00737   0.70521   0.30237   0.00000  Uiso   1.00
H270   H     0.30862   0.68587   0.31505   0.00000  Uiso   1.00
H271   H     0.03195   0.68055   0.28622   0.00000  Uiso   1.00
H272   H     0.02990   0.72134   0.33397   0.00000  Uiso   1.00
C273   C     0.24155   0.52599   0.18941   0.00000  Uiso   1.00
H274   H     0.27145   0.50566   0.21157   0.00000  Uiso   1.00
H275   H     0.21807   0.50390   0.16321   0.00000  Uiso   1.00
H276   H     0.26203   0.55071   0.16937   0.00000  Uiso   1.00
C277   C     0.23891   0.97432   0.33088   0.00000  Uiso   1.00
H278   H     0.26943   0.99474   0.31716   0.00000  Uiso   1.00
H279   H     0.21450   0.99634   0.35038   0.00000  Uiso   1.00
H280   H     0.25858   0.94968   0.35655   0.00000  Uiso   1.00
C281   C     0.50043   0.66389   0.24997   0.00000  Uiso   1.00
C282   C     0.50051   0.83613   0.25014   0.00000  Uiso   1.00
C283   C     0.49405   0.71004   0.05164   0.00000  Uiso   1.00
C284   C     0.52988   0.78117   0.45113   0.00000  Uiso   1.00
C285   C     0.49394   0.71081   0.10123   0.00000  Uiso   1.00
C286   C     0.52915   0.78065   0.40143   0.00000  Uiso   1.00
C287   C     0.50630   0.78914   0.10303   0.00000  Uiso   1.00
C288   C     0.47119   0.71918   0.39406   0.00000  Uiso   1.00
C289   C     0.50636   0.78988   0.05344   0.00000  Uiso   1.00
C290   C     0.47053   0.71868   0.44358   0.00000  Uiso   1.00
C291   C     0.50020   0.74996   0.02661   0.00000  Uiso   1.00
C292   C     0.50019   0.74995   0.47327   0.00000  Uiso   1.00
C293   C     0.40064   0.75095   0.23805   0.00000  Uiso   1.00
C294   C     0.59934   0.74913   0.26192   0.00000  Uiso   1.00
C295   C     0.34681   0.75929   0.23358   0.00000  Uiso   1.00
C296   C     0.65313   0.74075   0.26631   0.00000  Uiso   1.00
C297   C     0.48210   0.54551   0.28200   0.00000  Uiso   1.00
C298   C     0.48353   0.95448   0.21293   0.00000  Uiso   1.00
C299   C     0.47826   0.59155   0.28165   0.00000  Uiso   1.00
C300   C     0.47971   0.90843   0.21229   0.00000  Uiso   1.00
C301   C     0.50416   0.61604   0.25025   0.00000  Uiso   1.00
C302   C     0.50429   0.88401   0.25079   0.00000  Uiso   1.00
C303   C     0.53503   0.59492   0.21999   0.00000  Uiso   1.00
C304   C     0.53388   0.90526   0.28943   0.00000  Uiso   1.00
C305   C     0.54016   0.54861   0.22082   0.00000  Uiso   1.00
C306   C     0.53895   0.95158   0.28997   0.00000  Uiso   1.00
C307   C     0.51286   0.52416   0.25187   0.00000  Uiso   1.00
C308   C     0.51294   0.97594   0.25145   0.00000  Uiso   1.00
H309   H     0.46077   0.52636   0.30540   0.00000  Uiso   1.00
H310   H     0.46317   0.97355   0.18367   0.00000  Uiso   1.00
H311   H     0.45437   0.60799   0.30508   0.00000  Uiso   1.00
H312   H     0.45683   0.89194   0.18235   0.00000  Uiso   1.00
H313   H     0.55566   0.61464   0.19648   0.00000  Uiso   1.00
H314   H     0.55355   0.88564   0.31861   0.00000  Uiso   1.00
H315   H     0.49007   0.67815   0.03328   0.00000  Uiso   1.00
H316   H     0.55423   0.80549   0.47198   0.00000  Uiso   1.00
H317   H     0.48914   0.67977   0.11963   0.00000  Uiso   1.00
H318   H     0.55222   0.80473   0.38494   0.00000  Uiso   1.00
H319   H     0.51118   0.82018   0.12283   0.00000  Uiso   1.00
H320   H     0.44854   0.69479   0.37179   0.00000  Uiso   1.00
H321   H     0.51045   0.82175   0.03629   0.00000  Uiso   1.00
H322   H     0.44634   0.69426   0.45825   0.00000  Uiso   1.00
N323   N     0.50000   0.74999   0.12623   0.00000  Uiso   1.00
N324   N     0.50000   0.75001   0.37376   0.00000  Uiso   1.00
O325   O     0.50000   0.68454   0.28974   0.00000  Uiso   1.00
O326   O     0.50000   0.81547   0.21026   0.00000  Uiso   1.00
O327   O     0.50000   0.68453   0.21026   0.00000  Uiso   1.00
O328   O     0.50000   0.81547   0.28974   0.00000  Uiso   1.00
O329   O     0.42392   0.75000   0.28044   0.00000  Uiso   1.00
O330   O     0.57608   0.75000   0.21955   0.00000  Uiso   1.00
O331   O     0.42392   0.75000   0.20096   0.00000  Uiso   1.00
O332   O     0.57608   0.75001   0.29903   0.00000  Uiso   1.00
Zn333  Zn    0.50000   0.75001   0.30307   0.00000  Uiso   1.00
Zn334  Zn    0.50000   0.75000   0.19693   0.00000  Uiso   1.00
C335   C     0.65915   0.79492   0.19758   0.00000  Uiso   1.00
H336   H     0.35786   0.81359   0.18402   0.00000  Uiso   1.00
H337   H     0.63530   0.77919   0.16639   0.00000  Uiso   1.00
H338   H     0.63570   0.82008   0.21431   0.00000  Uiso   1.00
C339   C     0.34070   0.70521   0.30237   0.00000  Uiso   1.00
H340   H     0.64196   0.68587   0.31505   0.00000  Uiso   1.00
H341   H     0.36528   0.68055   0.28622   0.00000  Uiso   1.00
H342   H     0.36323   0.72134   0.33397   0.00000  Uiso   1.00
C343   C     0.57489   0.52599   0.18941   0.00000  Uiso   1.00
H344   H     0.60478   0.50566   0.21157   0.00000  Uiso   1.00
H345   H     0.55141   0.50390   0.16321   0.00000  Uiso   1.00
H346   H     0.59536   0.55071   0.16937   0.00000  Uiso   1.00
C347   C     0.57224   0.97432   0.33088   0.00000  Uiso   1.00
H348   H     0.60276   0.99474   0.31716   0.00000  Uiso   1.00
H349   H     0.54784   0.99634   0.35038   0.00000  Uiso   1.00
H350   H     0.59191   0.94968   0.35655   0.00000  Uiso   1.00
C351   C     0.83376   0.66389   0.24997   0.00000  Uiso   1.00
C352   C     0.83384   0.83613   0.25014   0.00000  Uiso   1.00
C353   C     0.82738   0.71004   0.05164   0.00000  Uiso   1.00
C354   C     0.86321   0.78117   0.45113   0.00000  Uiso   1.00
C355   C     0.82727   0.71081   0.10123   0.00000  Uiso   1.00
C356   C     0.86249   0.78065   0.40143   0.00000  Uiso   1.00
C357   C     0.83963   0.78914   0.10303   0.00000  Uiso   1.00
C358   C     0.80452   0.71918   0.39406   0.00000  Uiso   1.00
C359   C     0.83969   0.78988   0.05344   0.00000  Uiso   1.00
C360   C     0.80386   0.71868   0.44358   0.00000  Uiso   1.00
C361   C     0.83354   0.74996   0.02661   0.00000  Uiso   1.00
C362   C     0.83352   0.74995   0.47327   0.00000  Uiso   1.00
C363   C     0.73398   0.75095   0.23805   0.00000  Uiso   1.00
C364   C     0.93268   0.74913   0.26192   0.00000  Uiso   1.00
C365   C     0.68014   0.75929   0.23358   0.00000  Uiso   1.00
C366   C     0.98646   0.74075   0.26631   0.00000  Uiso   1.00
C367   C     0.81544   0.54551   0.28200   0.00000  Uiso   1.00
C368   C     0.81686   0.95448   0.21293   0.00000  Uiso   1.00
C369   C     0.81159   0.59155   0.28165   0.00000  Uiso   1.00
C370   C     0.81304   0.90843   0.21229   0.00000  Uiso   1.00
C371   C     0.83749   0.61604   0.25025   0.00000  Uiso   1.00
C372   C     0.83762   0.88401   0.25079   0.00000  Uiso   1.00
C373   C     0.86836   0.59492   0.21999   0.00000  Uiso   1.00
C374   C     0.86721   0.90526   0.28943   0.00000  Uiso   1.00
C375   C     0.87349   0.54861   0.22082   0.00000  Uiso   1.00
C376   C     0.87228   0.95158   0.28997   0.00000  Uiso   1.00
C377   C     0.84619   0.52416   0.25187   0.00000  Uiso   1.00
C378   C     0.84627   0.97594   0.25145   0.00000  Uiso   1.00
H379   H     0.79410   0.52636   0.30540   0.00000  Uiso   1.00
H380   H     0.79651   0.97355   0.18367   0.00000  Uiso   1.00
H381   H     0.78770   0.60799   0.30508   0.00000  Uiso   1.00
H382   H     0.79017   0.89194   0.18235   0.00000  Uiso   1.00
H383   H     0.88899   0.61464   0.19648   0.00000  Uiso   1.00
H384   H     0.88688   0.88564   0.31861   0.00000  Uiso   1.00
H385   H     0.82340   0.67815   0.03328   0.00000  Uiso   1.00
H386   H     0.88756   0.80549   0.47198   0.00000  Uiso   1.00
H387   H     0.82247   0.67977   0.11963   0.00000  Uiso   1.00
H388   H     0.88555   0.80473   0.38494   0.00000  Uiso   1.00
H389   H     0.84451   0.82018   0.12283   0.00000  Uiso   1.00
H390   H     0.78188   0.69479   0.37179   0.00000  Uiso   1.00
H391   H     0.84378   0.82175   0.03629   0.00000  Uiso   1.00
H392   H     0.77967   0.69426   0.45825   0.00000  Uiso   1.00
N393   N     0.83333   0.74999   0.12623   0.00000  Uiso   1.00
N394   N     0.83333   0.75001   0.37376   0.00000  Uiso   1.00
O395   O     0.83334   0.68454   0.28974   0.00000  Uiso   1.00
O396   O     0.83333   0.81547   0.21026   0.00000  Uiso   1.00
O397   O     0.83334   0.68453   0.21026   0.00000  Uiso   1.00
O398   O     0.83333   0.81547   0.28974   0.00000  Uiso   1.00
O399   O     0.75725   0.75000   0.28044   0.00000  Uiso   1.00
O400   O     0.90942   0.75000   0.21955   0.00000  Uiso   1.00
O401   O     0.75725   0.75000   0.20096   0.00000  Uiso   1.00
O402   O     0.90942   0.75001   0.29903   0.00000  Uiso   1.00
Zn403  Zn    0.83333   0.75001   0.30307   0.00000  Uiso   1.00
Zn404  Zn    0.83333   0.75000   0.19693   0.00000  Uiso   1.00
C405   C     0.99248   0.79492   0.19758   0.00000  Uiso   1.00
H406   H     0.69120   0.81359   0.18402   0.00000  Uiso   1.00
H407   H     0.96864   0.77919   0.16639   0.00000  Uiso   1.00
H408   H     0.96904   0.82008   0.21431   0.00000  Uiso   1.00
C409   C     0.67403   0.70521   0.30237   0.00000  Uiso   1.00
H410   H     0.97529   0.68587   0.31505   0.00000  Uiso   1.00
H411   H     0.69861   0.68055   0.28622   0.00000  Uiso   1.00
H412   H     0.69656   0.72134   0.33397   0.00000  Uiso   1.00
C413   C     0.90822   0.52599   0.18941   0.00000  Uiso   1.00
H414   H     0.93811   0.50566   0.21157   0.00000  Uiso   1.00
H415   H     0.88474   0.50390   0.16321   0.00000  Uiso   1.00
H416   H     0.92870   0.55071   0.16937   0.00000  Uiso   1.00
C417   C     0.90558   0.97432   0.33088   0.00000  Uiso   1.00
H418   H     0.93610   0.99474   0.31716   0.00000  Uiso   1.00
H419   H     0.88117   0.99634   0.35038   0.00000  Uiso   1.00
H420   H     0.92524   0.94968   0.35655   0.00000  Uiso   1.00
C421   C     0.16709   0.16389   0.74997   0.00000  Uiso   1.00
C422   C     0.16717   0.33613   0.75014   0.00000  Uiso   1.00
C423   C     0.16071   0.21004   0.55164   0.00000  Uiso   1.00
C424   C     0.19655   0.28117   0.95113   0.00000  Uiso   1.00
C425   C     0.16060   0.21081   0.60123   0.00000  Uiso   1.00
C426   C     0.19582   0.28065   0.90143   0.00000  Uiso   1.00
C427   C     0.17296   0.28914   0.60303   0.00000  Uiso   1.00
C428   C     0.13785   0.21918   0.89406   0.00000  Uiso   1.00
C429   C     0.17302   0.28988   0.55344   0.00000  Uiso   1.00
C430   C     0.13720   0.21868   0.94358   0.00000  Uiso   1.00
C431   C     0.16687   0.24996   0.52661   0.00000  Uiso   1.00
C432   C     0.16685   0.24995   0.97327   0.00000  Uiso   1.00
C433   C     0.06731   0.25095   0.73805   0.00000  Uiso   1.00
C434   C     0.26601   0.24913   0.76192   0.00000  Uiso   1.00
C435   C     0.01348   0.25929   0.73358   0.00000  Uiso   1.00
C436   C     0.31979   0.24075   0.76631   0.00000  Uiso   1.00
C437   C     0.14877   0.04551   0.78200   0.00000  Uiso   1.00
C438   C     0.15020   0.45448   0.71293   0.00000  Uiso   1.00
C439   C     0.14492   0.09155   0.78165   0.00000  Uiso   1.00
C440   C     0.14638   0.40843   0.71229   0.00000  Uiso   1.00
C441   C     0.17082   0.11604   0.75025   0.00000  Uiso   1.00
C442   C     0.17095   0.38401   0.75079   0.00000  Uiso   1.00
C443   C     0.20170   0.09492   0.71999   0.00000  Uiso   1.00
C444   C     0.20055   0.40526   0.78943   0.00000  Uiso   1.00
C445   C     0.20683   0.04861   0.72082   0.00000  Uiso   1.00
C446   C     0.20562   0.45158   0.78997   0.00000  Uiso   1.00
C447   C     0.17953   0.02416   0.75187   0.00000  Uiso   1.00
C448   C     0.17960   0.47594   0.75145   0.00000  Uiso   1.00
H449   H     0.12743   0.02636   0.80540   0.00000  Uiso   1.00
H450   H     0.12984   0.47355   0.68367   0.00000  Uiso   1.00
H451   H     0.12104   0.10799   0.80508   0.00000  Uiso   1.00
H452   H     0.12350   0.39194   0.68235   0.00000  Uiso   1.00
H453   H     0.22233   0.11464   0.69648   0.00000  Uiso   1.00
H454   H     0.22021   0.38564   0.81861   0.00000  Uiso   1.00
H455   H     0.15674   0.17815   0.53328   0.00000  Uiso   1.00
H456   H     0.22090   0.30549   0.97198   0.00000  Uiso   1.00
H457   H     0.15580   0.17977   0.61963   0.00000  Uiso   1.00
H458   H     0.21889   0.30473   0.88494   0.00000  Uiso   1.00
H459   H     0.17784   0.32018   0.62283   0.00000  Uiso   1.00
H460   H     0.11521   0.19479   0.87179   0.00000  Uiso   1.00
H461   H     0.17712   0.32175   0.53629   0.00000  Uiso   1.00
H462   H     0.11301   0.19426   0.95825   0.00000  Uiso   1.00
N463   N     0.16667   0.24999   0.62623   0.00000  Uiso   1.00
N464   N     0.16667   0.25001   0.87376   0.00000  Uiso   1.00
O465   O     0.16667   0.18454   0.78974   0.00000  Uiso   1.00
O466   O     0.16666   0.31547   0.71026   0.00000  Uiso   1.00
O467   O     0.16667   0.18453   0.71026   0.00000  Uiso   1.00
O468   O     0.16666   0.31547   0.78974   0.00000  Uiso   1.00
O469   O     0.09058   0.25000   0.78044   0.00000  Uiso   1.00
O470   O     0.24275   0.25000   0.71955   0.00000  Uiso   1.00
O471   O     0.09058   0.25000   0.70096   0.00000  Uiso   1.00
O472   O     0.24275   0.25001   0.79903   0.00000  Uiso   1.00
Zn473  Zn    0.16667   0.25001   0.80307   0.00000  Uiso   1.00
Zn474  Zn    0.16667   0.25000   0.69693   0.00000  Uiso   1.00
C475   C     0.32582   0.29492   0.69758   0.00000  Uiso   1.00
H476   H     0.02453   0.31359   0.68402   0.00000  Uiso   1.00
H477   H     0.30197   0.27919   0.66639   0.00000  Uiso   1.00
H478   H     0.30237   0.32008   0.71431   0.00000  Uiso   1.00
C479   C     0.00737   0.20521   0.80237   0.00000  Uiso   1.00
H480   H     0.30862   0.18587   0.81505   0.00000  Uiso   1.00
H481   H     0.03195   0.18055   0.78622   0.00000  Uiso   1.00
H482   H     0.02990   0.22134   0.83397   0.00000  Uiso   1.00
C483   C     0.24155   0.02599   0.68941   0.00000  Uiso   1.00
H484   H     0.27145   0.00566   0.71157   0.00000  Uiso   1.00
H485   H     0.21807   0.00390   0.66321   0.00000  Uiso   1.00
H486   H     0.26203   0.05071   0.66937   0.00000  Uiso   1.00
C487   C     0.23891   0.47432   0.83088   0.00000  Uiso   1.00
H488   H     0.26943   0.49474   0.81716   0.00000  Uiso   1.00
H489   H     0.21450   0.49634   0.85038   0.00000  Uiso   1.00
H490   H     0.25858   0.44968   0.85655   0.00000  Uiso   1.00
C491   C     0.50043   0.16389   0.74997   0.00000  Uiso   1.00
C492   C     0.50051   0.33613   0.75014   0.00000  Uiso   1.00
C493   C     0.49405   0.21004   0.55164   0.00000  Uiso   1.00
C494   C     0.52988   0.28117   0.95113   0.00000  Uiso   1.00
C495   C     0.49394   0.21081   0.60123   0.00000  Uiso   1.00
C496   C     0.52915   0.28065   0.90143   0.00000  Uiso   1.00
C497   C     0.50630   0.28914   0.60303   0.00000  Uiso   1.00
C498   C     0.47119   0.21918   0.89406   0.00000  Uiso   1.00
C499   C     0.50636   0.28988   0.55344   0.00000  Uiso   1.00
C500   C     0.47053   0.21868   0.94358   0.00000  Uiso   1.00
C501   C     0.50020   0.24996   0.52661   0.00000  Uiso   1.00
C502   C     0.50019   0.24995   0.97327   0.00000  Uiso   1.00
C503   C     0.40064   0.25095   0.73805   0.00000  Uiso   1.00
C504   C     0.59934   0.24913   0.76192   0.00000  Uiso   1.00
C505   C     0.34681   0.25929   0.73358   0.00000  Uiso   1.00
C506   C     0.65313   0.24075   0.76631   0.00000  Uiso   1.00
C507   C     0.48210   0.04551   0.78200   0.00000  Uiso   1.00
C508   C     0.48353   0.45448   0.71293   0.00000  Uiso   1.00
C509   C     0.47826   0.09155   0.78165   0.00000  Uiso   1.00
C510   C     0.47971   0.40843   0.71229   0.00000  Uiso   1.00
C511   C     0.50416   0.11604   0.75025   0.00000  Uiso   1.00
C512   C     0.50429   0.38401   0.75079   0.00000  Uiso   1.00
C513   C     0.53503   0.09492   0.71999   0.00000  Uiso   1.00
C514   C     0.53388   0.40526   0.78943   0.00000  Uiso   1.00
C515   C     0.54016   0.04861   0.72082   0.00000  Uiso   1.00
C516   C     0.53895   0.45158   0.78997   0.00000  Uiso   1.00
C517   C     0.51286   0.02416   0.75187   0.00000  Uiso   1.00
C518   C     0.51294   0.47594   0.75145   0.00000  Uiso   1.00
H519   H     0.46077   0.02636   0.80540   0.00000  Uiso   1.00
H520   H     0.46317   0.47355   0.68367   0.00000  Uiso   1.00
H521   H     0.45437   0.10799   0.80508   0.00000  Uiso   1.00
H522   H     0.45683   0.39194   0.68235   0.00000  Uiso   1.00
H523   H     0.55566   0.11464   0.69648   0.00000  Uiso   1.00
H524   H     0.55355   0.38564   0.81861   0.00000  Uiso   1.00
H525   H     0.49007   0.17815   0.53328   0.00000  Uiso   1.00
H526   H     0.55423   0.30549   0.97198   0.00000  Uiso   1.00
H527   H     0.48914   0.17977   0.61963   0.00000  Uiso   1.00
H528   H     0.55222   0.30473   0.88494   0.00000  Uiso   1.00
H529   H     0.51118   0.32018   0.62283   0.00000  Uiso   1.00
H530   H     0.44854   0.19479   0.87179   0.00000  Uiso   1.00
H531   H     0.51045   0.32175   0.53629   0.00000  Uiso   1.00
H532   H     0.44634   0.19426   0.95825   0.00000  Uiso   1.00
N533   N     0.50000   0.24999   0.62623   0.00000  Uiso   1.00
N534   N     0.50000   0.25001   0.87376   0.00000  Uiso   1.00
O535   O     0.50000   0.18454   0.78974   0.00000  Uiso   1.00
O536   O     0.50000   0.31547   0.71026   0.00000  Uiso   1.00
O537   O     0.50000   0.18453   0.71026   0.00000  Uiso   1.00
O538   O     0.50000   0.31547   0.78974   0.00000  Uiso   1.00
O539   O     0.42392   0.25000   0.78044   0.00000  Uiso   1.00
O540   O     0.57608   0.25000   0.71955   0.00000  Uiso   1.00
O541   O     0.42392   0.25000   0.70096   0.00000  Uiso   1.00
O542   O     0.57608   0.25001   0.79903   0.00000  Uiso   1.00
Zn543  Zn    0.50000   0.25001   0.80307   0.00000  Uiso   1.00
Zn544  Zn    0.50000   0.25000   0.69693   0.00000  Uiso   1.00
C545   C     0.65915   0.29492   0.69758   0.00000  Uiso   1.00
H546   H     0.35786   0.31359   0.68402   0.00000  Uiso   1.00
H547   H     0.63530   0.27919   0.66639   0.00000  Uiso   1.00
H548   H     0.63570   0.32008   0.71431   0.00000  Uiso   1.00
C549   C     0.34070   0.20521   0.80237   0.00000  Uiso   1.00
H550   H     0.64196   0.18587   0.81505   0.00000  Uiso   1.00
H551   H     0.36528   0.18055   0.78622   0.00000  Uiso   1.00
H552   H     0.36323   0.22134   0.83397   0.00000  Uiso   1.00
C553   C     0.57489   0.02599   0.68941   0.00000  Uiso   1.00
H554   H     0.60478   0.00566   0.71157   0.00000  Uiso   1.00
H555   H     0.55141   0.00390   0.66321   0.00000  Uiso   1.00
H556   H     0.59536   0.05071   0.66937   0.00000  Uiso   1.00
C557   C     0.57224   0.47432   0.83088   0.00000  Uiso   1.00
H558   H     0.60276   0.49474   0.81716   0.00000  Uiso   1.00
H559   H     0.54784   0.49634   0.85038   0.00000  Uiso   1.00
H560   H     0.59191   0.44968   0.85655   0.00000  Uiso   1.00
C561   C     0.83376   0.16389   0.74997   0.00000  Uiso   1.00
C562   C     0.83384   0.33613   0.75014   0.00000  Uiso   1.00
C563   C     0.82738   0.21004   0.55164   0.00000  Uiso   1.00
C564   C     0.86321   0.28117   0.95113   0.00000  Uiso   1.00
C565   C     0.82727   0.21081   0.60123   0.00000  Uiso   1.00
C566   C     0.86249   0.28065   0.90143   0.00000  Uiso   1.00
C567   C     0.83963   0.28914   0.60303   0.00000  Uiso   1.00
C568   C     0.80452   0.21918   0.89406   0.00000  Uiso   1.00
C569   C     0.83969   0.28988   0.55344   0.00000  Uiso   1.00
C570   C     0.80386   0.21868   0.94358   0.00000  Uiso   1.00
C571   C     0.83354   0.24996   0.52661   0.00000  Uiso   1.00
C572   C     0.83352   0.24995   0.97327   0.00000  Uiso   1.00
C573   C     0.73398   0.25095   0.73805   0.00000  Uiso   1.00
C574   C     0.93268   0.24913   0.76192   0.00000  Uiso   1.00
C575   C     0.68014   0.25929   0.73358   0.00000  Uiso   1.00
C576   C     0.98646   0.24075   0.76631   0.00000  Uiso   1.00
C577   C     0.81544   0.04551   0.78200   0.00000  Uiso   1.00
C578   C     0.81686   0.45448   0.71293   0.00000  Uiso   1.00
C579   C     0.81159   0.09155   0.78165   0.00000  Uiso   1.00
C580   C     0.81304   0.40843   0.71229   0.00000  Uiso   1.00
C581   C     0.83749   0.11604   0.75025   0.00000  Uiso   1.00
C582   C     0.83762   0.38401   0.75079   0.00000  Uiso   1.00
C583   C     0.86836   0.09492   0.71999   0.00000  Uiso   1.00
C584   C     0.86721   0.40526   0.78943   0.00000  Uiso   1.00
C585   C     0.87349   0.04861   0.72082   0.00000  Uiso   1.00
C586   C     0.87228   0.45158   0.78997   0.00000  Uiso   1.00
C587   C     0.84619   0.02416   0.75187   0.00000  Uiso   1.00
C588   C     0.84627   0.47594   0.75145   0.00000  Uiso   1.00
H589   H     0.79410   0.02636   0.80540   0.00000  Uiso   1.00
H590   H     0.79651   0.47355   0.68367   0.00000  Uiso   1.00
H591   H     0.78770   0.10799   0.80508   0.00000  Uiso   1.00
H592   H     0.79017   0.39194   0.68235   0.00000  Uiso   1.00
H593   H     0.88899   0.11464   0.69648   0.00000  Uiso   1.00
H594   H     0.88688   0.38564   0.81861   0.00000  Uiso   1.00
H595   H     0.82340   0.17815   0.53328   0.00000  Uiso   1.00
H596   H     0.88756   0.30549   0.97198   0.00000  Uiso   1.00
H597   H     0.82247   0.17977   0.61963   0.00000  Uiso   1.00
H598   H     0.88555   0.30473   0.88494   0.00000  Uiso   1.00
H599   H     0.84451   0.32018   0.62283   0.00000  Uiso   1.00
H600   H     0.78188   0.19479   0.87179   0.00000  Uiso   1.00
H601   H     0.84378   0.32175   0.53629   0.00000  Uiso   1.00
H602   H     0.77967   0.19426   0.95825   0.00000  Uiso   1.00
N603   N     0.83333   0.24999   0.62623   0.00000  Uiso   1.00
N604   N     0.83333   0.25001   0.87376   0.00000  Uiso   1.00
O605   O     0.83334   0.18454   0.78974   0.00000  Uiso   1.00
O606   O     0.83333   0.31547   0.71026   0.00000  Uiso   1.00
O607   O     0.83334   0.18453   0.71026   0.00000  Uiso   1.00
O608   O     0.83333   0.31547   0.78974   0.00000  Uiso   1.00
O609   O     0.75725   0.25000   0.78044   0.00000  Uiso   1.00
O610   O     0.90942   0.25000   0.71955   0.00000  Uiso   1.00
O611   O     0.75725   0.25000   0.70096   0.00000  Uiso   1.00
O612   O     0.90942   0.25001   0.79903   0.00000  Uiso   1.00
Zn613  Zn    0.83333   0.25001   0.80307   0.00000  Uiso   1.00
Zn614  Zn    0.83333   0.25000   0.69693   0.00000  Uiso   1.00
C615   C     0.99248   0.29492   0.69758   0.00000  Uiso   1.00
H616   H     0.69120   0.31359   0.68402   0.00000  Uiso   1.00
H617   H     0.96864   0.27919   0.66639   0.00000  Uiso   1.00
H618   H     0.96904   0.32008   0.71431   0.00000  Uiso   1.00
C619   C     0.67403   0.20521   0.80237   0.00000  Uiso   1.00
H620   H     0.97529   0.18587   0.81505   0.00000  Uiso   1.00
H621   H     0.69861   0.18055   0.78622   0.00000  Uiso   1.00
H622   H     0.69656   0.22134   0.83397   0.00000  Uiso   1.00
C623   C     0.90822   0.02599   0.68941   0.00000  Uiso   1.00
H624   H     0.93811   0.00566   0.71157   0.00000  Uiso   1.00
H625   H     0.88474   0.00390   0.66321   0.00000  Uiso   1.00
H626   H     0.92870   0.05071   0.66937   0.00000  Uiso   1.00
C627   C     0.90558   0.47432   0.83088   0.00000  Uiso   1.00
H628   H     0.93610   0.49474   0.81716   0.00000  Uiso   1.00
H629   H     0.88117   0.49634   0.85038   0.00000  Uiso   1.00
H630   H     0.92524   0.44968   0.85655   0.00000  Uiso   1.00
C631   C     0.16709   0.66389   0.74997   0.00000  Uiso   1.00
C632   C     0.16717   0.83613   0.75014   0.00000  Uiso   1.00
C633   C     0.16071   0.71004   0.55164   0.00000  Uiso   1.00
C634   C     0.19655   0.78117   0.95113   0.00000  Uiso   1.00
C635   C     0.16060   0.71081   0.60123   0.00000  Uiso   1.00
C636   C     0.19582   0.78065   0.90143   0.00000  Uiso   1.00
C637   C     0.17296   0.78914   0.60303   0.00000  Uiso   1.00
C638   C     0.13785   0.71918   0.89406   0.00000  Uiso   1.00
C639   C     0.17302   0.78988   0.55344   0.00000  Uiso   1.00
C640   C     0.13720   0.71868   0.94358   0.00000  Uiso   1.00
C641   C     0.16687   0.74996   0.52661   0.00000  Uiso   1.00
C642   C     0.16685   0.74995   0.97327   0.00000  Uiso   1.00
C643   C     0.06731   0.75095   0.73805   0.00000  Uiso   1.00
C644   C     0.26601   0.74913   0.76192   0.00000  Uiso   1.00
C645   C     0.01348   0.75929   0.73358   0.00000  Uiso   1.00
C646   C     0.31979   0.74075   0.76631   0.00000  Uiso   1.00
C647   C     0.14877   0.54551   0.78200   0.00000  Uiso   1.00
C648   C     0.15020   0.95448   0.71293   0.00000  Uiso   1.00
C649   C     0.14492   0.59155   0.78165   0.00000  Uiso   1.00
C650   C     0.14638   0.90843   0.71229   0.00000  Uiso   1.00
C651   C     0.17082   0.61604   0.75025   0.00000  Uiso   1.00
C652   C     0.17095   0.88401   0.75079   0.00000  Uiso   1.00
C653   C     0.20170   0.59492   0.71999   0.00000  Uiso   1.00
C654   C     0.20055   0.90526   0.78943   0.00000  Uiso   1.00
C655   C     0.20683   0.54861   0.72082   0.00000  Uiso   1.00
C656   C     0.20562   0.95158   0.78997   0.00000  Uiso   1.00
C657   C     0.17953   0.52416   0.75187   0.00000  Uiso   1.00
C658   C     0.17960   0.97594   0.75145   0.00000  Uiso   1.00
H659   H     0.12743   0.52636   0.80540   0.00000  Uiso   1.00
H660   H     0.12984   0.97355   0.68367   0.00000  Uiso   1.00
H661   H     0.12104   0.60799   0.80508   0.00000  Uiso   1.00
H662   H     0.12350   0.89194   0.68235   0.00000  Uiso   1.00
H663   H     0.22233   0.61464   0.69648   0.00000  Uiso   1.00
H664   H     0.22021   0.88564   0.81861   0.00000  Uiso   1.00
H665   H     0.15674   0.67815   0.53328   0.00000  Uiso   1.00
H666   H     0.22090   0.80549   0.97198   0.00000  Uiso   1.00
H667   H     0.15580   0.67977   0.61963   0.00000  Uiso   1.00
H668   H     0.21889   0.80473   0.88494   0.00000  Uiso   1.00
H669   H     0.17784   0.82018   0.62283   0.00000  Uiso   1.00
H670   H     0.11521   0.69479   0.87179   0.00000  Uiso   1.00
H671   H     0.17712   0.82175   0.53629   0.00000  Uiso   1.00
H672   H     0.11301   0.69426   0.95825   0.00000  Uiso   1.00
N673   N     0.16667   0.74999   0.62623   0.00000  Uiso   1.00
N674   N     0.16667   0.75001   0.87376   0.00000  Uiso   1.00
O675   O     0.16667   0.68454   0.78974   0.00000  Uiso   1.00
O676   O     0.16666   0.81547   0.71026   0.00000  Uiso   1.00
O677   O     0.16667   0.68453   0.71026   0.00000  Uiso   1.00
O678   O     0.16666   0.81547   0.78974   0.00000  Uiso   1.00
O679   O     0.09058   0.75000   0.78044   0.00000  Uiso   1.00
O680   O     0.24275   0.75000   0.71955   0.00000  Uiso   1.00
O681   O     0.09058   0.75000   0.70096   0.00000  Uiso   1.00
O682   O     0.24275   0.75001   0.79903   0.00000  Uiso   1.00
Zn683  Zn    0.16667   0.75001   0.80307   0.00000  Uiso   1.00
Zn684  Zn    0.16667   0.75000   0.69693   0.00000  Uiso   1.00
C685   C     0.32582   0.79492   0.69758   0.00000  Uiso   1.00
H686   H     0.02453   0.81359   0.68402   0.00000  Uiso   1.00
H687   H     0.30197   0.77919   0.66639   0.00000  Uiso   1.00
H688   H     0.30237   0.82008   0.71431   0.00000  Uiso   1.00
C689   C     0.00737   0.70521   0.80237   0.00000  Uiso   1.00
H690   H     0.30862   0.68587   0.81505   0.00000  Uiso   1.00
H691   H     0.03195   0.68055   0.78622   0.00000  Uiso   1.00
H692   H     0.02990   0.72134   0.83397   0.00000  Uiso   1.00
C693   C     0.24155   0.52599   0.68941   0.00000  Uiso   1.00
H694   H     0.27145   0.50566   0.71157   0.00000  Uiso   1.00
H695   H     0.21807   0.50390   0.66321   0.00000  Uiso   1.00
H696   H     0.26203   0.55071   0.66937   0.00000  Uiso   1.00
C697   C     0.23891   0.97432   0.83088   0.00000  Uiso   1.00
H698   H     0.26943   0.99474   0.81716   0.00000  Uiso   1.00
H699   H     0.21450   0.99634   0.85038   0.00000  Uiso   1.00
H700   H     0.25858   0.94968   0.85655   0.00000  Uiso   1.00
C701   C     0.50043   0.66389   0.74997   0.00000  Uiso   1.00
C702   C     0.50051   0.83613   0.75014   0.00000  Uiso   1.00
C703   C     0.49405   0.71004   0.55164   0.00000  Uiso   1.00
C704   C     0.52988   0.78117   0.95113   0.00000  Uiso   1.00
C705   C     0.49394   0.71081   0.60123   0.00000  Uiso   1.00
C706   C     0.52915   0.78065   0.90143   0.00000  Uiso   1.00
C707   C     0.50630   0.78914   0.60303   0.00000  Uiso   1.00
C708   C     0.47119   0.71918   0.89406   0.00000  Uiso   1.00
C709   C     0.50636   0.78988   0.55344   0.00000  Uiso   1.00
C710   C     0.47053   0.71868   0.94358   0.00000  Uiso   1.00
C711   C     0.50020   0.74996   0.52661   0.00000  Uiso   1.00
C712   C     0.50019   0.74995   0.97327   0.00000  Uiso   1.00
C713   C     0.40064   0.75095   0.73805   0.00000  Uiso   1.00
C714   C     0.59934   0.74913   0.76192   0.00000  Uiso   1.00
C715   C     0.34681   0.75929   0.73358   0.00000  Uiso   1.00
C716   C     0.65313   0.74075   0.76631   0.00000  Uiso   1.00
C717   C     0.48210   0.54551   0.78200   0.00000  Uiso   1.00
C718   C     0.48353   0.95448   0.71293   0.00000  Uiso   1.00
C719   C     0.47826   0.59155   0.78165   0.00000  Uiso   1.00
C720   C     0.47971   0.90843   0.71229   0.00000  Uiso   1.00
C721   C     0.50416   0.61604   0.75025   0.00000  Uiso   1.00
C722   C     0.50429   0.88401   0.75079   0.00000  Uiso   1.00
C723   C     0.53503   0.59492   0.71999   0.00000  Uiso   1.00
C724   C     0.53388   0.90526   0.78943   0.00000  Uiso   1.00
C725   C     0.54016   0.54861   0.72082   0.00000  Uiso   1.00
C726   C     0.53895   0.95158   0.78997   0.00000  Uiso   1.00
C727   C     0.51286   0.52416   0.75187   0.00000  Uiso   1.00
C728   C     0.51294   0.97594   0.75145   0.00000  Uiso   1.00
H729   H     0.46077   0.52636   0.80540   0.00000  Uiso   1.00
H730   H     0.46317   0.97355   0.68367   0.00000  Uiso   1.00
H731   H     0.45437   0.60799   0.80508   0.00000  Uiso   1.00
H732   H     0.45683   0.89194   0.68235   0.00000  Uiso   1.00
H733   H     0.55566   0.61464   0.69648   0.00000  Uiso   1.00
H734   H     0.55355   0.88564   0.81861   0.00000  Uiso   1.00
H735   H     0.49007   0.67815   0.53328   0.00000  Uiso   1.00
H736   H     0.55423   0.80549   0.97198   0.00000  Uiso   1.00
H737   H     0.48914   0.67977   0.61963   0.00000  Uiso   1.00
H738   H     0.55222   0.80473   0.88494   0.00000  Uiso   1.00
H739   H     0.51118   0.82018   0.62283   0.00000  Uiso   1.00
H740   H     0.44854   0.69479   0.87179   0.00000  Uiso   1.00
H741   H     0.51045   0.82175   0.53629   0.00000  Uiso   1.00
H742   H     0.44634   0.69426   0.95825   0.00000  Uiso   1.00
N743   N     0.50000   0.74999   0.62623   0.00000  Uiso   1.00
N744   N     0.50000   0.75001   0.87376   0.00000  Uiso   1.00
O745   O     0.50000   0.68454   0.78974   0.00000  Uiso   1.00
O746   O     0.50000   0.81547   0.71026   0.00000  Uiso   1.00
O747   O     0.50000   0.68453   0.71026   0.00000  Uiso   1.00
O748   O     0.50000   0.81547   0.78974   0.00000  Uiso   1.00
O749   O     0.42392   0.75000   0.78044   0.00000  Uiso   1.00
O750   O     0.57608   0.75000   0.71955   0.00000  Uiso   1.00
O751   O     0.42392   0.75000   0.70096   0.00000  Uiso   1.00
O752   O     0.57608   0.75001   0.79903   0.00000  Uiso   1.00
Zn753  Zn    0.50000   0.75001   0.80307   0.00000  Uiso   1.00
Zn754  Zn    0.50000   0.75000   0.69693   0.00000  Uiso   1.00
C755   C     0.65915   0.79492   0.69758   0.00000  Uiso   1.00
H756   H     0.35786   0.81359   0.68402   0.00000  Uiso   1.00
H757   H     0.63530   0.77919   0.66639   0.00000  Uiso   1.00
H758   H     0.63570   0.82008   0.71431   0.00000  Uiso   1.00
C759   C     0.34070   0.70521   0.80237   0.00000  Uiso   1.00
H760   H     0.64196   0.68587   0.81505   0.00000  Uiso   1.00
H761   H     0.36528   0.68055   0.78622   0.00000  Uiso   1.00
H762   H     0.36323   0.72134   0.83397   0.00000  Uiso   1.00
C763   C     0.57489   0.52599   0.68941   0.00000  Uiso   1.00
H764   H     0.60478   0.50566   0.71157   0.00000  Uiso   1.00
H765   H     0.55141   0.50390   0.66321   0.00000  Uiso   1.00
H766   H     0.59536   0.55071   0.66937   0.00000  Uiso   1.00
C767   C     0.57224   0.97432   0.83088   0.00000  Uiso   1.00
H768   H     0.60276   0.99474   0.81716   0.00000  Uiso   1.00
H769   H     0.54784   0.99634   0.85038   0.00000  Uiso   1.00
H770   H     0.59191   0.94968   0.85655   0.00000  Uiso   1.00
C771   C     0.83376   0.66389   0.74997   0.00000  Uiso   1.00
C772   C     0.83384   0.83613   0.75014   0.00000  Uiso   1.00
C773   C     0.82738   0.71004   0.55164   0.00000  Uiso   1.00
C774   C     0.86321   0.78117   0.95113   0.00000  Uiso   1.00
C775   C     0.82727   0.71081   0.60123   0.00000  Uiso   1.00
C776   C     0.86249   0.78065   0.90143   0.00000  Uiso   1.00
C777   C     0.83963   0.78914   0.60303   0.00000  Uiso   1.00
C778   C     0.80452   0.71918   0.89406   0.00000  Uiso   1.00
C779   C     0.83969   0.78988   0.55344   0.00000  Uiso   1.00
C780   C     0.80386   0.71868   0.94358   0.00000  Uiso   1.00
C781   C     0.83354   0.74996   0.52661   0.00000  Uiso   1.00
C782   C     0.83352   0.74995   0.97327   0.00000  Uiso   1.00
C783   C     0.73398   0.75095   0.73805   0.00000  Uiso   1.00
C784   C     0.93268   0.74913   0.76192   0.00000  Uiso   1.00
C785   C     0.68014   0.75929   0.73358   0.00000  Uiso   1.00
C786   C     0.98646   0.74075   0.76631   0.00000  Uiso   1.00
C787   C     0.81544   0.54551   0.78200   0.00000  Uiso   1.00
C788   C     0.81686   0.95448   0.71293   0.00000  Uiso   1.00
C789   C     0.81159   0.59155   0.78165   0.00000  Uiso   1.00
C790   C     0.81304   0.90843   0.71229   0.00000  Uiso   1.00
C791   C     0.83749   0.61604   0.75025   0.00000  Uiso   1.00
C792   C     0.83762   0.88401   0.75079   0.00000  Uiso   1.00
C793   C     0.86836   0.59492   0.71999   0.00000  Uiso   1.00
C794   C     0.86721   0.90526   0.78943   0.00000  Uiso   1.00
C795   C     0.87349   0.54861   0.72082   0.00000  Uiso   1.00
C796   C     0.87228   0.95158   0.78997   0.00000  Uiso   1.00
C797   C     0.84619   0.52416   0.75187   0.00000  Uiso   1.00
C798   C     0.84627   0.97594   0.75145   0.00000  Uiso   1.00
H799   H     0.79410   0.52636   0.80540   0.00000  Uiso   1.00
H800   H     0.79651   0.97355   0.68367   0.00000  Uiso   1.00
H801   H     0.78770   0.60799   0.80508   0.00000  Uiso   1.00
H802   H     0.79017   0.89194   0.68235   0.00000  Uiso   1.00
H803   H     0.88899   0.61464   0.69648   0.00000  Uiso   1.00
H804   H     0.88688   0.88564   0.81861   0.00000  Uiso   1.00
H805   H     0.82340   0.67815   0.53328   0.00000  Uiso   1.00
H806   H     0.88756   0.80549   0.97198   0.00000  Uiso   1.00
H807   H     0.82247   0.67977   0.61963   0.00000  Uiso   1.00
H808   H     0.88555   0.80473   0.88494   0.00000  Uiso   1.00
H809   H     0.84451   0.82018   0.62283   0.00000  Uiso   1.00
H810   H     0.78188   0.69479   0.87179   0.00000  Uiso   1.00
H811   H     0.84378   0.82175   0.53629   0.00000  Uiso   1.00
H812   H     0.77967   0.69426   0.95825   0.00000  Uiso   1.00
N813   N     0.83333   0.74999   0.62623   0.00000  Uiso   1.00
N814   N     0.83333   0.75001   0.87376   0.00000  Uiso   1.00
O815   O     0.83334   0.68454   0.78974   0.00000  Uiso   1.00
O816   O     0.83333   0.81547   0.71026   0.00000  Uiso   1.00
O817   O     0.83334   0.68453   0.71026   0.00000  Uiso   1.00
O818   O     0.83333   0.81547   0.78974   0.00000  Uiso   1.00
O819   O     0.75725   0.75000   0.78044   0.00000  Uiso   1.00
O820   O     0.90942   0.75000   0.71955   0.00000  Uiso   1.00
O821   O     0.75725   0.75000   0.70096   0.00000  Uiso   1.00
O822   O     0.90942   0.75001   0.79903   0.00000  Uiso   1.00
Zn823  Zn    0.83333   0.75001   0.80307   0.00000  Uiso   1.00
Zn824  Zn    0.83333   0.75000   0.69693   0.00000  Uiso   1.00
C825   C     0.99248   0.79492   0.69758   0.00000  Uiso   1.00
H826   H     0.69120   0.81359   0.68402   0.00000  Uiso   1.00
H827   H     0.96864   0.77919   0.66639   0.00000  Uiso   1.00
H828   H     0.96904   0.82008   0.71431   0.00000  Uiso   1.00
C829   C     0.67403   0.70521   0.80237   0.00000  Uiso   1.00
H830   H     0.97529   0.68587   0.81505   0.00000  Uiso   1.00
H831   H     0.69861   0.68055   0.78622   0.00000  Uiso   1.00
H832   H     0.69656   0.72134   0.83397   0.00000  Uiso   1.00
C833   C     0.90822   0.52599   0.68941   0.00000  Uiso   1.00
H834   H     0.93811   0.50566   0.71157   0.00000  Uiso   1.00
H835   H     0.88474   0.50390   0.66321   0.00000  Uiso   1.00
H836   H     0.92870   0.55071   0.66937   0.00000  Uiso   1.00
C837   C     0.90558   0.97432   0.83088   0.00000  Uiso   1.00
H838   H     0.93610   0.99474   0.81716   0.00000  Uiso   1.00
H839   H     0.88117   0.99634   0.85038   0.00000  Uiso   1.00
H840   H     0.92524   0.94968   0.85655   0.00000  Uiso   1.00
loop_
_geom_bond_atom_site_label_1
_geom_bond_atom_site_label_2
_geom_bond_distance
_geom_bond_site_symmetry_2
_ccdc_geom_bond_type
C1     C21     1.432   .     S
C1     O45     1.285   .     A
C1     O47     1.284   .     A
C2     C22     1.433   .     S
C2     O46     1.285   .     A
C2     O48     1.285   .     A
C3     H35     1.082   .     S
C3     C11     1.410   .     A
C3     C5      1.407   .     A
C4     H36     1.082   .     S
C4     C12     1.411   .     A
C4     C6      1.407   .     A
C5     H37     1.081   .     S
C5     N43     1.364   .     A
C6     H38     1.082   .     S
C6     N44     1.363   .     A
C7     C9      1.407   .     A
C7     H39     1.080   .     S
C7     N43     1.364   .     A
C8     C10     1.406   .     A
C8     N44     1.362   .     A
C8     H40     1.081   .     S
C9     C11     1.410   .     A
C9     H41     1.082   .     S
C10    H42     1.082   .     S
C10    C12     1.410   .     A
C11    C432    1.512   1_554 S
C12    C431    1.512   .     S
C13    C15     1.405   .     S
C13    O49     1.270   .     A
C13    O51     1.282   .     A
C14    C16     1.404   .     S
C14    O52     1.282   .     A
C14    O50     1.269   .     A
C15    C156    1.356   1_455 S
C15    C195    1.525   1_455 S
C16    C85     1.356   .     S
C16    C129    1.524   .     S
C17    H29     1.084   .     S
C17    C27     1.398   .     A
C17    C19     1.379   .     A
C18    C28     1.397   .     A
C18    H30     1.084   .     S
C18    C20     1.379   .     A
C19    H31     1.084   .     S
C19    C21     1.394   .     A
C20    C22     1.395   .     A
C20    H32     1.084   .     S
C21    C23     1.399   .     A
C22    C24     1.399   .     A
C23    C25     1.390   .     A
C23    H33     1.084   .     S
C24    C26     1.390   .     A
C24    H34     1.084   .     S
C25    C27     1.408   .     A
C25    C63     1.508   .     S
C26    C28     1.408   .     A
C26    C67     1.507   .     S
C27    C238    1.440   1_545 S
C28    C237    1.440   .     S
N43    Zn54    2.004   .     S
N44    Zn53    2.004   .     S
O45    Zn53    1.990   .     S
O46    Zn54    1.990   .     S
O47    Zn54    1.993   .     S
O48    Zn53    1.993   .     S
O49    Zn53    1.988   .     S
O50    Zn54    1.988   .     S
O51    Zn54    1.989   .     S
O52    Zn53    1.989   .     S
C55    H57     1.110   .     S
C55    H58     1.111   .     S
C55    C85     1.525   .     S
C55    H126    1.112   .     S
H56    C195    1.112   1_455 S
C59    H61     1.111   .     S
C59    H62     1.109   .     S
C59    C156    1.524   1_455 S
C59    H200    1.112   1_455 S
H60    C129    1.112   .     S
C63    H65     1.109   .     S
C63    H66     1.111   .     S
C63    H64     1.110   .     S
C67    H68     1.110   .     S
C67    H69     1.109   .     S
C67    H70     1.111   .     S
C71    C91     1.432   .     S
C71    O115    1.285   .     A
C71    O117    1.284   .     A
C72    C92     1.433   .     S
C72    O116    1.285   .     A
C72    O118    1.285   .     A
C73    H105    1.082   .     S
C73    C81     1.410   .     A
C73    C75     1.407   .     A
C74    H106    1.082   .     S
C74    C82     1.411   .     A
C74    C76     1.407   .     A
C75    H107    1.081   .     S
C75    N113    1.364   .     A
C76    H108    1.082   .     S
C76    N114    1.363   .     A
C77    C79     1.407   .     A
C77    H109    1.080   .     S
C77    N113    1.364   .     A
C78    C80     1.406   .     A
C78    N114    1.362   .     A
C78    H110    1.081   .     S
C79    C81     1.410   .     A
C79    H111    1.082   .     S
C80    H112    1.082   .     S
C80    C82     1.410   .     A
C81    C502    1.512   1_554 S
C82    C501    1.512   .     S
C83    C85     1.405   .     S
C83    O119    1.270   .     A
C83    O121    1.282   .     A
C84    C86     1.404   .     S
C84    O122    1.282   .     A
C84    O120    1.269   .     A
C86    C155    1.356   .     S
C86    C199    1.524   .     S
C87    H99     1.084   .     S
C87    C97     1.398   .     A
C87    C89     1.379   .     A
C88    C98     1.397   .     A
C88    H100    1.084   .     S
C88    C90     1.379   .     A
C89    H101    1.084   .     S
C89    C91     1.394   .     A
C90    C92     1.395   .     A
C90    H102    1.084   .     S
C91    C93     1.399   .     A
C92    C94     1.399   .     A
C93    C95     1.390   .     A
C93    H103    1.084   .     S
C94    C96     1.390   .     A
C94    H104    1.084   .     S
C95    C97     1.408   .     A
C95    C133    1.508   .     S
C96    C98     1.408   .     A
C96    C137    1.507   .     S
C97    C308    1.440   1_545 S
C98    C307    1.440   .     S
N113   Zn124   2.004   .     S
N114   Zn123   2.004   .     S
O115   Zn123   1.990   .     S
O116   Zn124   1.990   .     S
O117   Zn124   1.993   .     S
O118   Zn123   1.993   .     S
O119   Zn123   1.988   .     S
O120   Zn124   1.988   .     S
O121   Zn124   1.989   .     S
O122   Zn123   1.989   .     S
C125   H127    1.110   .     S
C125   H128    1.111   .     S
C125   C155    1.525   .     S
C125   H196    1.112   .     S
C129   H131    1.111   .     S
C129   H132    1.109   .     S
H130   C199    1.112   .     S
C133   H135    1.109   .     S
C133   H136    1.111   .     S
C133   H134    1.110   .     S
C137   H138    1.110   .     S
C137   H139    1.109   .     S
C137   H140    1.111   .     S
C141   C161    1.432   .     S
C141   O185    1.285   .     A
C141   O187    1.284   .     A
C142   C162    1.433   .     S
C142   O186    1.285   .     A
C142   O188    1.285   .     A
C143   H175    1.082   .     S
C143   C151    1.410   .     A
C143   C145    1.407   .     A
C144   H176    1.082   .     S
C144   C152    1.411   .     A
C144   C146    1.407   .     A
C145   H177    1.081   .     S
C145   N183    1.364   .     A
C146   H178    1.082   .     S
C146   N184    1.363   .     A
C147   C149    1.407   .     A
C147   H179    1.080   .     S
C147   N183    1.364   .     A
C148   C150    1.406   .     A
C148   N184    1.362   .     A
C148   H180    1.081   .     S
C149   C151    1.410   .     A
C149   H181    1.082   .     S
C150   H182    1.082   .     S
C150   C152    1.410   .     A
C151   C572    1.512   1_554 S
C152   C571    1.512   .     S
C153   C155    1.405   .     S
C153   O189    1.270   .     A
C153   O191    1.282   .     A
C154   C156    1.404   .     S
C154   O192    1.282   .     A
C154   O190    1.269   .     A
C156   C15     1.356   1_655 S
C156   C59     1.524   1_655 S
C157   H169    1.084   .     S
C157   C167    1.398   .     A
C157   C159    1.379   .     A
C158   C168    1.397   .     A
C158   H170    1.084   .     S
C158   C160    1.379   .     A
C159   H171    1.084   .     S
C159   C161    1.394   .     A
C160   C162    1.395   .     A
C160   H172    1.084   .     S
C161   C163    1.399   .     A
C162   C164    1.399   .     A
C163   C165    1.390   .     A
C163   H173    1.084   .     S
C164   C166    1.390   .     A
C164   H174    1.084   .     S
C165   C167    1.408   .     A
C165   C203    1.508   .     S
C166   C168    1.408   .     A
C166   C207    1.507   .     S
C167   C378    1.440   1_545 S
C168   C377    1.440   .     S
N183   Zn194   2.004   .     S
N184   Zn193   2.004   .     S
O185   Zn193   1.990   .     S
O186   Zn194   1.990   .     S
O187   Zn194   1.993   .     S
O188   Zn193   1.993   .     S
O189   Zn193   1.988   .     S
O190   Zn194   1.988   .     S
O191   Zn194   1.989   .     S
O192   Zn193   1.989   .     S
C195   H197    1.110   .     S
C195   H198    1.111   .     S
C195   C15     1.525   1_655 S
C195   H56     1.112   1_655 S
C199   H201    1.111   .     S
C199   H202    1.109   .     S
H200   C59     1.112   1_655 S
C203   H205    1.109   .     S
C203   H206    1.111   .     S
C203   H204    1.110   .     S
C207   H208    1.110   .     S
C207   H209    1.109   .     S
C207   H210    1.111   .     S
C211   C231    1.432   .     S
C211   O255    1.285   .     A
C211   O257    1.284   .     A
C212   C232    1.433   .     S
C212   O256    1.285   .     A
C212   O258    1.285   .     A
C213   H245    1.082   .     S
C213   C221    1.410   .     A
C213   C215    1.407   .     A
C214   H246    1.082   .     S
C214   C222    1.411   .     A
C214   C216    1.407   .     A
C215   H247    1.081   .     S
C215   N253    1.364   .     A
C216   H248    1.082   .     S
C216   N254    1.363   .     A
C217   C219    1.407   .     A
C217   H249    1.080   .     S
C217   N253    1.364   .     A
C218   C220    1.406   .     A
C218   N254    1.362   .     A
C218   H250    1.081   .     S
C219   C221    1.410   .     A
C219   H251    1.082   .     S
C220   H252    1.082   .     S
C220   C222    1.410   .     A
C221   C642    1.512   1_554 S
C222   C641    1.512   .     S
C223   C225    1.405   .     S
C223   O259    1.270   .     A
C223   O261    1.282   .     A
C224   C226    1.404   .     S
C224   O262    1.282   .     A
C224   O260    1.269   .     A
C225   C366    1.356   1_455 S
C225   C405    1.525   1_455 S
C226   C295    1.356   .     S
C226   C339    1.524   .     S
C227   H239    1.084   .     S
C227   C237    1.398   .     A
C227   C229    1.379   .     A
C228   C238    1.397   .     A
C228   H240    1.084   .     S
C228   C230    1.379   .     A
C229   H241    1.084   .     S
C229   C231    1.394   .     A
C230   C232    1.395   .     A
C230   H242    1.084   .     S
C231   C233    1.399   .     A
C232   C234    1.399   .     A
C233   C235    1.390   .     A
C233   H243    1.084   .     S
C234   C236    1.390   .     A
C234   H244    1.084   .     S
C235   C237    1.408   .     A
C235   C273    1.508   .     S
C236   C238    1.408   .     A
C236   C277    1.507   .     S
C238   C27     1.440   1_565 S
N253   Zn264   2.004   .     S
N254   Zn263   2.004   .     S
O255   Zn263   1.990   .     S
O256   Zn264   1.990   .     S
O257   Zn264   1.993   .     S
O258   Zn263   1.993   .     S
O259   Zn263   1.988   .     S
O260   Zn264   1.988   .     S
O261   Zn264   1.989   .     S
O262   Zn263   1.989   .     S
C265   H267    1.110   .     S
C265   H268    1.111   .     S
C265   C295    1.525   .     S
C265   H336    1.112   .     S
H266   C405    1.112   1_455 S
C269   H271    1.111   .     S
C269   H272    1.109   .     S
C269   C366    1.524   1_455 S
C269   H410    1.112   1_455 S
H270   C339    1.112   .     S
C273   H275    1.109   .     S
C273   H276    1.111   .     S
C273   H274    1.110   .     S
C277   H278    1.110   .     S
C277   H279    1.109   .     S
C277   H280    1.111   .     S
C281   C301    1.432   .     S
C281   O325    1.285   .     A
C281   O327    1.284   .     A
C282   C302    1.433   .     S
C282   O326    1.285   .     A
C282   O328    1.285   .     A
C283   H315    1.082   .     S
C283   C291    1.410   .     A
C283   C285    1.407   .     A
C284   H316    1.082   .     S
C284   C292    1.411   .     A
C284   C286    1.407   .     A
C285   H317    1.081   .     S
C285   N323    1.364   .     A
C286   H318    1.082   .     S
C286   N324    1.363   .     A
C287   C289    1.407   .     A
C287   H319    1.080   .     S
C287   N323    1.364   .     A
C288   C290    1.406   .     A
C288   N324    1.362   .     A
C288   H320    1.081   .     S
C289   C291    1.410   .     A
C289   H321    1.082   .     S
C290   H322    1.082   .     S
C290   C292    1.410   .     A
C291   C712    1.512   1_554 S
C292   C711    1.512   .     S
C293   C295    1.405   .     S
C293   O329    1.270   .     A
C293   O331    1.282   .     A
C294   C296    1.404   .     S
C294   O332    1.282   .     A
C294   O330    1.269   .     A
C296   C365    1.356   .     S
C296   C409    1.524   .     S
C297   H309    1.084   .     S
C297   C307    1.398   .     A
C297   C299    1.379   .     A
C298   C308    1.397   .     A
C298   H310    1.084   .     S
C298   C300    1.379   .     A
C299   H311    1.084   .     S
C299   C301    1.394   .     A
C300   C302    1.395   .     A
C300   H312    1.084   .     S
C301   C303    1.399   .     A
C302   C304    1.399   .     A
C303   C305    1.390   .     A
C303   H313    1.084   .     S
C304   C306    1.390   .     A
C304   H314    1.084   .     S
C305   C307    1.408   .     A
C305   C343    1.508   .     S
C306   C308    1.408   .     A
C306   C347    1.507   .     S
C308   C97     1.440   1_565 S
N323   Zn334   2.004   .     S
N324   Zn333   2.004   .     S
O325   Zn333   1.990   .     S
O326   Zn334   1.990   .     S
O327   Zn334   1.993   .     S
O328   Zn333   1.993   .     S
O329   Zn333   1.988   .     S
O330   Zn334   1.988   .     S
O331   Zn334   1.989   .     S
O332   Zn333   1.989   .     S
C335   H337    1.110   .     S
C335   H338    1.111   .     S
C335   C365    1.525   .     S
C335   H406    1.112   .     S
C339   H341    1.111   .     S
C339   H342    1.109   .     S
H340   C409    1.112   .     S
C343   H345    1.109   .     S
C343   H346    1.111   .     S
C343   H344    1.110   .     S
C347   H348    1.110   .     S
C347   H349    1.109   .     S
C347   H350    1.111   .     S
C351   C371    1.432   .     S
C351   O395    1.285   .     A
C351   O397    1.284   .     A
C352   C372    1.433   .     S
C352   O396    1.285   .     A
C352   O398    1.285   .     A
C353   H385    1.082   .     S
C353   C361    1.410   .     A
C353   C355    1.407   .     A
C354   H386    1.082   .     S
C354   C362    1.411   .     A
C354   C356    1.407   .     A
C355   H387    1.081   .     S
C355   N393    1.364   .     A
C356   H388    1.082   .     S
C356   N394    1.363   .     A
C357   C359    1.407   .     A
C357   H389    1.080   .     S
C357   N393    1.364   .     A
C358   C360    1.406   .     A
C358   N394    1.362   .     A
C358   H390    1.081   .     S
C359   C361    1.410   .     A
C359   H391    1.082   .     S
C360   H392    1.082   .     S
C360   C362    1.410   .     A
C361   C782    1.512   1_554 S
C362   C781    1.512   .     S
C363   C365    1.405   .     S
C363   O399    1.270   .     A
C363   O401    1.282   .     A
C364   C366    1.404   .     S
C364   O402    1.282   .     A
C364   O400    1.269   .     A
C366   C225    1.356   1_655 S
C366   C269    1.524   1_655 S
C367   H379    1.084   .     S
C367   C377    1.398   .     A
C367   C369    1.379   .     A
C368   C378    1.397   .     A
C368   H380    1.084   .     S
C368   C370    1.379   .     A
C369   H381    1.084   .     S
C369   C371    1.394   .     A
C370   C372    1.395   .     A
C370   H382    1.084   .     S
C371   C373    1.399   .     A
C372   C374    1.399   .     A
C373   C375    1.390   .     A
C373   H383    1.084   .     S
C374   C376    1.390   .     A
C374   H384    1.084   .     S
C375   C377    1.408   .     A
C375   C413    1.508   .     S
C376   C378    1.408   .     A
C376   C417    1.507   .     S
C378   C167    1.440   1_565 S
N393   Zn404   2.004   .     S
N394   Zn403   2.004   .     S
O395   Zn403   1.990   .     S
O396   Zn404   1.990   .     S
O397   Zn404   1.993   .     S
O398   Zn403   1.993   .     S
O399   Zn403   1.988   .     S
O400   Zn404   1.988   .     S
O401   Zn404   1.989   .     S
O402   Zn403   1.989   .     S
C405   H407    1.110   .     S
C405   H408    1.111   .     S
C405   C225    1.525   1_655 S
C405   H266    1.112   1_655 S
C409   H411    1.111   .     S
C409   H412    1.109   .     S
H410   C269    1.112   1_655 S
C413   H415    1.109   .     S
C413   H416    1.111   .     S
C413   H414    1.110   .     S
C417   H418    1.110   .     S
C417   H419    1.109   .     S
C417   H420    1.111   .     S
C421   C441    1.432   .     S
C421   O465    1.285   .     A
C421   O467    1.284   .     A
C422   C442    1.433   .     S
C422   O466    1.285   .     A
C422   O468    1.285   .     A
C423   H455    1.082   .     S
C423   C431    1.410   .     A
C423   C425    1.407   .     A
C424   H456    1.082   .     S
C424   C432    1.411   .     A
C424   C426    1.407   .     A
C425   H457    1.081   .     S
C425   N463    1.364   .     A
C426   H458    1.082   .     S
C426   N464    1.363   .     A
C427   C429    1.407   .     A
C427   H459    1.080   .     S
C427   N463    1.364   .     A
C428   C430    1.406   .     A
C428   N464    1.362   .     A
C428   H460    1.081   .     S
C429   C431    1.410   .     A
C429   H461    1.082   .     S
C430   H462    1.082   .     S
C430   C432    1.410   .     A
C432   C11     1.512   1_556 S
C433   C435    1.405   .     S
C433   O469    1.270   .     A
C433   O471    1.282   .     A
C434   C436    1.404   .     S
C434   O472    1.282   .     A
C434   O470    1.269   .     A
C435   C576    1.356   1_455 S
C435   C615    1.525   1_455 S
C436   C505    1.356   .     S
C436   C549    1.524   .     S
C437   H449    1.084   .     S
C437   C447    1.398   .     A
C437   C439    1.379   .     A
C438   C448    1.397   .     A
C438   H450    1.084   .     S
C438   C440    1.379   .     A
C439   H451    1.084   .     S
C439   C441    1.394   .     A
C440   C442    1.395   .     A
C440   H452    1.084   .     S
C441   C443    1.399   .     A
C442   C444    1.399   .     A
C443   C445    1.390   .     A
C443   H453    1.084   .     S
C444   C446    1.390   .     A
C444   H454    1.084   .     S
C445   C447    1.408   .     A
C445   C483    1.508   .     S
C446   C448    1.408   .     A
C446   C487    1.507   .     S
C447   C658    1.440   1_545 S
C448   C657    1.440   .     S
N463   Zn474   2.004   .     S
N464   Zn473   2.004   .     S
O465   Zn473   1.990   .     S
O466   Zn474   1.990   .     S
O467   Zn474   1.993   .     S
O468   Zn473   1.993   .     S
O469   Zn473   1.988   .     S
O470   Zn474   1.988   .     S
O471   Zn474   1.989   .     S
O472   Zn473   1.989   .     S
C475   H477    1.110   .     S
C475   H478    1.111   .     S
C475   C505    1.525   .     S
C475   H546    1.112   .     S
H476   C615    1.112   1_455 S
C479   H481    1.111   .     S
C479   H482    1.109   .     S
C479   C576    1.524   1_455 S
C479   H620    1.112   1_455 S
H480   C549    1.112   .     S
C483   H485    1.109   .     S
C483   H486    1.111   .     S
C483   H484    1.110   .     S
C487   H488    1.110   .     S
C487   H489    1.109   .     S
C487   H490    1.111   .     S
C491   C511    1.432   .     S
C491   O535    1.285   .     A
C491   O537    1.284   .     A
C492   C512    1.433   .     S
C492   O536    1.285   .     A
C492   O538    1.285   .     A
C493   H525    1.082   .     S
C493   C501    1.410   .     A
C493   C495    1.407   .     A
C494   H526    1.082   .     S
C494   C502    1.411   .     A
C494   C496    1.407   .     A
C495   H527    1.081   .     S
C495   N533    1.364   .     A
C496   H528    1.082   .     S
C496   N534    1.363   .     A
C497   C499    1.407   .     A
C497   H529    1.080   .     S
C497   N533    1.364   .     A
C498   C500    1.406   .     A
C498   N534    1.362   .     A
C498   H530    1.081   .     S
C499   C501    1.410   .     A
C499   H531    1.082   .     S
C500   H532    1.082   .     S
C500   C502    1.410   .     A
C502   C81     1.512   1_556 S
C503   C505    1.405   .     S
C503   O539    1.270   .     A
C503   O541    1.282   .     A
C504   C506    1.404   .     S
C504   O542    1.282   .     A
C504   O540    1.269   .     A
C506   C575    1.356   .     S
C506   C619    1.524   .     S
C507   H519    1.084   .     S
C507   C517    1.398   .     A
C507   C509    1.379   .     A
C508   C518    1.397   .     A
C508   H520    1.084   .     S
C508   C510    1.379   .     A
C509   H521    1.084   .     S
C509   C511    1.394   .     A
C510   C512    1.395   .     A
C510   H522    1.084   .     S
C511   C513    1.399   .     A
C512   C514    1.399   .     A
C513   C515    1.390   .     A
C513   H523    1.084   .     S
C514   C516    1.390   .     A
C514   H524    1.084   .     S
C515   C517    1.408   .     A
C515   C553    1.508   .     S
C516   C518    1.408   .     A
C516   C557    1.507   .     S
C517   C728    1.440   1_545 S
C518   C727    1.440   .     S
N533   Zn544   2.004   .     S
N534   Zn543   2.004   .     S
O535   Zn543   1.990   .     S
O536   Zn544   1.990   .     S
O537   Zn544   1.993   .     S
O538   Zn543   1.993   .     S
O539   Zn543   1.988   .     S
O540   Zn544   1.988   .     S
O541   Zn544   1.989   .     S
O542   Zn543   1.989   .     S
C545   H547    1.110   .     S
C545   H548    1.111   .     S
C545   C575    1.525   .     S
C545   H616    1.112   .     S
C549   H551    1.111   .     S
C549   H552    1.109   .     S
H550   C619    1.112   .     S
C553   H555    1.109   .     S
C553   H556    1.111   .     S
C553   H554    1.110   .     S
C557   H558    1.110   .     S
C557   H559    1.109   .     S
C557   H560    1.111   .     S
C561   C581    1.432   .     S
C561   O605    1.285   .     A
C561   O607    1.284   .     A
C562   C582    1.433   .     S
C562   O606    1.285   .     A
C562   O608    1.285   .     A
C563   H595    1.082   .     S
C563   C571    1.410   .     A
C563   C565    1.407   .     A
C564   H596    1.082   .     S
C564   C572    1.411   .     A
C564   C566    1.407   .     A
C565   H597    1.081   .     S
C565   N603    1.364   .     A
C566   H598    1.082   .     S
C566   N604    1.363   .     A
C567   C569    1.407   .     A
C567   H599    1.080   .     S
C567   N603    1.364   .     A
C568   C570    1.406   .     A
C568   N604    1.362   .     A
C568   H600    1.081   .     S
C569   C571    1.410   .     A
C569   H601    1.082   .     S
C570   H602    1.082   .     S
C570   C572    1.410   .     A
C572   C151    1.512   1_556 S
C573   C575    1.405   .     S
C573   O609    1.270   .     A
C573   O611    1.282   .     A
C574   C576    1.404   .     S
C574   O612    1.282   .     A
C574   O610    1.269   .     A
C576   C435    1.356   1_655 S
C576   C479    1.524   1_655 S
C577   H589    1.084   .     S
C577   C587    1.398   .     A
C577   C579    1.379   .     A
C578   C588    1.397   .     A
C578   H590    1.084   .     S
C578   C580    1.379   .     A
C579   H591    1.084   .     S
C579   C581    1.394   .     A
C580   C582    1.395   .     A
C580   H592    1.084   .     S
C581   C583    1.399   .     A
C582   C584    1.399   .     A
C583   C585    1.390   .     A
C583   H593    1.084   .     S
C584   C586    1.390   .     A
C584   H594    1.084   .     S
C585   C587    1.408   .     A
C585   C623    1.508   .     S
C586   C588    1.408   .     A
C586   C627    1.507   .     S
C587   C798    1.440   1_545 S
C588   C797    1.440   .     S
N603   Zn614   2.004   .     S
N604   Zn613   2.004   .     S
O605   Zn613   1.990   .     S
O606   Zn614   1.990   .     S
O607   Zn614   1.993   .     S
O608   Zn613   1.993   .     S
O609   Zn613   1.988   .     S
O610   Zn614   1.988   .     S
O611   Zn614   1.989   .     S
O612   Zn613   1.989   .     S
C615   H617    1.110   .     S
C615   H618    1.111   .     S
C615   C435    1.525   1_655 S
C615   H476    1.112   1_655 S
C619   H621    1.111   .     S
C619   H622    1.109   .     S
H620   C479    1.112   1_655 S
C623   H625    1.109   .     S
C623   H626    1.111   .     S
C623   H624    1.110   .     S
C627   H628    1.110   .     S
C627   H629    1.109   .     S
C627   H630    1.111   .     S
C631   C651    1.432   .     S
C631   O675    1.285   .     A
C631   O677    1.284   .     A
C632   C652    1.433   .     S
C632   O676    1.285   .     A
C632   O678    1.285   .     A
C633   H665    1.082   .     S
C633   C641    1.410   .     A
C633   C635    1.407   .     A
C634   H666    1.082   .     S
C634   C642    1.411   .     A
C634   C636    1.407   .     A
C635   H667    1.081   .     S
C635   N673    1.364   .     A
C636   H668    1.082   .     S
C636   N674    1.363   .     A
C637   C639    1.407   .     A
C637   H669    1.080   .     S
C637   N673    1.364   .     A
C638   C640    1.406   .     A
C638   N674    1.362   .     A
C638   H670    1.081   .     S
C639   C641    1.410   .     A
C639   H671    1.082   .     S
C640   H672    1.082   .     S
C640   C642    1.410   .     A
C642   C221    1.512   1_556 S
C643   C645    1.405   .     S
C643   O679    1.270   .     A
C643   O681    1.282   .     A
C644   C646    1.404   .     S
C644   O682    1.282   .     A
C644   O680    1.269   .     A
C645   C786    1.356   1_455 S
C645   C825    1.525   1_455 S
C646   C715    1.356   .     S
C646   C759    1.524   .     S
C647   H659    1.084   .     S
C647   C657    1.398   .     A
C647   C649    1.379   .     A
C648   C658    1.397   .     A
C648   H660    1.084   .     S
C648   C650    1.379   .     A
C649   H661    1.084   .     S
C649   C651    1.394   .     A
C650   C652    1.395   .     A
C650   H662    1.084   .     S
C651   C653    1.399   .     A
C652   C654    1.399   .     A
C653   C655    1.390   .     A
C653   H663    1.084   .     S
C654   C656    1.390   .     A
C654   H664    1.084   .     S
C655   C657    1.408   .     A
C655   C693    1.508   .     S
C656   C658    1.408   .     A
C656   C697    1.507   .     S
C658   C447    1.440   1_565 S
N673   Zn684   2.004   .     S
N674   Zn683   2.004   .     S
O675   Zn683   1.990   .     S
O676   Zn684   1.990   .     S
O677   Zn684   1.993   .     S
O678   Zn683   1.993   .     S
O679   Zn683   1.988   .     S
O680   Zn684   1.988   .     S
O681   Zn684   1.989   .     S
O682   Zn683   1.989   .     S
C685   H687    1.110   .     S
C685   H688    1.111   .     S
C685   C715    1.525   .     S
C685   H756    1.112   .     S
H686   C825    1.112   1_455 S
C689   H691    1.111   .     S
C689   H692    1.109   .     S
C689   C786    1.524   1_455 S
C689   H830    1.112   1_455 S
H690   C759    1.112   .     S
C693   H695    1.109   .     S
C693   H696    1.111   .     S
C693   H694    1.110   .     S
C697   H698    1.110   .     S
C697   H699    1.109   .     S
C697   H700    1.111   .     S
C701   C721    1.432   .     S
C701   O745    1.285   .     A
C701   O747    1.284   .     A
C702   C722    1.433   .     S
C702   O746    1.285   .     A
C702   O748    1.285   .     A
C703   H735    1.082   .     S
C703   C711    1.410   .     A
C703   C705    1.407   .     A
C704   H736    1.082   .     S
C704   C712    1.411   .     A
C704   C706    1.407   .     A
C705   H737    1.081   .     S
C705   N743    1.364   .     A
C706   H738    1.082   .     S
C706   N744    1.363   .     A
C707   C709    1.407   .     A
C707   H739    1.080   .     S
C707   N743    1.364   .     A
C708   C710    1.406   .     A
C708   N744    1.362   .     A
C708   H740    1.081   .     S
C709   C711    1.410   .     A
C709   H741    1.082   .     S
C710   H742    1.082   .     S
C710   C712    1.410   .     A
C712   C291    1.512   1_556 S
C713   C715    1.405   .     S
C713   O749    1.270   .     A
C713   O751    1.282   .     A
C714   C716    1.404   .     S
C714   O752    1.282   .     A
C714   O750    1.269   .     A
C716   C785    1.356   .     S
C716   C829    1.524   .     S
C717   H729    1.084   .     S
C717   C727    1.398   .     A
C717   C719    1.379   .     A
C718   C728    1.397   .     A
C718   H730    1.084   .     S
C718   C720    1.379   .     A
C719   H731    1.084   .     S
C719   C721    1.394   .     A
C720   C722    1.395   .     A
C720   H732    1.084   .     S
C721   C723    1.399   .     A
C722   C724    1.399   .     A
C723   C725    1.390   .     A
C723   H733    1.084   .     S
C724   C726    1.390   .     A
C724   H734    1.084   .     S
C725   C727    1.408   .     A
C725   C763    1.508   .     S
C726   C728    1.408   .     A
C726   C767    1.507   .     S
C728   C517    1.440   1_565 S
N743   Zn754   2.004   .     S
N744   Zn753   2.004   .     S
O745   Zn753   1.990   .     S
O746   Zn754   1.990   .     S
O747   Zn754   1.993   .     S
O748   Zn753   1.993   .     S
O749   Zn753   1.988   .     S
O750   Zn754   1.988   .     S
O751   Zn754   1.989   .     S
O752   Zn753   1.989   .     S
C755   H757    1.110   .     S
C755   H758    1.111   .     S
C755   C785    1.525   .     S
C755   H826    1.112   .     S
C759   H761    1.111   .     S
C759   H762    1.109   .     S
H760   C829    1.112   .     S
C763   H765    1.109   .     S
C763   H766    1.111   .     S
C763   H764    1.110   .     S
C767   H768    1.110   .     S
C767   H769    1.109   .     S
C767   H770    1.111   .     S
C771   C791    1.432   .     S
C771   O815    1.285   .     A
C771   O817    1.284   .     A
C772   C792    1.433   .     S
C772   O816    1.285   .     A
C772   O818    1.285   .     A
C773   H805    1.082   .     S
C773   C781    1.410   .     A
C773   C775    1.407   .     A
C774   H806    1.082   .     S
C774   C782    1.411   .     A
C774   C776    1.407   .     A
C775   H807    1.081   .     S
C775   N813    1.364   .     A
C776   H808    1.082   .     S
C776   N814    1.363   .     A
C777   C779    1.407   .     A
C777   H809    1.080   .     S
C777   N813    1.364   .     A
C778   C780    1.406   .     A
C778   N814    1.362   .     A
C778   H810    1.081   .     S
C779   C781    1.410   .     A
C779   H811    1.082   .     S
C780   H812    1.082   .     S
C780   C782    1.410   .     A
C782   C361    1.512   1_556 S
C783   C785    1.405   .     S
C783   O819    1.270   .     A
C783   O821    1.282   .     A
C784   C786    1.404   .     S
C784   O822    1.282   .     A
C784   O820    1.269   .     A
C786   C645    1.356   1_655 S
C786   C689    1.524   1_655 S
C787   H799    1.084   .     S
C787   C797    1.398   .     A
C787   C789    1.379   .     A
C788   C798    1.397   .     A
C788   H800    1.084   .     S
C788   C790    1.379   .     A
C789   H801    1.084   .     S
C789   C791    1.394   .     A
C790   C792    1.395   .     A
C790   H802    1.084   .     S
C791   C793    1.399   .     A
C792   C794    1.399   .     A
C793   C795    1.390   .     A
C793   H803    1.084   .     S
C794   C796    1.390   .     A
C794   H804    1.084   .     S
C795   C797    1.408   .     A
C795   C833    1.508   .     S
C796   C798    1.408   .     A
C796   C837    1.507   .     S
C798   C587    1.440   1_565 S
N813   Zn824   2.004   .     S
N814   Zn823   2.004   .     S
O815   Zn823   1.990   .     S
O816   Zn824   1.990   .     S
O817   Zn824   1.993   .     S
O818   Zn823   1.993   .     S
O819   Zn823   1.988   .     S
O820   Zn824   1.988   .     S
O821   Zn824   1.989   .     S
O822   Zn823   1.989   .     S
C825   H827    1.110   .     S
C825   H828    1.111   .     S
C825   C645    1.525   1_655 S
C825   H686    1.112   1_655 S
C829   H831    1.111   .     S
C829   H832    1.109   .     S
H830   C689    1.112   1_655 S
C833   H835    1.109   .     S
C833   H836    1.111   .     S
C833   H834    1.110   .     S
C837   H838    1.110   .     S
C837   H839    1.109   .     S
C837   H840    1.111   .     S
