data_str_m2_o1_o10_pcu_sym.173
_audit_creation_date              2020-01-03
_audit_creation_method            'Materials Studio'
_symmetry_space_group_name_H-M    'P1'
_symmetry_Int_Tables_number       1
_symmetry_cell_setting            triclinic
loop_
_symmetry_equiv_pos_as_xyz
  x,y,z
_cell_length_a                    26.1826
_cell_length_b                    32.4940
_cell_length_c                    28.6271
_cell_angle_alpha                 90.1753
_cell_angle_beta                  98.2712
_cell_angle_gamma                 90.3886
loop_
_atom_site_label
_atom_site_type_symbol
_atom_site_fract_x
_atom_site_fract_y
_atom_site_fract_z
_atom_site_U_iso_or_equiv
_atom_site_adp_type
_atom_site_occupancy
C1     C     0.16661   0.08738   0.16660   0.00000  Uiso   1.00
C2     C     0.16673   0.24595   0.16673   0.00000  Uiso   1.00
C3     C     0.06790   0.16664   0.15451   0.00000  Uiso   1.00
C4     C     0.26543   0.16669   0.17882   0.00000  Uiso   1.00
C5     C     0.01252   0.16670   0.14789   0.00000  Uiso   1.00
C6     C     0.32081   0.16664   0.18545   0.00000  Uiso   1.00
C7     C     0.16910   0.02117   0.12457   0.00000  Uiso   1.00
C8     C     0.16423   0.31216   0.20877   0.00000  Uiso   1.00
C9     C     0.16917   0.31193   0.12463   0.00000  Uiso   1.00
C10    C     0.16417   0.02140   0.20870   0.00000  Uiso   1.00
C11    C     0.16673   0.29058   0.16674   0.00000  Uiso   1.00
C12    C     0.16660   0.04275   0.16660   0.00000  Uiso   1.00
C13    C     0.13403   0.14116   0.02022   0.00000  Uiso   1.00
C14    C     0.19930   0.19217   0.31311   0.00000  Uiso   1.00
C15    C     0.13465   0.14103   0.30398   0.00000  Uiso   1.00
C16    C     0.19868   0.19231   0.02935   0.00000  Uiso   1.00
Cu17   Cu    0.16667   0.16667   0.21355   0.00000  Uiso   1.00
Cu18   Cu    0.16667   0.16666   0.11978   0.00000  Uiso   1.00
H19    H     0.32564   0.16683   0.11195   0.00000  Uiso   1.00
H20    H     0.00770   0.16651   0.22139   0.00000  Uiso   1.00
H21    H     0.17116   0.03708   0.09169   0.00000  Uiso   1.00
H22    H     0.16217   0.29625   0.24164   0.00000  Uiso   1.00
H23    H     0.17122   0.29583   0.09177   0.00000  Uiso   1.00
H24    H     0.16211   0.03750   0.24156   0.00000  Uiso   1.00
H25    H     0.10934   0.12040   0.28152   0.00000  Uiso   1.00
H26    H     0.22400   0.21293   0.05182   0.00000  Uiso   1.00
N27    N     0.16668   0.16668   0.28403   0.00000  Uiso   1.00
N28    N     0.16665   0.16666   0.04931   0.00000  Uiso   1.00
O29    O     0.16666   0.10655   0.20625   0.00000  Uiso   1.00
O30    O     0.16667   0.22678   0.12709   0.00000  Uiso   1.00
O31    O     0.16666   0.10654   0.12706   0.00000  Uiso   1.00
O32    O     0.16667   0.22679   0.20628   0.00000  Uiso   1.00
O33    O     0.09161   0.16667   0.19712   0.00000  Uiso   1.00
O34    O     0.24172   0.16666   0.13621   0.00000  Uiso   1.00
O35    O     0.09161   0.16666   0.11793   0.00000  Uiso   1.00
O36    O     0.24172   0.16667   0.21540   0.00000  Uiso   1.00
N37    N     0.10015   0.11409   0.03985   0.00000  Uiso   1.00
H38    H     0.10823   0.08357   0.03444   0.00000  Uiso   1.00
C39    C     0.04585   0.12282   0.02662   0.00000  Uiso   1.00
H40    H     0.02285   0.10365   0.04810   0.00000  Uiso   1.00
H41    H     0.03342   0.11556   0.32205   0.00000  Uiso   1.00
H42    H     0.03795   0.15572   0.03322   0.00000  Uiso   1.00
N43    N     0.23319   0.21925   0.29348   0.00000  Uiso   1.00
H44    H     0.22511   0.24976   0.29889   0.00000  Uiso   1.00
C45    C     0.28748   0.21051   0.30671   0.00000  Uiso   1.00
H46    H     0.31048   0.22968   0.28524   0.00000  Uiso   1.00
H47    H     0.29538   0.17761   0.30012   0.00000  Uiso   1.00
H48    H     0.29992   0.21777   0.01128   0.00000  Uiso   1.00
C49    C     0.49994   0.08738   0.16660   0.00000  Uiso   1.00
C50    C     0.50006   0.24595   0.16673   0.00000  Uiso   1.00
C51    C     0.40123   0.16664   0.15451   0.00000  Uiso   1.00
C52    C     0.59877   0.16669   0.17882   0.00000  Uiso   1.00
C53    C     0.34586   0.16670   0.14789   0.00000  Uiso   1.00
C54    C     0.65414   0.16664   0.18545   0.00000  Uiso   1.00
C55    C     0.50244   0.02117   0.12457   0.00000  Uiso   1.00
C56    C     0.49756   0.31216   0.20877   0.00000  Uiso   1.00
C57    C     0.50250   0.31193   0.12463   0.00000  Uiso   1.00
C58    C     0.49750   0.02140   0.20870   0.00000  Uiso   1.00
C59    C     0.50006   0.29058   0.16674   0.00000  Uiso   1.00
C60    C     0.49994   0.04275   0.16660   0.00000  Uiso   1.00
C61    C     0.46736   0.14116   0.02022   0.00000  Uiso   1.00
C62    C     0.53264   0.19217   0.31311   0.00000  Uiso   1.00
C63    C     0.46799   0.14103   0.30398   0.00000  Uiso   1.00
C64    C     0.53201   0.19231   0.02935   0.00000  Uiso   1.00
Cu65   Cu    0.50000   0.16667   0.21355   0.00000  Uiso   1.00
Cu66   Cu    0.50000   0.16666   0.11978   0.00000  Uiso   1.00
H67    H     0.65897   0.16683   0.11195   0.00000  Uiso   1.00
H68    H     0.34103   0.16651   0.22139   0.00000  Uiso   1.00
H69    H     0.50449   0.03708   0.09169   0.00000  Uiso   1.00
H70    H     0.49551   0.29625   0.24164   0.00000  Uiso   1.00
H71    H     0.50456   0.29583   0.09177   0.00000  Uiso   1.00
H72    H     0.49545   0.03750   0.24156   0.00000  Uiso   1.00
H73    H     0.44267   0.12040   0.28152   0.00000  Uiso   1.00
H74    H     0.55733   0.21293   0.05182   0.00000  Uiso   1.00
N75    N     0.50001   0.16668   0.28403   0.00000  Uiso   1.00
N76    N     0.49999   0.16666   0.04931   0.00000  Uiso   1.00
O77    O     0.50000   0.10655   0.20625   0.00000  Uiso   1.00
O78    O     0.50000   0.22678   0.12709   0.00000  Uiso   1.00
O79    O     0.50000   0.10654   0.12706   0.00000  Uiso   1.00
O80    O     0.50000   0.22679   0.20628   0.00000  Uiso   1.00
O81    O     0.42495   0.16667   0.19712   0.00000  Uiso   1.00
O82    O     0.57505   0.16666   0.13621   0.00000  Uiso   1.00
O83    O     0.42494   0.16666   0.11793   0.00000  Uiso   1.00
O84    O     0.57506   0.16667   0.21540   0.00000  Uiso   1.00
N85    N     0.43348   0.11409   0.03985   0.00000  Uiso   1.00
H86    H     0.44156   0.08357   0.03444   0.00000  Uiso   1.00
C87    C     0.37918   0.12282   0.02662   0.00000  Uiso   1.00
H88    H     0.35619   0.10365   0.04810   0.00000  Uiso   1.00
H89    H     0.36675   0.11556   0.32205   0.00000  Uiso   1.00
H90    H     0.37129   0.15572   0.03322   0.00000  Uiso   1.00
N91    N     0.56652   0.21925   0.29348   0.00000  Uiso   1.00
H92    H     0.55844   0.24976   0.29889   0.00000  Uiso   1.00
C93    C     0.62082   0.21051   0.30671   0.00000  Uiso   1.00
H94    H     0.64381   0.22968   0.28524   0.00000  Uiso   1.00
H95    H     0.62871   0.17761   0.30012   0.00000  Uiso   1.00
H96    H     0.63325   0.21777   0.01128   0.00000  Uiso   1.00
C97    C     0.83327   0.08738   0.16660   0.00000  Uiso   1.00
C98    C     0.83339   0.24595   0.16673   0.00000  Uiso   1.00
C99    C     0.73457   0.16664   0.15451   0.00000  Uiso   1.00
C100   C     0.93210   0.16669   0.17882   0.00000  Uiso   1.00
C101   C     0.67919   0.16670   0.14789   0.00000  Uiso   1.00
C102   C     0.98748   0.16664   0.18545   0.00000  Uiso   1.00
C103   C     0.83577   0.02117   0.12457   0.00000  Uiso   1.00
C104   C     0.83090   0.31216   0.20877   0.00000  Uiso   1.00
C105   C     0.83584   0.31193   0.12463   0.00000  Uiso   1.00
C106   C     0.83083   0.02140   0.20870   0.00000  Uiso   1.00
C107   C     0.83340   0.29058   0.16674   0.00000  Uiso   1.00
C108   C     0.83327   0.04275   0.16660   0.00000  Uiso   1.00
C109   C     0.80070   0.14116   0.02022   0.00000  Uiso   1.00
C110   C     0.86597   0.19217   0.31311   0.00000  Uiso   1.00
C111   C     0.80132   0.14103   0.30398   0.00000  Uiso   1.00
C112   C     0.86535   0.19231   0.02935   0.00000  Uiso   1.00
Cu113  Cu    0.83333   0.16667   0.21355   0.00000  Uiso   1.00
Cu114  Cu    0.83333   0.16666   0.11978   0.00000  Uiso   1.00
H115   H     0.99230   0.16683   0.11195   0.00000  Uiso   1.00
H116   H     0.67436   0.16651   0.22139   0.00000  Uiso   1.00
H117   H     0.83783   0.03708   0.09169   0.00000  Uiso   1.00
H118   H     0.82884   0.29625   0.24164   0.00000  Uiso   1.00
H119   H     0.83789   0.29583   0.09177   0.00000  Uiso   1.00
H120   H     0.82878   0.03750   0.24156   0.00000  Uiso   1.00
H121   H     0.77600   0.12040   0.28152   0.00000  Uiso   1.00
H122   H     0.89066   0.21293   0.05182   0.00000  Uiso   1.00
N123   N     0.83335   0.16668   0.28403   0.00000  Uiso   1.00
N124   N     0.83332   0.16666   0.04931   0.00000  Uiso   1.00
O125   O     0.83333   0.10655   0.20625   0.00000  Uiso   1.00
O126   O     0.83334   0.22678   0.12709   0.00000  Uiso   1.00
O127   O     0.83333   0.10654   0.12706   0.00000  Uiso   1.00
O128   O     0.83334   0.22679   0.20628   0.00000  Uiso   1.00
O129   O     0.75828   0.16667   0.19712   0.00000  Uiso   1.00
O130   O     0.90839   0.16666   0.13621   0.00000  Uiso   1.00
O131   O     0.75828   0.16666   0.11793   0.00000  Uiso   1.00
O132   O     0.90839   0.16667   0.21540   0.00000  Uiso   1.00
N133   N     0.76681   0.11409   0.03985   0.00000  Uiso   1.00
H134   H     0.77489   0.08357   0.03444   0.00000  Uiso   1.00
C135   C     0.71252   0.12282   0.02662   0.00000  Uiso   1.00
H136   H     0.68952   0.10365   0.04810   0.00000  Uiso   1.00
H137   H     0.70008   0.11556   0.32205   0.00000  Uiso   1.00
H138   H     0.70462   0.15572   0.03322   0.00000  Uiso   1.00
N139   N     0.89985   0.21925   0.29348   0.00000  Uiso   1.00
H140   H     0.89178   0.24976   0.29889   0.00000  Uiso   1.00
C141   C     0.95415   0.21051   0.30671   0.00000  Uiso   1.00
H142   H     0.97715   0.22968   0.28524   0.00000  Uiso   1.00
H143   H     0.96205   0.17761   0.30012   0.00000  Uiso   1.00
H144   H     0.96658   0.21777   0.01128   0.00000  Uiso   1.00
C145   C     0.16661   0.42071   0.16660   0.00000  Uiso   1.00
C146   C     0.16673   0.57929   0.16673   0.00000  Uiso   1.00
C147   C     0.06790   0.49998   0.15451   0.00000  Uiso   1.00
C148   C     0.26543   0.50002   0.17882   0.00000  Uiso   1.00
C149   C     0.01252   0.50003   0.14789   0.00000  Uiso   1.00
C150   C     0.32081   0.49997   0.18545   0.00000  Uiso   1.00
C151   C     0.16910   0.35450   0.12457   0.00000  Uiso   1.00
C152   C     0.16423   0.64549   0.20877   0.00000  Uiso   1.00
C153   C     0.16917   0.64526   0.12463   0.00000  Uiso   1.00
C154   C     0.16417   0.35474   0.20870   0.00000  Uiso   1.00
C155   C     0.16673   0.62391   0.16674   0.00000  Uiso   1.00
C156   C     0.16660   0.37609   0.16660   0.00000  Uiso   1.00
C157   C     0.13403   0.47449   0.02022   0.00000  Uiso   1.00
C158   C     0.19930   0.52551   0.31311   0.00000  Uiso   1.00
C159   C     0.13465   0.47436   0.30398   0.00000  Uiso   1.00
C160   C     0.19868   0.52564   0.02935   0.00000  Uiso   1.00
Cu161  Cu    0.16667   0.50001   0.21355   0.00000  Uiso   1.00
Cu162  Cu    0.16667   0.49999   0.11978   0.00000  Uiso   1.00
H163   H     0.32564   0.50016   0.11195   0.00000  Uiso   1.00
H164   H     0.00770   0.49984   0.22139   0.00000  Uiso   1.00
H165   H     0.17116   0.37041   0.09169   0.00000  Uiso   1.00
H166   H     0.16217   0.62958   0.24164   0.00000  Uiso   1.00
H167   H     0.17122   0.62916   0.09177   0.00000  Uiso   1.00
H168   H     0.16211   0.37084   0.24156   0.00000  Uiso   1.00
H169   H     0.10934   0.45374   0.28152   0.00000  Uiso   1.00
H170   H     0.22400   0.54626   0.05182   0.00000  Uiso   1.00
N171   N     0.16668   0.50001   0.28403   0.00000  Uiso   1.00
N172   N     0.16665   0.49999   0.04931   0.00000  Uiso   1.00
O173   O     0.16666   0.43989   0.20625   0.00000  Uiso   1.00
O174   O     0.16667   0.56011   0.12709   0.00000  Uiso   1.00
O175   O     0.16666   0.43988   0.12706   0.00000  Uiso   1.00
O176   O     0.16667   0.56012   0.20628   0.00000  Uiso   1.00
O177   O     0.09161   0.50000   0.19712   0.00000  Uiso   1.00
O178   O     0.24172   0.50000   0.13621   0.00000  Uiso   1.00
O179   O     0.09161   0.49999   0.11793   0.00000  Uiso   1.00
O180   O     0.24172   0.50001   0.21540   0.00000  Uiso   1.00
N181   N     0.10015   0.44742   0.03985   0.00000  Uiso   1.00
H182   H     0.10823   0.41690   0.03444   0.00000  Uiso   1.00
C183   C     0.04585   0.45615   0.02662   0.00000  Uiso   1.00
H184   H     0.02285   0.43698   0.04810   0.00000  Uiso   1.00
H185   H     0.03342   0.44890   0.32205   0.00000  Uiso   1.00
H186   H     0.03795   0.48905   0.03322   0.00000  Uiso   1.00
N187   N     0.23319   0.55258   0.29348   0.00000  Uiso   1.00
H188   H     0.22511   0.58310   0.29889   0.00000  Uiso   1.00
C189   C     0.28748   0.54385   0.30671   0.00000  Uiso   1.00
H190   H     0.31048   0.56302   0.28524   0.00000  Uiso   1.00
H191   H     0.29538   0.51094   0.30012   0.00000  Uiso   1.00
H192   H     0.29992   0.55111   0.01128   0.00000  Uiso   1.00
C193   C     0.49994   0.42071   0.16660   0.00000  Uiso   1.00
C194   C     0.50006   0.57929   0.16673   0.00000  Uiso   1.00
C195   C     0.40123   0.49998   0.15451   0.00000  Uiso   1.00
C196   C     0.59877   0.50002   0.17882   0.00000  Uiso   1.00
C197   C     0.34586   0.50003   0.14789   0.00000  Uiso   1.00
C198   C     0.65414   0.49997   0.18545   0.00000  Uiso   1.00
C199   C     0.50244   0.35450   0.12457   0.00000  Uiso   1.00
C200   C     0.49756   0.64549   0.20877   0.00000  Uiso   1.00
C201   C     0.50250   0.64526   0.12463   0.00000  Uiso   1.00
C202   C     0.49750   0.35474   0.20870   0.00000  Uiso   1.00
C203   C     0.50006   0.62391   0.16674   0.00000  Uiso   1.00
C204   C     0.49994   0.37609   0.16660   0.00000  Uiso   1.00
C205   C     0.46736   0.47449   0.02022   0.00000  Uiso   1.00
C206   C     0.53264   0.52551   0.31311   0.00000  Uiso   1.00
C207   C     0.46799   0.47436   0.30398   0.00000  Uiso   1.00
C208   C     0.53201   0.52564   0.02935   0.00000  Uiso   1.00
Cu209  Cu    0.50000   0.50001   0.21355   0.00000  Uiso   1.00
Cu210  Cu    0.50000   0.49999   0.11978   0.00000  Uiso   1.00
H211   H     0.65897   0.50016   0.11195   0.00000  Uiso   1.00
H212   H     0.34103   0.49984   0.22139   0.00000  Uiso   1.00
H213   H     0.50449   0.37041   0.09169   0.00000  Uiso   1.00
H214   H     0.49551   0.62958   0.24164   0.00000  Uiso   1.00
H215   H     0.50456   0.62916   0.09177   0.00000  Uiso   1.00
H216   H     0.49545   0.37084   0.24156   0.00000  Uiso   1.00
H217   H     0.44267   0.45374   0.28152   0.00000  Uiso   1.00
H218   H     0.55733   0.54626   0.05182   0.00000  Uiso   1.00
N219   N     0.50001   0.50001   0.28403   0.00000  Uiso   1.00
N220   N     0.49999   0.49999   0.04931   0.00000  Uiso   1.00
O221   O     0.50000   0.43989   0.20625   0.00000  Uiso   1.00
O222   O     0.50000   0.56011   0.12709   0.00000  Uiso   1.00
O223   O     0.50000   0.43988   0.12706   0.00000  Uiso   1.00
O224   O     0.50000   0.56012   0.20628   0.00000  Uiso   1.00
O225   O     0.42495   0.50000   0.19712   0.00000  Uiso   1.00
O226   O     0.57505   0.50000   0.13621   0.00000  Uiso   1.00
O227   O     0.42494   0.49999   0.11793   0.00000  Uiso   1.00
O228   O     0.57506   0.50001   0.21540   0.00000  Uiso   1.00
N229   N     0.43348   0.44742   0.03985   0.00000  Uiso   1.00
H230   H     0.44156   0.41690   0.03444   0.00000  Uiso   1.00
C231   C     0.37918   0.45615   0.02662   0.00000  Uiso   1.00
H232   H     0.35619   0.43698   0.04810   0.00000  Uiso   1.00
H233   H     0.36675   0.44890   0.32205   0.00000  Uiso   1.00
H234   H     0.37129   0.48905   0.03322   0.00000  Uiso   1.00
N235   N     0.56652   0.55258   0.29348   0.00000  Uiso   1.00
H236   H     0.55844   0.58310   0.29889   0.00000  Uiso   1.00
C237   C     0.62082   0.54385   0.30671   0.00000  Uiso   1.00
H238   H     0.64381   0.56302   0.28524   0.00000  Uiso   1.00
H239   H     0.62871   0.51094   0.30012   0.00000  Uiso   1.00
H240   H     0.63325   0.55111   0.01128   0.00000  Uiso   1.00
C241   C     0.83327   0.42071   0.16660   0.00000  Uiso   1.00
C242   C     0.83339   0.57929   0.16673   0.00000  Uiso   1.00
C243   C     0.73457   0.49998   0.15451   0.00000  Uiso   1.00
C244   C     0.93210   0.50002   0.17882   0.00000  Uiso   1.00
C245   C     0.67919   0.50003   0.14789   0.00000  Uiso   1.00
C246   C     0.98748   0.49997   0.18545   0.00000  Uiso   1.00
C247   C     0.83577   0.35450   0.12457   0.00000  Uiso   1.00
C248   C     0.83090   0.64549   0.20877   0.00000  Uiso   1.00
C249   C     0.83584   0.64526   0.12463   0.00000  Uiso   1.00
C250   C     0.83083   0.35474   0.20870   0.00000  Uiso   1.00
C251   C     0.83340   0.62391   0.16674   0.00000  Uiso   1.00
C252   C     0.83327   0.37609   0.16660   0.00000  Uiso   1.00
C253   C     0.80070   0.47449   0.02022   0.00000  Uiso   1.00
C254   C     0.86597   0.52551   0.31311   0.00000  Uiso   1.00
C255   C     0.80132   0.47436   0.30398   0.00000  Uiso   1.00
C256   C     0.86535   0.52564   0.02935   0.00000  Uiso   1.00
Cu257  Cu    0.83333   0.50001   0.21355   0.00000  Uiso   1.00
Cu258  Cu    0.83333   0.49999   0.11978   0.00000  Uiso   1.00
H259   H     0.99230   0.50016   0.11195   0.00000  Uiso   1.00
H260   H     0.67436   0.49984   0.22139   0.00000  Uiso   1.00
H261   H     0.83783   0.37041   0.09169   0.00000  Uiso   1.00
H262   H     0.82884   0.62958   0.24164   0.00000  Uiso   1.00
H263   H     0.83789   0.62916   0.09177   0.00000  Uiso   1.00
H264   H     0.82878   0.37084   0.24156   0.00000  Uiso   1.00
H265   H     0.77600   0.45374   0.28152   0.00000  Uiso   1.00
H266   H     0.89066   0.54626   0.05182   0.00000  Uiso   1.00
N267   N     0.83335   0.50001   0.28403   0.00000  Uiso   1.00
N268   N     0.83332   0.49999   0.04931   0.00000  Uiso   1.00
O269   O     0.83333   0.43989   0.20625   0.00000  Uiso   1.00
O270   O     0.83334   0.56011   0.12709   0.00000  Uiso   1.00
O271   O     0.83333   0.43988   0.12706   0.00000  Uiso   1.00
O272   O     0.83334   0.56012   0.20628   0.00000  Uiso   1.00
O273   O     0.75828   0.50000   0.19712   0.00000  Uiso   1.00
O274   O     0.90839   0.50000   0.13621   0.00000  Uiso   1.00
O275   O     0.75828   0.49999   0.11793   0.00000  Uiso   1.00
O276   O     0.90839   0.50001   0.21540   0.00000  Uiso   1.00
N277   N     0.76681   0.44742   0.03985   0.00000  Uiso   1.00
H278   H     0.77489   0.41690   0.03444   0.00000  Uiso   1.00
C279   C     0.71252   0.45615   0.02662   0.00000  Uiso   1.00
H280   H     0.68952   0.43698   0.04810   0.00000  Uiso   1.00
H281   H     0.70008   0.44890   0.32205   0.00000  Uiso   1.00
H282   H     0.70462   0.48905   0.03322   0.00000  Uiso   1.00
N283   N     0.89985   0.55258   0.29348   0.00000  Uiso   1.00
H284   H     0.89178   0.58310   0.29889   0.00000  Uiso   1.00
C285   C     0.95415   0.54385   0.30671   0.00000  Uiso   1.00
H286   H     0.97715   0.56302   0.28524   0.00000  Uiso   1.00
H287   H     0.96205   0.51094   0.30012   0.00000  Uiso   1.00
H288   H     0.96658   0.55111   0.01128   0.00000  Uiso   1.00
C289   C     0.16661   0.75405   0.16660   0.00000  Uiso   1.00
C290   C     0.16673   0.91262   0.16673   0.00000  Uiso   1.00
C291   C     0.06790   0.83331   0.15451   0.00000  Uiso   1.00
C292   C     0.26543   0.83336   0.17882   0.00000  Uiso   1.00
C293   C     0.01252   0.83336   0.14789   0.00000  Uiso   1.00
C294   C     0.32081   0.83330   0.18545   0.00000  Uiso   1.00
C295   C     0.16910   0.68784   0.12457   0.00000  Uiso   1.00
C296   C     0.16423   0.97883   0.20877   0.00000  Uiso   1.00
C297   C     0.16917   0.97859   0.12463   0.00000  Uiso   1.00
C298   C     0.16417   0.68807   0.20870   0.00000  Uiso   1.00
C299   C     0.16673   0.95725   0.16674   0.00000  Uiso   1.00
C300   C     0.16660   0.70942   0.16660   0.00000  Uiso   1.00
C301   C     0.13403   0.80783   0.02022   0.00000  Uiso   1.00
C302   C     0.19930   0.85884   0.31311   0.00000  Uiso   1.00
C303   C     0.13465   0.80769   0.30398   0.00000  Uiso   1.00
C304   C     0.19868   0.85897   0.02935   0.00000  Uiso   1.00
Cu305  Cu    0.16667   0.83334   0.21355   0.00000  Uiso   1.00
Cu306  Cu    0.16667   0.83333   0.11978   0.00000  Uiso   1.00
H307   H     0.32564   0.83349   0.11195   0.00000  Uiso   1.00
H308   H     0.00770   0.83317   0.22139   0.00000  Uiso   1.00
H309   H     0.17116   0.70375   0.09169   0.00000  Uiso   1.00
H310   H     0.16217   0.96292   0.24164   0.00000  Uiso   1.00
H311   H     0.17122   0.96250   0.09177   0.00000  Uiso   1.00
H312   H     0.16211   0.70417   0.24156   0.00000  Uiso   1.00
H313   H     0.10934   0.78707   0.28152   0.00000  Uiso   1.00
H314   H     0.22400   0.87960   0.05182   0.00000  Uiso   1.00
N315   N     0.16668   0.83334   0.28403   0.00000  Uiso   1.00
N316   N     0.16665   0.83332   0.04931   0.00000  Uiso   1.00
O317   O     0.16666   0.77322   0.20625   0.00000  Uiso   1.00
O318   O     0.16667   0.89345   0.12709   0.00000  Uiso   1.00
O319   O     0.16666   0.77321   0.12706   0.00000  Uiso   1.00
O320   O     0.16667   0.89346   0.20628   0.00000  Uiso   1.00
O321   O     0.09161   0.83334   0.19712   0.00000  Uiso   1.00
O322   O     0.24172   0.83333   0.13621   0.00000  Uiso   1.00
O323   O     0.09161   0.83333   0.11793   0.00000  Uiso   1.00
O324   O     0.24172   0.83334   0.21540   0.00000  Uiso   1.00
N325   N     0.10015   0.78075   0.03985   0.00000  Uiso   1.00
H326   H     0.10823   0.75023   0.03444   0.00000  Uiso   1.00
C327   C     0.04585   0.78949   0.02662   0.00000  Uiso   1.00
H328   H     0.02285   0.77032   0.04810   0.00000  Uiso   1.00
H329   H     0.03342   0.78223   0.32205   0.00000  Uiso   1.00
H330   H     0.03795   0.82239   0.03322   0.00000  Uiso   1.00
N331   N     0.23319   0.88591   0.29348   0.00000  Uiso   1.00
H332   H     0.22511   0.91643   0.29889   0.00000  Uiso   1.00
C333   C     0.28748   0.87718   0.30671   0.00000  Uiso   1.00
H334   H     0.31048   0.89635   0.28524   0.00000  Uiso   1.00
H335   H     0.29538   0.84428   0.30012   0.00000  Uiso   1.00
H336   H     0.29992   0.88444   0.01128   0.00000  Uiso   1.00
C337   C     0.49994   0.75405   0.16660   0.00000  Uiso   1.00
C338   C     0.50006   0.91262   0.16673   0.00000  Uiso   1.00
C339   C     0.40123   0.83331   0.15451   0.00000  Uiso   1.00
C340   C     0.59877   0.83336   0.17882   0.00000  Uiso   1.00
C341   C     0.34586   0.83336   0.14789   0.00000  Uiso   1.00
C342   C     0.65414   0.83330   0.18545   0.00000  Uiso   1.00
C343   C     0.50244   0.68784   0.12457   0.00000  Uiso   1.00
C344   C     0.49756   0.97883   0.20877   0.00000  Uiso   1.00
C345   C     0.50250   0.97859   0.12463   0.00000  Uiso   1.00
C346   C     0.49750   0.68807   0.20870   0.00000  Uiso   1.00
C347   C     0.50006   0.95725   0.16674   0.00000  Uiso   1.00
C348   C     0.49994   0.70942   0.16660   0.00000  Uiso   1.00
C349   C     0.46736   0.80783   0.02022   0.00000  Uiso   1.00
C350   C     0.53264   0.85884   0.31311   0.00000  Uiso   1.00
C351   C     0.46799   0.80769   0.30398   0.00000  Uiso   1.00
C352   C     0.53201   0.85897   0.02935   0.00000  Uiso   1.00
Cu353  Cu    0.50000   0.83334   0.21355   0.00000  Uiso   1.00
Cu354  Cu    0.50000   0.83333   0.11978   0.00000  Uiso   1.00
H355   H     0.65897   0.83349   0.11195   0.00000  Uiso   1.00
H356   H     0.34103   0.83317   0.22139   0.00000  Uiso   1.00
H357   H     0.50449   0.70375   0.09169   0.00000  Uiso   1.00
H358   H     0.49551   0.96292   0.24164   0.00000  Uiso   1.00
H359   H     0.50456   0.96250   0.09177   0.00000  Uiso   1.00
H360   H     0.49545   0.70417   0.24156   0.00000  Uiso   1.00
H361   H     0.44267   0.78707   0.28152   0.00000  Uiso   1.00
H362   H     0.55733   0.87960   0.05182   0.00000  Uiso   1.00
N363   N     0.50001   0.83334   0.28403   0.00000  Uiso   1.00
N364   N     0.49999   0.83332   0.04931   0.00000  Uiso   1.00
O365   O     0.50000   0.77322   0.20625   0.00000  Uiso   1.00
O366   O     0.50000   0.89345   0.12709   0.00000  Uiso   1.00
O367   O     0.50000   0.77321   0.12706   0.00000  Uiso   1.00
O368   O     0.50000   0.89346   0.20628   0.00000  Uiso   1.00
O369   O     0.42495   0.83334   0.19712   0.00000  Uiso   1.00
O370   O     0.57505   0.83333   0.13621   0.00000  Uiso   1.00
O371   O     0.42494   0.83333   0.11793   0.00000  Uiso   1.00
O372   O     0.57506   0.83334   0.21540   0.00000  Uiso   1.00
N373   N     0.43348   0.78075   0.03985   0.00000  Uiso   1.00
H374   H     0.44156   0.75023   0.03444   0.00000  Uiso   1.00
C375   C     0.37918   0.78949   0.02662   0.00000  Uiso   1.00
H376   H     0.35619   0.77032   0.04810   0.00000  Uiso   1.00
H377   H     0.36675   0.78223   0.32205   0.00000  Uiso   1.00
H378   H     0.37129   0.82239   0.03322   0.00000  Uiso   1.00
N379   N     0.56652   0.88591   0.29348   0.00000  Uiso   1.00
H380   H     0.55844   0.91643   0.29889   0.00000  Uiso   1.00
C381   C     0.62082   0.87718   0.30671   0.00000  Uiso   1.00
H382   H     0.64381   0.89635   0.28524   0.00000  Uiso   1.00
H383   H     0.62871   0.84428   0.30012   0.00000  Uiso   1.00
H384   H     0.63325   0.88444   0.01128   0.00000  Uiso   1.00
C385   C     0.83327   0.75405   0.16660   0.00000  Uiso   1.00
C386   C     0.83339   0.91262   0.16673   0.00000  Uiso   1.00
C387   C     0.73457   0.83331   0.15451   0.00000  Uiso   1.00
C388   C     0.93210   0.83336   0.17882   0.00000  Uiso   1.00
C389   C     0.67919   0.83336   0.14789   0.00000  Uiso   1.00
C390   C     0.98748   0.83330   0.18545   0.00000  Uiso   1.00
C391   C     0.83577   0.68784   0.12457   0.00000  Uiso   1.00
C392   C     0.83090   0.97883   0.20877   0.00000  Uiso   1.00
C393   C     0.83584   0.97859   0.12463   0.00000  Uiso   1.00
C394   C     0.83083   0.68807   0.20870   0.00000  Uiso   1.00
C395   C     0.83340   0.95725   0.16674   0.00000  Uiso   1.00
C396   C     0.83327   0.70942   0.16660   0.00000  Uiso   1.00
C397   C     0.80070   0.80783   0.02022   0.00000  Uiso   1.00
C398   C     0.86597   0.85884   0.31311   0.00000  Uiso   1.00
C399   C     0.80132   0.80769   0.30398   0.00000  Uiso   1.00
C400   C     0.86535   0.85897   0.02935   0.00000  Uiso   1.00
Cu401  Cu    0.83333   0.83334   0.21355   0.00000  Uiso   1.00
Cu402  Cu    0.83333   0.83333   0.11978   0.00000  Uiso   1.00
H403   H     0.99230   0.83349   0.11195   0.00000  Uiso   1.00
H404   H     0.67436   0.83317   0.22139   0.00000  Uiso   1.00
H405   H     0.83783   0.70375   0.09169   0.00000  Uiso   1.00
H406   H     0.82884   0.96292   0.24164   0.00000  Uiso   1.00
H407   H     0.83789   0.96250   0.09177   0.00000  Uiso   1.00
H408   H     0.82878   0.70417   0.24156   0.00000  Uiso   1.00
H409   H     0.77600   0.78707   0.28152   0.00000  Uiso   1.00
H410   H     0.89066   0.87960   0.05182   0.00000  Uiso   1.00
N411   N     0.83335   0.83334   0.28403   0.00000  Uiso   1.00
N412   N     0.83332   0.83332   0.04931   0.00000  Uiso   1.00
O413   O     0.83333   0.77322   0.20625   0.00000  Uiso   1.00
O414   O     0.83334   0.89345   0.12709   0.00000  Uiso   1.00
O415   O     0.83333   0.77321   0.12706   0.00000  Uiso   1.00
O416   O     0.83334   0.89346   0.20628   0.00000  Uiso   1.00
O417   O     0.75828   0.83334   0.19712   0.00000  Uiso   1.00
O418   O     0.90839   0.83333   0.13621   0.00000  Uiso   1.00
O419   O     0.75828   0.83333   0.11793   0.00000  Uiso   1.00
O420   O     0.90839   0.83334   0.21540   0.00000  Uiso   1.00
N421   N     0.76681   0.78075   0.03985   0.00000  Uiso   1.00
H422   H     0.77489   0.75023   0.03444   0.00000  Uiso   1.00
C423   C     0.71252   0.78949   0.02662   0.00000  Uiso   1.00
H424   H     0.68952   0.77032   0.04810   0.00000  Uiso   1.00
H425   H     0.70008   0.78223   0.32205   0.00000  Uiso   1.00
H426   H     0.70462   0.82239   0.03322   0.00000  Uiso   1.00
N427   N     0.89985   0.88591   0.29348   0.00000  Uiso   1.00
H428   H     0.89178   0.91643   0.29889   0.00000  Uiso   1.00
C429   C     0.95415   0.87718   0.30671   0.00000  Uiso   1.00
H430   H     0.97715   0.89635   0.28524   0.00000  Uiso   1.00
H431   H     0.96205   0.84428   0.30012   0.00000  Uiso   1.00
H432   H     0.96658   0.88444   0.01128   0.00000  Uiso   1.00
C433   C     0.16661   0.08738   0.49994   0.00000  Uiso   1.00
C434   C     0.16673   0.24595   0.50006   0.00000  Uiso   1.00
C435   C     0.06790   0.16664   0.48785   0.00000  Uiso   1.00
C436   C     0.26543   0.16669   0.51215   0.00000  Uiso   1.00
C437   C     0.01252   0.16670   0.48122   0.00000  Uiso   1.00
C438   C     0.32081   0.16664   0.51878   0.00000  Uiso   1.00
C439   C     0.16910   0.02117   0.45790   0.00000  Uiso   1.00
C440   C     0.16423   0.31216   0.54210   0.00000  Uiso   1.00
C441   C     0.16917   0.31193   0.45797   0.00000  Uiso   1.00
C442   C     0.16417   0.02140   0.54203   0.00000  Uiso   1.00
C443   C     0.16673   0.29058   0.50007   0.00000  Uiso   1.00
C444   C     0.16660   0.04275   0.49993   0.00000  Uiso   1.00
C445   C     0.13403   0.14116   0.35355   0.00000  Uiso   1.00
C446   C     0.19930   0.19217   0.64645   0.00000  Uiso   1.00
C447   C     0.13465   0.14103   0.63731   0.00000  Uiso   1.00
C448   C     0.19868   0.19231   0.36269   0.00000  Uiso   1.00
Cu449  Cu    0.16667   0.16667   0.54689   0.00000  Uiso   1.00
Cu450  Cu    0.16667   0.16666   0.45311   0.00000  Uiso   1.00
H451   H     0.32564   0.16683   0.44528   0.00000  Uiso   1.00
H452   H     0.00770   0.16651   0.55472   0.00000  Uiso   1.00
H453   H     0.17116   0.03708   0.42503   0.00000  Uiso   1.00
H454   H     0.16217   0.29625   0.57497   0.00000  Uiso   1.00
H455   H     0.17122   0.29583   0.42510   0.00000  Uiso   1.00
H456   H     0.16211   0.03750   0.57490   0.00000  Uiso   1.00
H457   H     0.10934   0.12040   0.61485   0.00000  Uiso   1.00
H458   H     0.22400   0.21293   0.38515   0.00000  Uiso   1.00
N459   N     0.16668   0.16668   0.61736   0.00000  Uiso   1.00
N460   N     0.16665   0.16666   0.38264   0.00000  Uiso   1.00
O461   O     0.16666   0.10655   0.53958   0.00000  Uiso   1.00
O462   O     0.16667   0.22678   0.46042   0.00000  Uiso   1.00
O463   O     0.16666   0.10654   0.46039   0.00000  Uiso   1.00
O464   O     0.16667   0.22679   0.53961   0.00000  Uiso   1.00
O465   O     0.09161   0.16667   0.53046   0.00000  Uiso   1.00
O466   O     0.24172   0.16666   0.46954   0.00000  Uiso   1.00
O467   O     0.09161   0.16666   0.45127   0.00000  Uiso   1.00
O468   O     0.24172   0.16667   0.54873   0.00000  Uiso   1.00
N469   N     0.10015   0.11409   0.37319   0.00000  Uiso   1.00
H470   H     0.10823   0.08357   0.36777   0.00000  Uiso   1.00
C471   C     0.04585   0.12282   0.35995   0.00000  Uiso   1.00
H472   H     0.02285   0.10365   0.38143   0.00000  Uiso   1.00
H473   H     0.03342   0.11556   0.65538   0.00000  Uiso   1.00
H474   H     0.03795   0.15572   0.36655   0.00000  Uiso   1.00
N475   N     0.23319   0.21925   0.62681   0.00000  Uiso   1.00
H476   H     0.22511   0.24976   0.63223   0.00000  Uiso   1.00
C477   C     0.28748   0.21051   0.64005   0.00000  Uiso   1.00
H478   H     0.31048   0.22968   0.61857   0.00000  Uiso   1.00
H479   H     0.29538   0.17761   0.63345   0.00000  Uiso   1.00
H480   H     0.29992   0.21777   0.34462   0.00000  Uiso   1.00
C481   C     0.49994   0.08738   0.49994   0.00000  Uiso   1.00
C482   C     0.50006   0.24595   0.50006   0.00000  Uiso   1.00
C483   C     0.40123   0.16664   0.48785   0.00000  Uiso   1.00
C484   C     0.59877   0.16669   0.51215   0.00000  Uiso   1.00
C485   C     0.34586   0.16670   0.48122   0.00000  Uiso   1.00
C486   C     0.65414   0.16664   0.51878   0.00000  Uiso   1.00
C487   C     0.50244   0.02117   0.45790   0.00000  Uiso   1.00
C488   C     0.49756   0.31216   0.54210   0.00000  Uiso   1.00
C489   C     0.50250   0.31193   0.45797   0.00000  Uiso   1.00
C490   C     0.49750   0.02140   0.54203   0.00000  Uiso   1.00
C491   C     0.50006   0.29058   0.50007   0.00000  Uiso   1.00
C492   C     0.49994   0.04275   0.49993   0.00000  Uiso   1.00
C493   C     0.46736   0.14116   0.35355   0.00000  Uiso   1.00
C494   C     0.53264   0.19217   0.64645   0.00000  Uiso   1.00
C495   C     0.46799   0.14103   0.63731   0.00000  Uiso   1.00
C496   C     0.53201   0.19231   0.36269   0.00000  Uiso   1.00
Cu497  Cu    0.50000   0.16667   0.54689   0.00000  Uiso   1.00
Cu498  Cu    0.50000   0.16666   0.45311   0.00000  Uiso   1.00
H499   H     0.65897   0.16683   0.44528   0.00000  Uiso   1.00
H500   H     0.34103   0.16651   0.55472   0.00000  Uiso   1.00
H501   H     0.50449   0.03708   0.42503   0.00000  Uiso   1.00
H502   H     0.49551   0.29625   0.57497   0.00000  Uiso   1.00
H503   H     0.50456   0.29583   0.42510   0.00000  Uiso   1.00
H504   H     0.49545   0.03750   0.57490   0.00000  Uiso   1.00
H505   H     0.44267   0.12040   0.61485   0.00000  Uiso   1.00
H506   H     0.55733   0.21293   0.38515   0.00000  Uiso   1.00
N507   N     0.50001   0.16668   0.61736   0.00000  Uiso   1.00
N508   N     0.49999   0.16666   0.38264   0.00000  Uiso   1.00
O509   O     0.50000   0.10655   0.53958   0.00000  Uiso   1.00
O510   O     0.50000   0.22678   0.46042   0.00000  Uiso   1.00
O511   O     0.50000   0.10654   0.46039   0.00000  Uiso   1.00
O512   O     0.50000   0.22679   0.53961   0.00000  Uiso   1.00
O513   O     0.42495   0.16667   0.53046   0.00000  Uiso   1.00
O514   O     0.57505   0.16666   0.46954   0.00000  Uiso   1.00
O515   O     0.42494   0.16666   0.45127   0.00000  Uiso   1.00
O516   O     0.57506   0.16667   0.54873   0.00000  Uiso   1.00
N517   N     0.43348   0.11409   0.37319   0.00000  Uiso   1.00
H518   H     0.44156   0.08357   0.36777   0.00000  Uiso   1.00
C519   C     0.37918   0.12282   0.35995   0.00000  Uiso   1.00
H520   H     0.35619   0.10365   0.38143   0.00000  Uiso   1.00
H521   H     0.36675   0.11556   0.65538   0.00000  Uiso   1.00
H522   H     0.37129   0.15572   0.36655   0.00000  Uiso   1.00
N523   N     0.56652   0.21925   0.62681   0.00000  Uiso   1.00
H524   H     0.55844   0.24976   0.63223   0.00000  Uiso   1.00
C525   C     0.62082   0.21051   0.64005   0.00000  Uiso   1.00
H526   H     0.64381   0.22968   0.61857   0.00000  Uiso   1.00
H527   H     0.62871   0.17761   0.63345   0.00000  Uiso   1.00
H528   H     0.63325   0.21777   0.34462   0.00000  Uiso   1.00
C529   C     0.83327   0.08738   0.49994   0.00000  Uiso   1.00
C530   C     0.83339   0.24595   0.50006   0.00000  Uiso   1.00
C531   C     0.73457   0.16664   0.48785   0.00000  Uiso   1.00
C532   C     0.93210   0.16669   0.51215   0.00000  Uiso   1.00
C533   C     0.67919   0.16670   0.48122   0.00000  Uiso   1.00
C534   C     0.98748   0.16664   0.51878   0.00000  Uiso   1.00
C535   C     0.83577   0.02117   0.45790   0.00000  Uiso   1.00
C536   C     0.83090   0.31216   0.54210   0.00000  Uiso   1.00
C537   C     0.83584   0.31193   0.45797   0.00000  Uiso   1.00
C538   C     0.83083   0.02140   0.54203   0.00000  Uiso   1.00
C539   C     0.83340   0.29058   0.50007   0.00000  Uiso   1.00
C540   C     0.83327   0.04275   0.49993   0.00000  Uiso   1.00
C541   C     0.80070   0.14116   0.35355   0.00000  Uiso   1.00
C542   C     0.86597   0.19217   0.64645   0.00000  Uiso   1.00
C543   C     0.80132   0.14103   0.63731   0.00000  Uiso   1.00
C544   C     0.86535   0.19231   0.36269   0.00000  Uiso   1.00
Cu545  Cu    0.83333   0.16667   0.54689   0.00000  Uiso   1.00
Cu546  Cu    0.83333   0.16666   0.45311   0.00000  Uiso   1.00
H547   H     0.99230   0.16683   0.44528   0.00000  Uiso   1.00
H548   H     0.67436   0.16651   0.55472   0.00000  Uiso   1.00
H549   H     0.83783   0.03708   0.42503   0.00000  Uiso   1.00
H550   H     0.82884   0.29625   0.57497   0.00000  Uiso   1.00
H551   H     0.83789   0.29583   0.42510   0.00000  Uiso   1.00
H552   H     0.82878   0.03750   0.57490   0.00000  Uiso   1.00
H553   H     0.77600   0.12040   0.61485   0.00000  Uiso   1.00
H554   H     0.89066   0.21293   0.38515   0.00000  Uiso   1.00
N555   N     0.83335   0.16668   0.61736   0.00000  Uiso   1.00
N556   N     0.83332   0.16666   0.38264   0.00000  Uiso   1.00
O557   O     0.83333   0.10655   0.53958   0.00000  Uiso   1.00
O558   O     0.83334   0.22678   0.46042   0.00000  Uiso   1.00
O559   O     0.83333   0.10654   0.46039   0.00000  Uiso   1.00
O560   O     0.83334   0.22679   0.53961   0.00000  Uiso   1.00
O561   O     0.75828   0.16667   0.53046   0.00000  Uiso   1.00
O562   O     0.90839   0.16666   0.46954   0.00000  Uiso   1.00
O563   O     0.75828   0.16666   0.45127   0.00000  Uiso   1.00
O564   O     0.90839   0.16667   0.54873   0.00000  Uiso   1.00
N565   N     0.76681   0.11409   0.37319   0.00000  Uiso   1.00
H566   H     0.77489   0.08357   0.36777   0.00000  Uiso   1.00
C567   C     0.71252   0.12282   0.35995   0.00000  Uiso   1.00
H568   H     0.68952   0.10365   0.38143   0.00000  Uiso   1.00
H569   H     0.70008   0.11556   0.65538   0.00000  Uiso   1.00
H570   H     0.70462   0.15572   0.36655   0.00000  Uiso   1.00
N571   N     0.89985   0.21925   0.62681   0.00000  Uiso   1.00
H572   H     0.89178   0.24976   0.63223   0.00000  Uiso   1.00
C573   C     0.95415   0.21051   0.64005   0.00000  Uiso   1.00
H574   H     0.97715   0.22968   0.61857   0.00000  Uiso   1.00
H575   H     0.96205   0.17761   0.63345   0.00000  Uiso   1.00
H576   H     0.96658   0.21777   0.34462   0.00000  Uiso   1.00
C577   C     0.16661   0.42071   0.49994   0.00000  Uiso   1.00
C578   C     0.16673   0.57929   0.50006   0.00000  Uiso   1.00
C579   C     0.06790   0.49998   0.48785   0.00000  Uiso   1.00
C580   C     0.26543   0.50002   0.51215   0.00000  Uiso   1.00
C581   C     0.01252   0.50003   0.48122   0.00000  Uiso   1.00
C582   C     0.32081   0.49997   0.51878   0.00000  Uiso   1.00
C583   C     0.16910   0.35450   0.45790   0.00000  Uiso   1.00
C584   C     0.16423   0.64549   0.54210   0.00000  Uiso   1.00
C585   C     0.16917   0.64526   0.45797   0.00000  Uiso   1.00
C586   C     0.16417   0.35474   0.54203   0.00000  Uiso   1.00
C587   C     0.16673   0.62391   0.50007   0.00000  Uiso   1.00
C588   C     0.16660   0.37609   0.49993   0.00000  Uiso   1.00
C589   C     0.13403   0.47449   0.35355   0.00000  Uiso   1.00
C590   C     0.19930   0.52551   0.64645   0.00000  Uiso   1.00
C591   C     0.13465   0.47436   0.63731   0.00000  Uiso   1.00
C592   C     0.19868   0.52564   0.36269   0.00000  Uiso   1.00
Cu593  Cu    0.16667   0.50001   0.54689   0.00000  Uiso   1.00
Cu594  Cu    0.16667   0.49999   0.45311   0.00000  Uiso   1.00
H595   H     0.32564   0.50016   0.44528   0.00000  Uiso   1.00
H596   H     0.00770   0.49984   0.55472   0.00000  Uiso   1.00
H597   H     0.17116   0.37041   0.42503   0.00000  Uiso   1.00
H598   H     0.16217   0.62958   0.57497   0.00000  Uiso   1.00
H599   H     0.17122   0.62916   0.42510   0.00000  Uiso   1.00
H600   H     0.16211   0.37084   0.57490   0.00000  Uiso   1.00
H601   H     0.10934   0.45374   0.61485   0.00000  Uiso   1.00
H602   H     0.22400   0.54626   0.38515   0.00000  Uiso   1.00
N603   N     0.16668   0.50001   0.61736   0.00000  Uiso   1.00
N604   N     0.16665   0.49999   0.38264   0.00000  Uiso   1.00
O605   O     0.16666   0.43989   0.53958   0.00000  Uiso   1.00
O606   O     0.16667   0.56011   0.46042   0.00000  Uiso   1.00
O607   O     0.16666   0.43988   0.46039   0.00000  Uiso   1.00
O608   O     0.16667   0.56012   0.53961   0.00000  Uiso   1.00
O609   O     0.09161   0.50000   0.53046   0.00000  Uiso   1.00
O610   O     0.24172   0.50000   0.46954   0.00000  Uiso   1.00
O611   O     0.09161   0.49999   0.45127   0.00000  Uiso   1.00
O612   O     0.24172   0.50001   0.54873   0.00000  Uiso   1.00
N613   N     0.10015   0.44742   0.37319   0.00000  Uiso   1.00
H614   H     0.10823   0.41690   0.36777   0.00000  Uiso   1.00
C615   C     0.04585   0.45615   0.35995   0.00000  Uiso   1.00
H616   H     0.02285   0.43698   0.38143   0.00000  Uiso   1.00
H617   H     0.03342   0.44890   0.65538   0.00000  Uiso   1.00
H618   H     0.03795   0.48905   0.36655   0.00000  Uiso   1.00
N619   N     0.23319   0.55258   0.62681   0.00000  Uiso   1.00
H620   H     0.22511   0.58310   0.63223   0.00000  Uiso   1.00
C621   C     0.28748   0.54385   0.64005   0.00000  Uiso   1.00
H622   H     0.31048   0.56302   0.61857   0.00000  Uiso   1.00
H623   H     0.29538   0.51094   0.63345   0.00000  Uiso   1.00
H624   H     0.29992   0.55111   0.34462   0.00000  Uiso   1.00
C625   C     0.49994   0.42071   0.49994   0.00000  Uiso   1.00
C626   C     0.50006   0.57929   0.50006   0.00000  Uiso   1.00
C627   C     0.40123   0.49998   0.48785   0.00000  Uiso   1.00
C628   C     0.59877   0.50002   0.51215   0.00000  Uiso   1.00
C629   C     0.34586   0.50003   0.48122   0.00000  Uiso   1.00
C630   C     0.65414   0.49997   0.51878   0.00000  Uiso   1.00
C631   C     0.50244   0.35450   0.45790   0.00000  Uiso   1.00
C632   C     0.49756   0.64549   0.54210   0.00000  Uiso   1.00
C633   C     0.50250   0.64526   0.45797   0.00000  Uiso   1.00
C634   C     0.49750   0.35474   0.54203   0.00000  Uiso   1.00
C635   C     0.50006   0.62391   0.50007   0.00000  Uiso   1.00
C636   C     0.49994   0.37609   0.49993   0.00000  Uiso   1.00
C637   C     0.46736   0.47449   0.35355   0.00000  Uiso   1.00
C638   C     0.53264   0.52551   0.64645   0.00000  Uiso   1.00
C639   C     0.46799   0.47436   0.63731   0.00000  Uiso   1.00
C640   C     0.53201   0.52564   0.36269   0.00000  Uiso   1.00
Cu641  Cu    0.50000   0.50001   0.54689   0.00000  Uiso   1.00
Cu642  Cu    0.50000   0.49999   0.45311   0.00000  Uiso   1.00
H643   H     0.65897   0.50016   0.44528   0.00000  Uiso   1.00
H644   H     0.34103   0.49984   0.55472   0.00000  Uiso   1.00
H645   H     0.50449   0.37041   0.42503   0.00000  Uiso   1.00
H646   H     0.49551   0.62958   0.57497   0.00000  Uiso   1.00
H647   H     0.50456   0.62916   0.42510   0.00000  Uiso   1.00
H648   H     0.49545   0.37084   0.57490   0.00000  Uiso   1.00
H649   H     0.44267   0.45374   0.61485   0.00000  Uiso   1.00
H650   H     0.55733   0.54626   0.38515   0.00000  Uiso   1.00
N651   N     0.50001   0.50001   0.61736   0.00000  Uiso   1.00
N652   N     0.49999   0.49999   0.38264   0.00000  Uiso   1.00
O653   O     0.50000   0.43989   0.53958   0.00000  Uiso   1.00
O654   O     0.50000   0.56011   0.46042   0.00000  Uiso   1.00
O655   O     0.50000   0.43988   0.46039   0.00000  Uiso   1.00
O656   O     0.50000   0.56012   0.53961   0.00000  Uiso   1.00
O657   O     0.42495   0.50000   0.53046   0.00000  Uiso   1.00
O658   O     0.57505   0.50000   0.46954   0.00000  Uiso   1.00
O659   O     0.42494   0.49999   0.45127   0.00000  Uiso   1.00
O660   O     0.57506   0.50001   0.54873   0.00000  Uiso   1.00
N661   N     0.43348   0.44742   0.37319   0.00000  Uiso   1.00
H662   H     0.44156   0.41690   0.36777   0.00000  Uiso   1.00
C663   C     0.37918   0.45615   0.35995   0.00000  Uiso   1.00
H664   H     0.35619   0.43698   0.38143   0.00000  Uiso   1.00
H665   H     0.36675   0.44890   0.65538   0.00000  Uiso   1.00
H666   H     0.37129   0.48905   0.36655   0.00000  Uiso   1.00
N667   N     0.56652   0.55258   0.62681   0.00000  Uiso   1.00
H668   H     0.55844   0.58310   0.63223   0.00000  Uiso   1.00
C669   C     0.62082   0.54385   0.64005   0.00000  Uiso   1.00
H670   H     0.64381   0.56302   0.61857   0.00000  Uiso   1.00
H671   H     0.62871   0.51094   0.63345   0.00000  Uiso   1.00
H672   H     0.63325   0.55111   0.34462   0.00000  Uiso   1.00
C673   C     0.83327   0.42071   0.49994   0.00000  Uiso   1.00
C674   C     0.83339   0.57929   0.50006   0.00000  Uiso   1.00
C675   C     0.73457   0.49998   0.48785   0.00000  Uiso   1.00
C676   C     0.93210   0.50002   0.51215   0.00000  Uiso   1.00
C677   C     0.67919   0.50003   0.48122   0.00000  Uiso   1.00
C678   C     0.98748   0.49997   0.51878   0.00000  Uiso   1.00
C679   C     0.83577   0.35450   0.45790   0.00000  Uiso   1.00
C680   C     0.83090   0.64549   0.54210   0.00000  Uiso   1.00
C681   C     0.83584   0.64526   0.45797   0.00000  Uiso   1.00
C682   C     0.83083   0.35474   0.54203   0.00000  Uiso   1.00
C683   C     0.83340   0.62391   0.50007   0.00000  Uiso   1.00
C684   C     0.83327   0.37609   0.49993   0.00000  Uiso   1.00
C685   C     0.80070   0.47449   0.35355   0.00000  Uiso   1.00
C686   C     0.86597   0.52551   0.64645   0.00000  Uiso   1.00
C687   C     0.80132   0.47436   0.63731   0.00000  Uiso   1.00
C688   C     0.86535   0.52564   0.36269   0.00000  Uiso   1.00
Cu689  Cu    0.83333   0.50001   0.54689   0.00000  Uiso   1.00
Cu690  Cu    0.83333   0.49999   0.45311   0.00000  Uiso   1.00
H691   H     0.99230   0.50016   0.44528   0.00000  Uiso   1.00
H692   H     0.67436   0.49984   0.55472   0.00000  Uiso   1.00
H693   H     0.83783   0.37041   0.42503   0.00000  Uiso   1.00
H694   H     0.82884   0.62958   0.57497   0.00000  Uiso   1.00
H695   H     0.83789   0.62916   0.42510   0.00000  Uiso   1.00
H696   H     0.82878   0.37084   0.57490   0.00000  Uiso   1.00
H697   H     0.77600   0.45374   0.61485   0.00000  Uiso   1.00
H698   H     0.89066   0.54626   0.38515   0.00000  Uiso   1.00
N699   N     0.83335   0.50001   0.61736   0.00000  Uiso   1.00
N700   N     0.83332   0.49999   0.38264   0.00000  Uiso   1.00
O701   O     0.83333   0.43989   0.53958   0.00000  Uiso   1.00
O702   O     0.83334   0.56011   0.46042   0.00000  Uiso   1.00
O703   O     0.83333   0.43988   0.46039   0.00000  Uiso   1.00
O704   O     0.83334   0.56012   0.53961   0.00000  Uiso   1.00
O705   O     0.75828   0.50000   0.53046   0.00000  Uiso   1.00
O706   O     0.90839   0.50000   0.46954   0.00000  Uiso   1.00
O707   O     0.75828   0.49999   0.45127   0.00000  Uiso   1.00
O708   O     0.90839   0.50001   0.54873   0.00000  Uiso   1.00
N709   N     0.76681   0.44742   0.37319   0.00000  Uiso   1.00
H710   H     0.77489   0.41690   0.36777   0.00000  Uiso   1.00
C711   C     0.71252   0.45615   0.35995   0.00000  Uiso   1.00
H712   H     0.68952   0.43698   0.38143   0.00000  Uiso   1.00
H713   H     0.70008   0.44890   0.65538   0.00000  Uiso   1.00
H714   H     0.70462   0.48905   0.36655   0.00000  Uiso   1.00
N715   N     0.89985   0.55258   0.62681   0.00000  Uiso   1.00
H716   H     0.89178   0.58310   0.63223   0.00000  Uiso   1.00
C717   C     0.95415   0.54385   0.64005   0.00000  Uiso   1.00
H718   H     0.97715   0.56302   0.61857   0.00000  Uiso   1.00
H719   H     0.96205   0.51094   0.63345   0.00000  Uiso   1.00
H720   H     0.96658   0.55111   0.34462   0.00000  Uiso   1.00
C721   C     0.16661   0.75405   0.49994   0.00000  Uiso   1.00
C722   C     0.16673   0.91262   0.50006   0.00000  Uiso   1.00
C723   C     0.06790   0.83331   0.48785   0.00000  Uiso   1.00
C724   C     0.26543   0.83336   0.51215   0.00000  Uiso   1.00
C725   C     0.01252   0.83336   0.48122   0.00000  Uiso   1.00
C726   C     0.32081   0.83330   0.51878   0.00000  Uiso   1.00
C727   C     0.16910   0.68784   0.45790   0.00000  Uiso   1.00
C728   C     0.16423   0.97883   0.54210   0.00000  Uiso   1.00
C729   C     0.16917   0.97859   0.45797   0.00000  Uiso   1.00
C730   C     0.16417   0.68807   0.54203   0.00000  Uiso   1.00
C731   C     0.16673   0.95725   0.50007   0.00000  Uiso   1.00
C732   C     0.16660   0.70942   0.49993   0.00000  Uiso   1.00
C733   C     0.13403   0.80783   0.35355   0.00000  Uiso   1.00
C734   C     0.19930   0.85884   0.64645   0.00000  Uiso   1.00
C735   C     0.13465   0.80769   0.63731   0.00000  Uiso   1.00
C736   C     0.19868   0.85897   0.36269   0.00000  Uiso   1.00
Cu737  Cu    0.16667   0.83334   0.54689   0.00000  Uiso   1.00
Cu738  Cu    0.16667   0.83333   0.45311   0.00000  Uiso   1.00
H739   H     0.32564   0.83349   0.44528   0.00000  Uiso   1.00
H740   H     0.00770   0.83317   0.55472   0.00000  Uiso   1.00
H741   H     0.17116   0.70375   0.42503   0.00000  Uiso   1.00
H742   H     0.16217   0.96292   0.57497   0.00000  Uiso   1.00
H743   H     0.17122   0.96250   0.42510   0.00000  Uiso   1.00
H744   H     0.16211   0.70417   0.57490   0.00000  Uiso   1.00
H745   H     0.10934   0.78707   0.61485   0.00000  Uiso   1.00
H746   H     0.22400   0.87960   0.38515   0.00000  Uiso   1.00
N747   N     0.16668   0.83334   0.61736   0.00000  Uiso   1.00
N748   N     0.16665   0.83332   0.38264   0.00000  Uiso   1.00
O749   O     0.16666   0.77322   0.53958   0.00000  Uiso   1.00
O750   O     0.16667   0.89345   0.46042   0.00000  Uiso   1.00
O751   O     0.16666   0.77321   0.46039   0.00000  Uiso   1.00
O752   O     0.16667   0.89346   0.53961   0.00000  Uiso   1.00
O753   O     0.09161   0.83334   0.53046   0.00000  Uiso   1.00
O754   O     0.24172   0.83333   0.46954   0.00000  Uiso   1.00
O755   O     0.09161   0.83333   0.45127   0.00000  Uiso   1.00
O756   O     0.24172   0.83334   0.54873   0.00000  Uiso   1.00
N757   N     0.10015   0.78075   0.37319   0.00000  Uiso   1.00
H758   H     0.10823   0.75023   0.36777   0.00000  Uiso   1.00
C759   C     0.04585   0.78949   0.35995   0.00000  Uiso   1.00
H760   H     0.02285   0.77032   0.38143   0.00000  Uiso   1.00
H761   H     0.03342   0.78223   0.65538   0.00000  Uiso   1.00
H762   H     0.03795   0.82239   0.36655   0.00000  Uiso   1.00
N763   N     0.23319   0.88591   0.62681   0.00000  Uiso   1.00
H764   H     0.22511   0.91643   0.63223   0.00000  Uiso   1.00
C765   C     0.28748   0.87718   0.64005   0.00000  Uiso   1.00
H766   H     0.31048   0.89635   0.61857   0.00000  Uiso   1.00
H767   H     0.29538   0.84428   0.63345   0.00000  Uiso   1.00
H768   H     0.29992   0.88444   0.34462   0.00000  Uiso   1.00
C769   C     0.49994   0.75405   0.49994   0.00000  Uiso   1.00
C770   C     0.50006   0.91262   0.50006   0.00000  Uiso   1.00
C771   C     0.40123   0.83331   0.48785   0.00000  Uiso   1.00
C772   C     0.59877   0.83336   0.51215   0.00000  Uiso   1.00
C773   C     0.34586   0.83336   0.48122   0.00000  Uiso   1.00
C774   C     0.65414   0.83330   0.51878   0.00000  Uiso   1.00
C775   C     0.50244   0.68784   0.45790   0.00000  Uiso   1.00
C776   C     0.49756   0.97883   0.54210   0.00000  Uiso   1.00
C777   C     0.50250   0.97859   0.45797   0.00000  Uiso   1.00
C778   C     0.49750   0.68807   0.54203   0.00000  Uiso   1.00
C779   C     0.50006   0.95725   0.50007   0.00000  Uiso   1.00
C780   C     0.49994   0.70942   0.49993   0.00000  Uiso   1.00
C781   C     0.46736   0.80783   0.35355   0.00000  Uiso   1.00
C782   C     0.53264   0.85884   0.64645   0.00000  Uiso   1.00
C783   C     0.46799   0.80769   0.63731   0.00000  Uiso   1.00
C784   C     0.53201   0.85897   0.36269   0.00000  Uiso   1.00
Cu785  Cu    0.50000   0.83334   0.54689   0.00000  Uiso   1.00
Cu786  Cu    0.50000   0.83333   0.45311   0.00000  Uiso   1.00
H787   H     0.65897   0.83349   0.44528   0.00000  Uiso   1.00
H788   H     0.34103   0.83317   0.55472   0.00000  Uiso   1.00
H789   H     0.50449   0.70375   0.42503   0.00000  Uiso   1.00
H790   H     0.49551   0.96292   0.57497   0.00000  Uiso   1.00
H791   H     0.50456   0.96250   0.42510   0.00000  Uiso   1.00
H792   H     0.49545   0.70417   0.57490   0.00000  Uiso   1.00
H793   H     0.44267   0.78707   0.61485   0.00000  Uiso   1.00
H794   H     0.55733   0.87960   0.38515   0.00000  Uiso   1.00
N795   N     0.50001   0.83334   0.61736   0.00000  Uiso   1.00
N796   N     0.49999   0.83332   0.38264   0.00000  Uiso   1.00
O797   O     0.50000   0.77322   0.53958   0.00000  Uiso   1.00
O798   O     0.50000   0.89345   0.46042   0.00000  Uiso   1.00
O799   O     0.50000   0.77321   0.46039   0.00000  Uiso   1.00
O800   O     0.50000   0.89346   0.53961   0.00000  Uiso   1.00
O801   O     0.42495   0.83334   0.53046   0.00000  Uiso   1.00
O802   O     0.57505   0.83333   0.46954   0.00000  Uiso   1.00
O803   O     0.42494   0.83333   0.45127   0.00000  Uiso   1.00
O804   O     0.57506   0.83334   0.54873   0.00000  Uiso   1.00
N805   N     0.43348   0.78075   0.37319   0.00000  Uiso   1.00
H806   H     0.44156   0.75023   0.36777   0.00000  Uiso   1.00
C807   C     0.37918   0.78949   0.35995   0.00000  Uiso   1.00
H808   H     0.35619   0.77032   0.38143   0.00000  Uiso   1.00
H809   H     0.36675   0.78223   0.65538   0.00000  Uiso   1.00
H810   H     0.37129   0.82239   0.36655   0.00000  Uiso   1.00
N811   N     0.56652   0.88591   0.62681   0.00000  Uiso   1.00
H812   H     0.55844   0.91643   0.63223   0.00000  Uiso   1.00
C813   C     0.62082   0.87718   0.64005   0.00000  Uiso   1.00
H814   H     0.64381   0.89635   0.61857   0.00000  Uiso   1.00
H815   H     0.62871   0.84428   0.63345   0.00000  Uiso   1.00
H816   H     0.63325   0.88444   0.34462   0.00000  Uiso   1.00
C817   C     0.83327   0.75405   0.49994   0.00000  Uiso   1.00
C818   C     0.83339   0.91262   0.50006   0.00000  Uiso   1.00
C819   C     0.73457   0.83331   0.48785   0.00000  Uiso   1.00
C820   C     0.93210   0.83336   0.51215   0.00000  Uiso   1.00
C821   C     0.67919   0.83336   0.48122   0.00000  Uiso   1.00
C822   C     0.98748   0.83330   0.51878   0.00000  Uiso   1.00
C823   C     0.83577   0.68784   0.45790   0.00000  Uiso   1.00
C824   C     0.83090   0.97883   0.54210   0.00000  Uiso   1.00
C825   C     0.83584   0.97859   0.45797   0.00000  Uiso   1.00
C826   C     0.83083   0.68807   0.54203   0.00000  Uiso   1.00
C827   C     0.83340   0.95725   0.50007   0.00000  Uiso   1.00
C828   C     0.83327   0.70942   0.49993   0.00000  Uiso   1.00
C829   C     0.80070   0.80783   0.35355   0.00000  Uiso   1.00
C830   C     0.86597   0.85884   0.64645   0.00000  Uiso   1.00
C831   C     0.80132   0.80769   0.63731   0.00000  Uiso   1.00
C832   C     0.86535   0.85897   0.36269   0.00000  Uiso   1.00
Cu833  Cu    0.83333   0.83334   0.54689   0.00000  Uiso   1.00
Cu834  Cu    0.83333   0.83333   0.45311   0.00000  Uiso   1.00
H835   H     0.99230   0.83349   0.44528   0.00000  Uiso   1.00
H836   H     0.67436   0.83317   0.55472   0.00000  Uiso   1.00
H837   H     0.83783   0.70375   0.42503   0.00000  Uiso   1.00
H838   H     0.82884   0.96292   0.57497   0.00000  Uiso   1.00
H839   H     0.83789   0.96250   0.42510   0.00000  Uiso   1.00
H840   H     0.82878   0.70417   0.57490   0.00000  Uiso   1.00
H841   H     0.77600   0.78707   0.61485   0.00000  Uiso   1.00
H842   H     0.89066   0.87960   0.38515   0.00000  Uiso   1.00
N843   N     0.83335   0.83334   0.61736   0.00000  Uiso   1.00
N844   N     0.83332   0.83332   0.38264   0.00000  Uiso   1.00
O845   O     0.83333   0.77322   0.53958   0.00000  Uiso   1.00
O846   O     0.83334   0.89345   0.46042   0.00000  Uiso   1.00
O847   O     0.83333   0.77321   0.46039   0.00000  Uiso   1.00
O848   O     0.83334   0.89346   0.53961   0.00000  Uiso   1.00
O849   O     0.75828   0.83334   0.53046   0.00000  Uiso   1.00
O850   O     0.90839   0.83333   0.46954   0.00000  Uiso   1.00
O851   O     0.75828   0.83333   0.45127   0.00000  Uiso   1.00
O852   O     0.90839   0.83334   0.54873   0.00000  Uiso   1.00
N853   N     0.76681   0.78075   0.37319   0.00000  Uiso   1.00
H854   H     0.77489   0.75023   0.36777   0.00000  Uiso   1.00
C855   C     0.71252   0.78949   0.35995   0.00000  Uiso   1.00
H856   H     0.68952   0.77032   0.38143   0.00000  Uiso   1.00
H857   H     0.70008   0.78223   0.65538   0.00000  Uiso   1.00
H858   H     0.70462   0.82239   0.36655   0.00000  Uiso   1.00
N859   N     0.89985   0.88591   0.62681   0.00000  Uiso   1.00
H860   H     0.89178   0.91643   0.63223   0.00000  Uiso   1.00
C861   C     0.95415   0.87718   0.64005   0.00000  Uiso   1.00
H862   H     0.97715   0.89635   0.61857   0.00000  Uiso   1.00
H863   H     0.96205   0.84428   0.63345   0.00000  Uiso   1.00
H864   H     0.96658   0.88444   0.34462   0.00000  Uiso   1.00
C865   C     0.16661   0.08738   0.83327   0.00000  Uiso   1.00
C866   C     0.16673   0.24595   0.83340   0.00000  Uiso   1.00
C867   C     0.06790   0.16664   0.82118   0.00000  Uiso   1.00
C868   C     0.26543   0.16669   0.84549   0.00000  Uiso   1.00
C869   C     0.01252   0.16670   0.81455   0.00000  Uiso   1.00
C870   C     0.32081   0.16664   0.85211   0.00000  Uiso   1.00
C871   C     0.16910   0.02117   0.79123   0.00000  Uiso   1.00
C872   C     0.16423   0.31216   0.87543   0.00000  Uiso   1.00
C873   C     0.16917   0.31193   0.79130   0.00000  Uiso   1.00
C874   C     0.16417   0.02140   0.87537   0.00000  Uiso   1.00
C875   C     0.16673   0.29058   0.83340   0.00000  Uiso   1.00
C876   C     0.16660   0.04275   0.83326   0.00000  Uiso   1.00
C877   C     0.13403   0.14116   0.68689   0.00000  Uiso   1.00
C878   C     0.19930   0.19217   0.97978   0.00000  Uiso   1.00
C879   C     0.13465   0.14103   0.97065   0.00000  Uiso   1.00
C880   C     0.19868   0.19231   0.69602   0.00000  Uiso   1.00
Cu881  Cu    0.16667   0.16667   0.88022   0.00000  Uiso   1.00
Cu882  Cu    0.16667   0.16666   0.78645   0.00000  Uiso   1.00
H883   H     0.32564   0.16683   0.77862   0.00000  Uiso   1.00
H884   H     0.00770   0.16651   0.88805   0.00000  Uiso   1.00
H885   H     0.17116   0.03708   0.75836   0.00000  Uiso   1.00
H886   H     0.16217   0.29625   0.90831   0.00000  Uiso   1.00
H887   H     0.17122   0.29583   0.75844   0.00000  Uiso   1.00
H888   H     0.16211   0.03750   0.90823   0.00000  Uiso   1.00
H889   H     0.10934   0.12040   0.94818   0.00000  Uiso   1.00
H890   H     0.22400   0.21293   0.71848   0.00000  Uiso   1.00
N891   N     0.16668   0.16668   0.95069   0.00000  Uiso   1.00
N892   N     0.16665   0.16666   0.71597   0.00000  Uiso   1.00
O893   O     0.16666   0.10655   0.87291   0.00000  Uiso   1.00
O894   O     0.16667   0.22678   0.79375   0.00000  Uiso   1.00
O895   O     0.16666   0.10654   0.79372   0.00000  Uiso   1.00
O896   O     0.16667   0.22679   0.87294   0.00000  Uiso   1.00
O897   O     0.09161   0.16667   0.86379   0.00000  Uiso   1.00
O898   O     0.24172   0.16666   0.80288   0.00000  Uiso   1.00
O899   O     0.09161   0.16666   0.78460   0.00000  Uiso   1.00
O900   O     0.24172   0.16667   0.88207   0.00000  Uiso   1.00
N901   N     0.10015   0.11409   0.70652   0.00000  Uiso   1.00
H902   H     0.10823   0.08357   0.70111   0.00000  Uiso   1.00
C903   C     0.04585   0.12282   0.69329   0.00000  Uiso   1.00
H904   H     0.02285   0.10365   0.71476   0.00000  Uiso   1.00
H905   H     0.03342   0.11556   0.98872   0.00000  Uiso   1.00
H906   H     0.03795   0.15572   0.69988   0.00000  Uiso   1.00
N907   N     0.23319   0.21925   0.96015   0.00000  Uiso   1.00
H908   H     0.22511   0.24976   0.96556   0.00000  Uiso   1.00
C909   C     0.28748   0.21051   0.97338   0.00000  Uiso   1.00
H910   H     0.31048   0.22968   0.95190   0.00000  Uiso   1.00
H911   H     0.29538   0.17761   0.96679   0.00000  Uiso   1.00
H912   H     0.29992   0.21777   0.67795   0.00000  Uiso   1.00
C913   C     0.49994   0.08738   0.83327   0.00000  Uiso   1.00
C914   C     0.50006   0.24595   0.83340   0.00000  Uiso   1.00
C915   C     0.40123   0.16664   0.82118   0.00000  Uiso   1.00
C916   C     0.59877   0.16669   0.84549   0.00000  Uiso   1.00
C917   C     0.34586   0.16670   0.81455   0.00000  Uiso   1.00
C918   C     0.65414   0.16664   0.85211   0.00000  Uiso   1.00
C919   C     0.50244   0.02117   0.79123   0.00000  Uiso   1.00
C920   C     0.49756   0.31216   0.87543   0.00000  Uiso   1.00
C921   C     0.50250   0.31193   0.79130   0.00000  Uiso   1.00
C922   C     0.49750   0.02140   0.87537   0.00000  Uiso   1.00
C923   C     0.50006   0.29058   0.83340   0.00000  Uiso   1.00
C924   C     0.49994   0.04275   0.83326   0.00000  Uiso   1.00
C925   C     0.46736   0.14116   0.68689   0.00000  Uiso   1.00
C926   C     0.53264   0.19217   0.97978   0.00000  Uiso   1.00
C927   C     0.46799   0.14103   0.97065   0.00000  Uiso   1.00
C928   C     0.53201   0.19231   0.69602   0.00000  Uiso   1.00
Cu929  Cu    0.50000   0.16667   0.88022   0.00000  Uiso   1.00
Cu930  Cu    0.50000   0.16666   0.78645   0.00000  Uiso   1.00
H931   H     0.65897   0.16683   0.77862   0.00000  Uiso   1.00
H932   H     0.34103   0.16651   0.88805   0.00000  Uiso   1.00
H933   H     0.50449   0.03708   0.75836   0.00000  Uiso   1.00
H934   H     0.49551   0.29625   0.90831   0.00000  Uiso   1.00
H935   H     0.50456   0.29583   0.75844   0.00000  Uiso   1.00
H936   H     0.49545   0.03750   0.90823   0.00000  Uiso   1.00
H937   H     0.44267   0.12040   0.94818   0.00000  Uiso   1.00
H938   H     0.55733   0.21293   0.71848   0.00000  Uiso   1.00
N939   N     0.50001   0.16668   0.95069   0.00000  Uiso   1.00
N940   N     0.49999   0.16666   0.71597   0.00000  Uiso   1.00
O941   O     0.50000   0.10655   0.87291   0.00000  Uiso   1.00
O942   O     0.50000   0.22678   0.79375   0.00000  Uiso   1.00
O943   O     0.50000   0.10654   0.79372   0.00000  Uiso   1.00
O944   O     0.50000   0.22679   0.87294   0.00000  Uiso   1.00
O945   O     0.42495   0.16667   0.86379   0.00000  Uiso   1.00
O946   O     0.57505   0.16666   0.80288   0.00000  Uiso   1.00
O947   O     0.42494   0.16666   0.78460   0.00000  Uiso   1.00
O948   O     0.57506   0.16667   0.88207   0.00000  Uiso   1.00
N949   N     0.43348   0.11409   0.70652   0.00000  Uiso   1.00
H950   H     0.44156   0.08357   0.70111   0.00000  Uiso   1.00
C951   C     0.37918   0.12282   0.69329   0.00000  Uiso   1.00
H952   H     0.35619   0.10365   0.71476   0.00000  Uiso   1.00
H953   H     0.36675   0.11556   0.98872   0.00000  Uiso   1.00
H954   H     0.37129   0.15572   0.69988   0.00000  Uiso   1.00
N955   N     0.56652   0.21925   0.96015   0.00000  Uiso   1.00
H956   H     0.55844   0.24976   0.96556   0.00000  Uiso   1.00
C957   C     0.62082   0.21051   0.97338   0.00000  Uiso   1.00
H958   H     0.64381   0.22968   0.95190   0.00000  Uiso   1.00
H959   H     0.62871   0.17761   0.96679   0.00000  Uiso   1.00
H960   H     0.63325   0.21777   0.67795   0.00000  Uiso   1.00
C961   C     0.83327   0.08738   0.83327   0.00000  Uiso   1.00
C962   C     0.83339   0.24595   0.83340   0.00000  Uiso   1.00
C963   C     0.73457   0.16664   0.82118   0.00000  Uiso   1.00
C964   C     0.93210   0.16669   0.84549   0.00000  Uiso   1.00
C965   C     0.67919   0.16670   0.81455   0.00000  Uiso   1.00
C966   C     0.98748   0.16664   0.85211   0.00000  Uiso   1.00
C967   C     0.83577   0.02117   0.79123   0.00000  Uiso   1.00
C968   C     0.83090   0.31216   0.87543   0.00000  Uiso   1.00
C969   C     0.83584   0.31193   0.79130   0.00000  Uiso   1.00
C970   C     0.83083   0.02140   0.87537   0.00000  Uiso   1.00
C971   C     0.83340   0.29058   0.83340   0.00000  Uiso   1.00
C972   C     0.83327   0.04275   0.83326   0.00000  Uiso   1.00
C973   C     0.80070   0.14116   0.68689   0.00000  Uiso   1.00
C974   C     0.86597   0.19217   0.97978   0.00000  Uiso   1.00
C975   C     0.80132   0.14103   0.97065   0.00000  Uiso   1.00
C976   C     0.86535   0.19231   0.69602   0.00000  Uiso   1.00
Cu977  Cu    0.83333   0.16667   0.88022   0.00000  Uiso   1.00
Cu978  Cu    0.83333   0.16666   0.78645   0.00000  Uiso   1.00
H979   H     0.99230   0.16683   0.77862   0.00000  Uiso   1.00
H980   H     0.67436   0.16651   0.88805   0.00000  Uiso   1.00
H981   H     0.83783   0.03708   0.75836   0.00000  Uiso   1.00
H982   H     0.82884   0.29625   0.90831   0.00000  Uiso   1.00
H983   H     0.83789   0.29583   0.75844   0.00000  Uiso   1.00
H984   H     0.82878   0.03750   0.90823   0.00000  Uiso   1.00
H985   H     0.77600   0.12040   0.94818   0.00000  Uiso   1.00
H986   H     0.89066   0.21293   0.71848   0.00000  Uiso   1.00
N987   N     0.83335   0.16668   0.95069   0.00000  Uiso   1.00
N988   N     0.83332   0.16666   0.71597   0.00000  Uiso   1.00
O989   O     0.83333   0.10655   0.87291   0.00000  Uiso   1.00
O990   O     0.83334   0.22678   0.79375   0.00000  Uiso   1.00
O991   O     0.83333   0.10654   0.79372   0.00000  Uiso   1.00
O992   O     0.83334   0.22679   0.87294   0.00000  Uiso   1.00
O993   O     0.75828   0.16667   0.86379   0.00000  Uiso   1.00
O994   O     0.90839   0.16666   0.80288   0.00000  Uiso   1.00
O995   O     0.75828   0.16666   0.78460   0.00000  Uiso   1.00
O996   O     0.90839   0.16667   0.88207   0.00000  Uiso   1.00
N997   N     0.76681   0.11409   0.70652   0.00000  Uiso   1.00
H998   H     0.77489   0.08357   0.70111   0.00000  Uiso   1.00
C999   C     0.71252   0.12282   0.69329   0.00000  Uiso   1.00
H1000  H     0.68952   0.10365   0.71476   0.00000  Uiso   1.00
H1001  H     0.70008   0.11556   0.98872   0.00000  Uiso   1.00
H1002  H     0.70462   0.15572   0.69988   0.00000  Uiso   1.00
N1003  N     0.89985   0.21925   0.96015   0.00000  Uiso   1.00
H1004  H     0.89178   0.24976   0.96556   0.00000  Uiso   1.00
C1005  C     0.95415   0.21051   0.97338   0.00000  Uiso   1.00
H1006  H     0.97715   0.22968   0.95190   0.00000  Uiso   1.00
H1007  H     0.96205   0.17761   0.96679   0.00000  Uiso   1.00
H1008  H     0.96658   0.21777   0.67795   0.00000  Uiso   1.00
C1009  C     0.16661   0.42071   0.83327   0.00000  Uiso   1.00
C1010  C     0.16673   0.57929   0.83340   0.00000  Uiso   1.00
C1011  C     0.06790   0.49998   0.82118   0.00000  Uiso   1.00
C1012  C     0.26543   0.50002   0.84549   0.00000  Uiso   1.00
C1013  C     0.01252   0.50003   0.81455   0.00000  Uiso   1.00
C1014  C     0.32081   0.49997   0.85211   0.00000  Uiso   1.00
C1015  C     0.16910   0.35450   0.79123   0.00000  Uiso   1.00
C1016  C     0.16423   0.64549   0.87543   0.00000  Uiso   1.00
C1017  C     0.16917   0.64526   0.79130   0.00000  Uiso   1.00
C1018  C     0.16417   0.35474   0.87537   0.00000  Uiso   1.00
C1019  C     0.16673   0.62391   0.83340   0.00000  Uiso   1.00
C1020  C     0.16660   0.37609   0.83326   0.00000  Uiso   1.00
C1021  C     0.13403   0.47449   0.68689   0.00000  Uiso   1.00
C1022  C     0.19930   0.52551   0.97978   0.00000  Uiso   1.00
C1023  C     0.13465   0.47436   0.97065   0.00000  Uiso   1.00
C1024  C     0.19868   0.52564   0.69602   0.00000  Uiso   1.00
Cu1025 Cu    0.16667   0.50001   0.88022   0.00000  Uiso   1.00
Cu1026 Cu    0.16667   0.49999   0.78645   0.00000  Uiso   1.00
H1027  H     0.32564   0.50016   0.77862   0.00000  Uiso   1.00
H1028  H     0.00770   0.49984   0.88805   0.00000  Uiso   1.00
H1029  H     0.17116   0.37041   0.75836   0.00000  Uiso   1.00
H1030  H     0.16217   0.62958   0.90831   0.00000  Uiso   1.00
H1031  H     0.17122   0.62916   0.75844   0.00000  Uiso   1.00
H1032  H     0.16211   0.37084   0.90823   0.00000  Uiso   1.00
H1033  H     0.10934   0.45374   0.94818   0.00000  Uiso   1.00
H1034  H     0.22400   0.54626   0.71848   0.00000  Uiso   1.00
N1035  N     0.16668   0.50001   0.95069   0.00000  Uiso   1.00
N1036  N     0.16665   0.49999   0.71597   0.00000  Uiso   1.00
O1037  O     0.16666   0.43989   0.87291   0.00000  Uiso   1.00
O1038  O     0.16667   0.56011   0.79375   0.00000  Uiso   1.00
O1039  O     0.16666   0.43988   0.79372   0.00000  Uiso   1.00
O1040  O     0.16667   0.56012   0.87294   0.00000  Uiso   1.00
O1041  O     0.09161   0.50000   0.86379   0.00000  Uiso   1.00
O1042  O     0.24172   0.50000   0.80288   0.00000  Uiso   1.00
O1043  O     0.09161   0.49999   0.78460   0.00000  Uiso   1.00
O1044  O     0.24172   0.50001   0.88207   0.00000  Uiso   1.00
N1045  N     0.10015   0.44742   0.70652   0.00000  Uiso   1.00
H1046  H     0.10823   0.41690   0.70111   0.00000  Uiso   1.00
C1047  C     0.04585   0.45615   0.69329   0.00000  Uiso   1.00
H1048  H     0.02285   0.43698   0.71476   0.00000  Uiso   1.00
H1049  H     0.03342   0.44890   0.98872   0.00000  Uiso   1.00
H1050  H     0.03795   0.48905   0.69988   0.00000  Uiso   1.00
N1051  N     0.23319   0.55258   0.96015   0.00000  Uiso   1.00
H1052  H     0.22511   0.58310   0.96556   0.00000  Uiso   1.00
C1053  C     0.28748   0.54385   0.97338   0.00000  Uiso   1.00
H1054  H     0.31048   0.56302   0.95190   0.00000  Uiso   1.00
H1055  H     0.29538   0.51094   0.96679   0.00000  Uiso   1.00
H1056  H     0.29992   0.55111   0.67795   0.00000  Uiso   1.00
C1057  C     0.49994   0.42071   0.83327   0.00000  Uiso   1.00
C1058  C     0.50006   0.57929   0.83340   0.00000  Uiso   1.00
C1059  C     0.40123   0.49998   0.82118   0.00000  Uiso   1.00
C1060  C     0.59877   0.50002   0.84549   0.00000  Uiso   1.00
C1061  C     0.34586   0.50003   0.81455   0.00000  Uiso   1.00
C1062  C     0.65414   0.49997   0.85211   0.00000  Uiso   1.00
C1063  C     0.50244   0.35450   0.79123   0.00000  Uiso   1.00
C1064  C     0.49756   0.64549   0.87543   0.00000  Uiso   1.00
C1065  C     0.50250   0.64526   0.79130   0.00000  Uiso   1.00
C1066  C     0.49750   0.35474   0.87537   0.00000  Uiso   1.00
C1067  C     0.50006   0.62391   0.83340   0.00000  Uiso   1.00
C1068  C     0.49994   0.37609   0.83326   0.00000  Uiso   1.00
C1069  C     0.46736   0.47449   0.68689   0.00000  Uiso   1.00
C1070  C     0.53264   0.52551   0.97978   0.00000  Uiso   1.00
C1071  C     0.46799   0.47436   0.97065   0.00000  Uiso   1.00
C1072  C     0.53201   0.52564   0.69602   0.00000  Uiso   1.00
Cu1073 Cu    0.50000   0.50001   0.88022   0.00000  Uiso   1.00
Cu1074 Cu    0.50000   0.49999   0.78645   0.00000  Uiso   1.00
H1075  H     0.65897   0.50016   0.77862   0.00000  Uiso   1.00
H1076  H     0.34103   0.49984   0.88805   0.00000  Uiso   1.00
H1077  H     0.50449   0.37041   0.75836   0.00000  Uiso   1.00
H1078  H     0.49551   0.62958   0.90831   0.00000  Uiso   1.00
H1079  H     0.50456   0.62916   0.75844   0.00000  Uiso   1.00
H1080  H     0.49545   0.37084   0.90823   0.00000  Uiso   1.00
H1081  H     0.44267   0.45374   0.94818   0.00000  Uiso   1.00
H1082  H     0.55733   0.54626   0.71848   0.00000  Uiso   1.00
N1083  N     0.50001   0.50001   0.95069   0.00000  Uiso   1.00
N1084  N     0.49999   0.49999   0.71597   0.00000  Uiso   1.00
O1085  O     0.50000   0.43989   0.87291   0.00000  Uiso   1.00
O1086  O     0.50000   0.56011   0.79375   0.00000  Uiso   1.00
O1087  O     0.50000   0.43988   0.79372   0.00000  Uiso   1.00
O1088  O     0.50000   0.56012   0.87294   0.00000  Uiso   1.00
O1089  O     0.42495   0.50000   0.86379   0.00000  Uiso   1.00
O1090  O     0.57505   0.50000   0.80288   0.00000  Uiso   1.00
O1091  O     0.42494   0.49999   0.78460   0.00000  Uiso   1.00
O1092  O     0.57506   0.50001   0.88207   0.00000  Uiso   1.00
N1093  N     0.43348   0.44742   0.70652   0.00000  Uiso   1.00
H1094  H     0.44156   0.41690   0.70111   0.00000  Uiso   1.00
C1095  C     0.37918   0.45615   0.69329   0.00000  Uiso   1.00
H1096  H     0.35619   0.43698   0.71476   0.00000  Uiso   1.00
H1097  H     0.36675   0.44890   0.98872   0.00000  Uiso   1.00
H1098  H     0.37129   0.48905   0.69988   0.00000  Uiso   1.00
N1099  N     0.56652   0.55258   0.96015   0.00000  Uiso   1.00
H1100  H     0.55844   0.58310   0.96556   0.00000  Uiso   1.00
C1101  C     0.62082   0.54385   0.97338   0.00000  Uiso   1.00
H1102  H     0.64381   0.56302   0.95190   0.00000  Uiso   1.00
H1103  H     0.62871   0.51094   0.96679   0.00000  Uiso   1.00
H1104  H     0.63325   0.55111   0.67795   0.00000  Uiso   1.00
C1105  C     0.83327   0.42071   0.83327   0.00000  Uiso   1.00
C1106  C     0.83339   0.57929   0.83340   0.00000  Uiso   1.00
C1107  C     0.73457   0.49998   0.82118   0.00000  Uiso   1.00
C1108  C     0.93210   0.50002   0.84549   0.00000  Uiso   1.00
C1109  C     0.67919   0.50003   0.81455   0.00000  Uiso   1.00
C1110  C     0.98748   0.49997   0.85211   0.00000  Uiso   1.00
C1111  C     0.83577   0.35450   0.79123   0.00000  Uiso   1.00
C1112  C     0.83090   0.64549   0.87543   0.00000  Uiso   1.00
C1113  C     0.83584   0.64526   0.79130   0.00000  Uiso   1.00
C1114  C     0.83083   0.35474   0.87537   0.00000  Uiso   1.00
C1115  C     0.83340   0.62391   0.83340   0.00000  Uiso   1.00
C1116  C     0.83327   0.37609   0.83326   0.00000  Uiso   1.00
C1117  C     0.80070   0.47449   0.68689   0.00000  Uiso   1.00
C1118  C     0.86597   0.52551   0.97978   0.00000  Uiso   1.00
C1119  C     0.80132   0.47436   0.97065   0.00000  Uiso   1.00
C1120  C     0.86535   0.52564   0.69602   0.00000  Uiso   1.00
Cu1121 Cu    0.83333   0.50001   0.88022   0.00000  Uiso   1.00
Cu1122 Cu    0.83333   0.49999   0.78645   0.00000  Uiso   1.00
H1123  H     0.99230   0.50016   0.77862   0.00000  Uiso   1.00
H1124  H     0.67436   0.49984   0.88805   0.00000  Uiso   1.00
H1125  H     0.83783   0.37041   0.75836   0.00000  Uiso   1.00
H1126  H     0.82884   0.62958   0.90831   0.00000  Uiso   1.00
H1127  H     0.83789   0.62916   0.75844   0.00000  Uiso   1.00
H1128  H     0.82878   0.37084   0.90823   0.00000  Uiso   1.00
H1129  H     0.77600   0.45374   0.94818   0.00000  Uiso   1.00
H1130  H     0.89066   0.54626   0.71848   0.00000  Uiso   1.00
N1131  N     0.83335   0.50001   0.95069   0.00000  Uiso   1.00
N1132  N     0.83332   0.49999   0.71597   0.00000  Uiso   1.00
O1133  O     0.83333   0.43989   0.87291   0.00000  Uiso   1.00
O1134  O     0.83334   0.56011   0.79375   0.00000  Uiso   1.00
O1135  O     0.83333   0.43988   0.79372   0.00000  Uiso   1.00
O1136  O     0.83334   0.56012   0.87294   0.00000  Uiso   1.00
O1137  O     0.75828   0.50000   0.86379   0.00000  Uiso   1.00
O1138  O     0.90839   0.50000   0.80288   0.00000  Uiso   1.00
O1139  O     0.75828   0.49999   0.78460   0.00000  Uiso   1.00
O1140  O     0.90839   0.50001   0.88207   0.00000  Uiso   1.00
N1141  N     0.76681   0.44742   0.70652   0.00000  Uiso   1.00
H1142  H     0.77489   0.41690   0.70111   0.00000  Uiso   1.00
C1143  C     0.71252   0.45615   0.69329   0.00000  Uiso   1.00
H1144  H     0.68952   0.43698   0.71476   0.00000  Uiso   1.00
H1145  H     0.70008   0.44890   0.98872   0.00000  Uiso   1.00
H1146  H     0.70462   0.48905   0.69988   0.00000  Uiso   1.00
N1147  N     0.89985   0.55258   0.96015   0.00000  Uiso   1.00
H1148  H     0.89178   0.58310   0.96556   0.00000  Uiso   1.00
C1149  C     0.95415   0.54385   0.97338   0.00000  Uiso   1.00
H1150  H     0.97715   0.56302   0.95190   0.00000  Uiso   1.00
H1151  H     0.96205   0.51094   0.96679   0.00000  Uiso   1.00
H1152  H     0.96658   0.55111   0.67795   0.00000  Uiso   1.00
C1153  C     0.16661   0.75405   0.83327   0.00000  Uiso   1.00
C1154  C     0.16673   0.91262   0.83340   0.00000  Uiso   1.00
C1155  C     0.06790   0.83331   0.82118   0.00000  Uiso   1.00
C1156  C     0.26543   0.83336   0.84549   0.00000  Uiso   1.00
C1157  C     0.01252   0.83336   0.81455   0.00000  Uiso   1.00
C1158  C     0.32081   0.83330   0.85211   0.00000  Uiso   1.00
C1159  C     0.16910   0.68784   0.79123   0.00000  Uiso   1.00
C1160  C     0.16423   0.97883   0.87543   0.00000  Uiso   1.00
C1161  C     0.16917   0.97859   0.79130   0.00000  Uiso   1.00
C1162  C     0.16417   0.68807   0.87537   0.00000  Uiso   1.00
C1163  C     0.16673   0.95725   0.83340   0.00000  Uiso   1.00
C1164  C     0.16660   0.70942   0.83326   0.00000  Uiso   1.00
C1165  C     0.13403   0.80783   0.68689   0.00000  Uiso   1.00
C1166  C     0.19930   0.85884   0.97978   0.00000  Uiso   1.00
C1167  C     0.13465   0.80769   0.97065   0.00000  Uiso   1.00
C1168  C     0.19868   0.85897   0.69602   0.00000  Uiso   1.00
Cu1169 Cu    0.16667   0.83334   0.88022   0.00000  Uiso   1.00
Cu1170 Cu    0.16667   0.83333   0.78645   0.00000  Uiso   1.00
H1171  H     0.32564   0.83349   0.77862   0.00000  Uiso   1.00
H1172  H     0.00770   0.83317   0.88805   0.00000  Uiso   1.00
H1173  H     0.17116   0.70375   0.75836   0.00000  Uiso   1.00
H1174  H     0.16217   0.96292   0.90831   0.00000  Uiso   1.00
H1175  H     0.17122   0.96250   0.75844   0.00000  Uiso   1.00
H1176  H     0.16211   0.70417   0.90823   0.00000  Uiso   1.00
H1177  H     0.10934   0.78707   0.94818   0.00000  Uiso   1.00
H1178  H     0.22400   0.87960   0.71848   0.00000  Uiso   1.00
N1179  N     0.16668   0.83334   0.95069   0.00000  Uiso   1.00
N1180  N     0.16665   0.83332   0.71597   0.00000  Uiso   1.00
O1181  O     0.16666   0.77322   0.87291   0.00000  Uiso   1.00
O1182  O     0.16667   0.89345   0.79375   0.00000  Uiso   1.00
O1183  O     0.16666   0.77321   0.79372   0.00000  Uiso   1.00
O1184  O     0.16667   0.89346   0.87294   0.00000  Uiso   1.00
O1185  O     0.09161   0.83334   0.86379   0.00000  Uiso   1.00
O1186  O     0.24172   0.83333   0.80288   0.00000  Uiso   1.00
O1187  O     0.09161   0.83333   0.78460   0.00000  Uiso   1.00
O1188  O     0.24172   0.83334   0.88207   0.00000  Uiso   1.00
N1189  N     0.10015   0.78075   0.70652   0.00000  Uiso   1.00
H1190  H     0.10823   0.75023   0.70111   0.00000  Uiso   1.00
C1191  C     0.04585   0.78949   0.69329   0.00000  Uiso   1.00
H1192  H     0.02285   0.77032   0.71476   0.00000  Uiso   1.00
H1193  H     0.03342   0.78223   0.98872   0.00000  Uiso   1.00
H1194  H     0.03795   0.82239   0.69988   0.00000  Uiso   1.00
N1195  N     0.23319   0.88591   0.96015   0.00000  Uiso   1.00
H1196  H     0.22511   0.91643   0.96556   0.00000  Uiso   1.00
C1197  C     0.28748   0.87718   0.97338   0.00000  Uiso   1.00
H1198  H     0.31048   0.89635   0.95190   0.00000  Uiso   1.00
H1199  H     0.29538   0.84428   0.96679   0.00000  Uiso   1.00
H1200  H     0.29992   0.88444   0.67795   0.00000  Uiso   1.00
C1201  C     0.49994   0.75405   0.83327   0.00000  Uiso   1.00
C1202  C     0.50006   0.91262   0.83340   0.00000  Uiso   1.00
C1203  C     0.40123   0.83331   0.82118   0.00000  Uiso   1.00
C1204  C     0.59877   0.83336   0.84549   0.00000  Uiso   1.00
C1205  C     0.34586   0.83336   0.81455   0.00000  Uiso   1.00
C1206  C     0.65414   0.83330   0.85211   0.00000  Uiso   1.00
C1207  C     0.50244   0.68784   0.79123   0.00000  Uiso   1.00
C1208  C     0.49756   0.97883   0.87543   0.00000  Uiso   1.00
C1209  C     0.50250   0.97859   0.79130   0.00000  Uiso   1.00
C1210  C     0.49750   0.68807   0.87537   0.00000  Uiso   1.00
C1211  C     0.50006   0.95725   0.83340   0.00000  Uiso   1.00
C1212  C     0.49994   0.70942   0.83326   0.00000  Uiso   1.00
C1213  C     0.46736   0.80783   0.68689   0.00000  Uiso   1.00
C1214  C     0.53264   0.85884   0.97978   0.00000  Uiso   1.00
C1215  C     0.46799   0.80769   0.97065   0.00000  Uiso   1.00
C1216  C     0.53201   0.85897   0.69602   0.00000  Uiso   1.00
Cu1217 Cu    0.50000   0.83334   0.88022   0.00000  Uiso   1.00
Cu1218 Cu    0.50000   0.83333   0.78645   0.00000  Uiso   1.00
H1219  H     0.65897   0.83349   0.77862   0.00000  Uiso   1.00
H1220  H     0.34103   0.83317   0.88805   0.00000  Uiso   1.00
H1221  H     0.50449   0.70375   0.75836   0.00000  Uiso   1.00
H1222  H     0.49551   0.96292   0.90831   0.00000  Uiso   1.00
H1223  H     0.50456   0.96250   0.75844   0.00000  Uiso   1.00
H1224  H     0.49545   0.70417   0.90823   0.00000  Uiso   1.00
H1225  H     0.44267   0.78707   0.94818   0.00000  Uiso   1.00
H1226  H     0.55733   0.87960   0.71848   0.00000  Uiso   1.00
N1227  N     0.50001   0.83334   0.95069   0.00000  Uiso   1.00
N1228  N     0.49999   0.83332   0.71597   0.00000  Uiso   1.00
O1229  O     0.50000   0.77322   0.87291   0.00000  Uiso   1.00
O1230  O     0.50000   0.89345   0.79375   0.00000  Uiso   1.00
O1231  O     0.50000   0.77321   0.79372   0.00000  Uiso   1.00
O1232  O     0.50000   0.89346   0.87294   0.00000  Uiso   1.00
O1233  O     0.42495   0.83334   0.86379   0.00000  Uiso   1.00
O1234  O     0.57505   0.83333   0.80288   0.00000  Uiso   1.00
O1235  O     0.42494   0.83333   0.78460   0.00000  Uiso   1.00
O1236  O     0.57506   0.83334   0.88207   0.00000  Uiso   1.00
N1237  N     0.43348   0.78075   0.70652   0.00000  Uiso   1.00
H1238  H     0.44156   0.75023   0.70111   0.00000  Uiso   1.00
C1239  C     0.37918   0.78949   0.69329   0.00000  Uiso   1.00
H1240  H     0.35619   0.77032   0.71476   0.00000  Uiso   1.00
H1241  H     0.36675   0.78223   0.98872   0.00000  Uiso   1.00
H1242  H     0.37129   0.82239   0.69988   0.00000  Uiso   1.00
N1243  N     0.56652   0.88591   0.96015   0.00000  Uiso   1.00
H1244  H     0.55844   0.91643   0.96556   0.00000  Uiso   1.00
C1245  C     0.62082   0.87718   0.97338   0.00000  Uiso   1.00
H1246  H     0.64381   0.89635   0.95190   0.00000  Uiso   1.00
H1247  H     0.62871   0.84428   0.96679   0.00000  Uiso   1.00
H1248  H     0.63325   0.88444   0.67795   0.00000  Uiso   1.00
C1249  C     0.83327   0.75405   0.83327   0.00000  Uiso   1.00
C1250  C     0.83339   0.91262   0.83340   0.00000  Uiso   1.00
C1251  C     0.73457   0.83331   0.82118   0.00000  Uiso   1.00
C1252  C     0.93210   0.83336   0.84549   0.00000  Uiso   1.00
C1253  C     0.67919   0.83336   0.81455   0.00000  Uiso   1.00
C1254  C     0.98748   0.83330   0.85211   0.00000  Uiso   1.00
C1255  C     0.83577   0.68784   0.79123   0.00000  Uiso   1.00
C1256  C     0.83090   0.97883   0.87543   0.00000  Uiso   1.00
C1257  C     0.83584   0.97859   0.79130   0.00000  Uiso   1.00
C1258  C     0.83083   0.68807   0.87537   0.00000  Uiso   1.00
C1259  C     0.83340   0.95725   0.83340   0.00000  Uiso   1.00
C1260  C     0.83327   0.70942   0.83326   0.00000  Uiso   1.00
C1261  C     0.80070   0.80783   0.68689   0.00000  Uiso   1.00
C1262  C     0.86597   0.85884   0.97978   0.00000  Uiso   1.00
C1263  C     0.80132   0.80769   0.97065   0.00000  Uiso   1.00
C1264  C     0.86535   0.85897   0.69602   0.00000  Uiso   1.00
Cu1265 Cu    0.83333   0.83334   0.88022   0.00000  Uiso   1.00
Cu1266 Cu    0.83333   0.83333   0.78645   0.00000  Uiso   1.00
H1267  H     0.99230   0.83349   0.77862   0.00000  Uiso   1.00
H1268  H     0.67436   0.83317   0.88805   0.00000  Uiso   1.00
H1269  H     0.83783   0.70375   0.75836   0.00000  Uiso   1.00
H1270  H     0.82884   0.96292   0.90831   0.00000  Uiso   1.00
H1271  H     0.83789   0.96250   0.75844   0.00000  Uiso   1.00
H1272  H     0.82878   0.70417   0.90823   0.00000  Uiso   1.00
H1273  H     0.77600   0.78707   0.94818   0.00000  Uiso   1.00
H1274  H     0.89066   0.87960   0.71848   0.00000  Uiso   1.00
N1275  N     0.83335   0.83334   0.95069   0.00000  Uiso   1.00
N1276  N     0.83332   0.83332   0.71597   0.00000  Uiso   1.00
O1277  O     0.83333   0.77322   0.87291   0.00000  Uiso   1.00
O1278  O     0.83334   0.89345   0.79375   0.00000  Uiso   1.00
O1279  O     0.83333   0.77321   0.79372   0.00000  Uiso   1.00
O1280  O     0.83334   0.89346   0.87294   0.00000  Uiso   1.00
O1281  O     0.75828   0.83334   0.86379   0.00000  Uiso   1.00
O1282  O     0.90839   0.83333   0.80288   0.00000  Uiso   1.00
O1283  O     0.75828   0.83333   0.78460   0.00000  Uiso   1.00
O1284  O     0.90839   0.83334   0.88207   0.00000  Uiso   1.00
N1285  N     0.76681   0.78075   0.70652   0.00000  Uiso   1.00
H1286  H     0.77489   0.75023   0.70111   0.00000  Uiso   1.00
C1287  C     0.71252   0.78949   0.69329   0.00000  Uiso   1.00
H1288  H     0.68952   0.77032   0.71476   0.00000  Uiso   1.00
H1289  H     0.70008   0.78223   0.98872   0.00000  Uiso   1.00
H1290  H     0.70462   0.82239   0.69988   0.00000  Uiso   1.00
N1291  N     0.89985   0.88591   0.96015   0.00000  Uiso   1.00
H1292  H     0.89178   0.91643   0.96556   0.00000  Uiso   1.00
C1293  C     0.95415   0.87718   0.97338   0.00000  Uiso   1.00
H1294  H     0.97715   0.89635   0.95190   0.00000  Uiso   1.00
H1295  H     0.96205   0.84428   0.96679   0.00000  Uiso   1.00
H1296  H     0.96658   0.88444   0.67795   0.00000  Uiso   1.00
loop_
_geom_bond_atom_site_label_1
_geom_bond_atom_site_label_2
_geom_bond_distance
_geom_bond_site_symmetry_2
_ccdc_geom_bond_type
C1     O29     1.293   .     A
C1     C12     1.450   .     S
C1     O31     1.294   .     A
C2     O30     1.293   .     A
C2     C11     1.450   .     S
C2     O32     1.294   .     A
C3     O35     1.292   .     A
C3     O33     1.287   .     A
C3     C5      1.435   .     S
C4     O36     1.292   .     A
C4     O34     1.287   .     A
C4     C6      1.435   .     S
C5     C102    1.338   1_455 S
C5     H115    1.087   1_455 S
C6     C53     1.338   .     S
C6     H68     1.087   .     S
C7     C12     1.401   .     A
C7     H21     1.083   .     S
C7     C297    1.384   1_545 S
C8     H22     1.083   .     S
C8     C11     1.401   .     A
C8     C154    1.383   .     S
C9     C11     1.402   .     A
C9     H23     1.083   .     S
C9     C151    1.384   .     S
C10    C12     1.402   .     A
C10    H24     1.083   .     S
C10    C296    1.383   1_545 S
C13    N28     1.375   .     A
C13    N37     1.419   .     S
C13    C879    1.422   1_554 S
C14    N27     1.375   .     A
C14    N43     1.419   .     S
C14    C448    1.422   .     S
C15    N27     1.362   .     A
C15    H25     1.082   .     S
C15    C445    1.422   .     S
C16    N28     1.362   .     A
C16    H26     1.082   .     S
C16    C878    1.422   1_554 S
Cu17   O36     1.958   .     S
Cu17   Cu18    2.684   .     S
Cu17   O33     1.954   .     S
Cu17   N27     2.017   .     S
Cu17   O29     1.964   .     S
Cu17   O32     1.965   .     S
Cu18   O35     1.958   .     S
Cu18   N28     2.017   .     S
Cu18   O34     1.954   .     S
Cu18   O30     1.964   .     S
Cu18   O31     1.965   .     S
H19    C53     1.087   .     S
H20    C102    1.087   1_455 S
N37    H38     1.031   .     S
N37    C39     1.448   .     S
C39    H42     1.111   .     S
C39    H40     1.110   .     S
C39    H905    1.111   1_554 S
H41    C471    1.111   .     S
N43    H44     1.031   .     S
N43    C45     1.448   .     S
C45    H46     1.110   .     S
C45    H47     1.111   .     S
C45    H480    1.111   .     S
H48    C909    1.111   1_554 S
C49    O77     1.293   .     A
C49    C60     1.450   .     S
C49    O79     1.294   .     A
C50    O78     1.293   .     A
C50    C59     1.450   .     S
C50    O80     1.294   .     A
C51    O83     1.292   .     A
C51    O81     1.287   .     A
C51    C53     1.435   .     S
C52    O84     1.292   .     A
C52    O82     1.287   .     A
C52    C54     1.435   .     S
C54    C101    1.338   .     S
C54    H116    1.087   .     S
C55    C60     1.401   .     A
C55    H69     1.083   .     S
C55    C345    1.384   1_545 S
C56    H70     1.083   .     S
C56    C59     1.401   .     A
C56    C202    1.383   .     S
C57    C59     1.402   .     A
C57    H71     1.083   .     S
C57    C199    1.384   .     S
C58    C60     1.402   .     A
C58    H72     1.083   .     S
C58    C344    1.383   1_545 S
C61    N76     1.375   .     A
C61    N85     1.419   .     S
C61    C927    1.422   1_554 S
C62    N75     1.375   .     A
C62    N91     1.419   .     S
C62    C496    1.422   .     S
C63    N75     1.362   .     A
C63    H73     1.082   .     S
C63    C493    1.422   .     S
C64    N76     1.362   .     A
C64    H74     1.082   .     S
C64    C926    1.422   1_554 S
Cu65   O84     1.958   .     S
Cu65   Cu66    2.684   .     S
Cu65   O81     1.954   .     S
Cu65   N75     2.017   .     S
Cu65   O77     1.964   .     S
Cu65   O80     1.965   .     S
Cu66   O83     1.958   .     S
Cu66   N76     2.017   .     S
Cu66   O82     1.954   .     S
Cu66   O78     1.964   .     S
Cu66   O79     1.965   .     S
H67    C101    1.087   .     S
N85    H86     1.031   .     S
N85    C87     1.448   .     S
C87    H90     1.111   .     S
C87    H88     1.110   .     S
C87    H953    1.111   1_554 S
H89    C519    1.111   .     S
N91    H92     1.031   .     S
N91    C93     1.448   .     S
C93    H94     1.110   .     S
C93    H95     1.111   .     S
C93    H528    1.111   .     S
H96    C957    1.111   1_554 S
C97    O125    1.293   .     A
C97    C108    1.450   .     S
C97    O127    1.294   .     A
C98    O126    1.293   .     A
C98    C107    1.450   .     S
C98    O128    1.294   .     A
C99    O131    1.292   .     A
C99    O129    1.287   .     A
C99    C101    1.435   .     S
C100   O132    1.292   .     A
C100   O130    1.287   .     A
C100   C102    1.435   .     S
C102   C5      1.338   1_655 S
C102   H20     1.087   1_655 S
C103   C108    1.401   .     A
C103   H117    1.083   .     S
C103   C393    1.384   1_545 S
C104   H118    1.083   .     S
C104   C107    1.401   .     A
C104   C250    1.383   .     S
C105   C107    1.402   .     A
C105   H119    1.083   .     S
C105   C247    1.384   .     S
C106   C108    1.402   .     A
C106   H120    1.083   .     S
C106   C392    1.383   1_545 S
C109   N124    1.375   .     A
C109   N133    1.419   .     S
C109   C975    1.422   1_554 S
C110   N123    1.375   .     A
C110   N139    1.419   .     S
C110   C544    1.422   .     S
C111   N123    1.362   .     A
C111   H121    1.082   .     S
C111   C541    1.422   .     S
C112   N124    1.362   .     A
C112   H122    1.082   .     S
C112   C974    1.422   1_554 S
Cu113  O132    1.958   .     S
Cu113  Cu114   2.684   .     S
Cu113  O129    1.954   .     S
Cu113  N123    2.017   .     S
Cu113  O125    1.964   .     S
Cu113  O128    1.965   .     S
Cu114  O131    1.958   .     S
Cu114  N124    2.017   .     S
Cu114  O130    1.954   .     S
Cu114  O126    1.964   .     S
Cu114  O127    1.965   .     S
H115   C5      1.087   1_655 S
N133   H134    1.031   .     S
N133   C135    1.448   .     S
C135   H138    1.111   .     S
C135   H136    1.110   .     S
C135   H1001   1.111   1_554 S
H137   C567    1.111   .     S
N139   H140    1.031   .     S
N139   C141    1.448   .     S
C141   H142    1.110   .     S
C141   H143    1.111   .     S
C141   H576    1.111   .     S
H144   C1005   1.111   1_554 S
C145   O173    1.293   .     A
C145   C156    1.450   .     S
C145   O175    1.294   .     A
C146   O174    1.293   .     A
C146   C155    1.450   .     S
C146   O176    1.294   .     A
C147   O179    1.292   .     A
C147   O177    1.287   .     A
C147   C149    1.435   .     S
C148   O180    1.292   .     A
C148   O178    1.287   .     A
C148   C150    1.435   .     S
C149   C246    1.338   1_455 S
C149   H259    1.087   1_455 S
C150   C197    1.338   .     S
C150   H212    1.087   .     S
C151   C156    1.401   .     A
C151   H165    1.083   .     S
C152   H166    1.083   .     S
C152   C155    1.401   .     A
C152   C298    1.383   .     S
C153   C155    1.402   .     A
C153   H167    1.083   .     S
C153   C295    1.384   .     S
C154   C156    1.402   .     A
C154   H168    1.083   .     S
C157   N172    1.375   .     A
C157   N181    1.419   .     S
C157   C1023   1.422   1_554 S
C158   N171    1.375   .     A
C158   N187    1.419   .     S
C158   C592    1.422   .     S
C159   N171    1.362   .     A
C159   H169    1.082   .     S
C159   C589    1.422   .     S
C160   N172    1.362   .     A
C160   H170    1.082   .     S
C160   C1022   1.422   1_554 S
Cu161  O180    1.958   .     S
Cu161  Cu162   2.684   .     S
Cu161  O177    1.954   .     S
Cu161  N171    2.017   .     S
Cu161  O173    1.964   .     S
Cu161  O176    1.965   .     S
Cu162  O179    1.958   .     S
Cu162  N172    2.017   .     S
Cu162  O178    1.954   .     S
Cu162  O174    1.964   .     S
Cu162  O175    1.965   .     S
H163   C197    1.087   .     S
H164   C246    1.087   1_455 S
N181   H182    1.031   .     S
N181   C183    1.448   .     S
C183   H186    1.111   .     S
C183   H184    1.110   .     S
C183   H1049   1.111   1_554 S
H185   C615    1.111   .     S
N187   H188    1.031   .     S
N187   C189    1.448   .     S
C189   H190    1.110   .     S
C189   H191    1.111   .     S
C189   H624    1.111   .     S
H192   C1053   1.111   1_554 S
C193   O221    1.293   .     A
C193   C204    1.450   .     S
C193   O223    1.294   .     A
C194   O222    1.293   .     A
C194   C203    1.450   .     S
C194   O224    1.294   .     A
C195   O227    1.292   .     A
C195   O225    1.287   .     A
C195   C197    1.435   .     S
C196   O228    1.292   .     A
C196   O226    1.287   .     A
C196   C198    1.435   .     S
C198   C245    1.338   .     S
C198   H260    1.087   .     S
C199   C204    1.401   .     A
C199   H213    1.083   .     S
C200   H214    1.083   .     S
C200   C203    1.401   .     A
C200   C346    1.383   .     S
C201   C203    1.402   .     A
C201   H215    1.083   .     S
C201   C343    1.384   .     S
C202   C204    1.402   .     A
C202   H216    1.083   .     S
C205   N220    1.375   .     A
C205   N229    1.419   .     S
C205   C1071   1.422   1_554 S
C206   N219    1.375   .     A
C206   N235    1.419   .     S
C206   C640    1.422   .     S
C207   N219    1.362   .     A
C207   H217    1.082   .     S
C207   C637    1.422   .     S
C208   N220    1.362   .     A
C208   H218    1.082   .     S
C208   C1070   1.422   1_554 S
Cu209  O228    1.958   .     S
Cu209  Cu210   2.684   .     S
Cu209  O225    1.954   .     S
Cu209  N219    2.017   .     S
Cu209  O221    1.964   .     S
Cu209  O224    1.965   .     S
Cu210  O227    1.958   .     S
Cu210  N220    2.017   .     S
Cu210  O226    1.954   .     S
Cu210  O222    1.964   .     S
Cu210  O223    1.965   .     S
H211   C245    1.087   .     S
N229   H230    1.031   .     S
N229   C231    1.448   .     S
C231   H234    1.111   .     S
C231   H232    1.110   .     S
C231   H1097   1.111   1_554 S
H233   C663    1.111   .     S
N235   H236    1.031   .     S
N235   C237    1.448   .     S
C237   H238    1.110   .     S
C237   H239    1.111   .     S
C237   H672    1.111   .     S
H240   C1101   1.111   1_554 S
C241   O269    1.293   .     A
C241   C252    1.450   .     S
C241   O271    1.294   .     A
C242   O270    1.293   .     A
C242   C251    1.450   .     S
C242   O272    1.294   .     A
C243   O275    1.292   .     A
C243   O273    1.287   .     A
C243   C245    1.435   .     S
C244   O276    1.292   .     A
C244   O274    1.287   .     A
C244   C246    1.435   .     S
C246   C149    1.338   1_655 S
C246   H164    1.087   1_655 S
C247   C252    1.401   .     A
C247   H261    1.083   .     S
C248   H262    1.083   .     S
C248   C251    1.401   .     A
C248   C394    1.383   .     S
C249   C251    1.402   .     A
C249   H263    1.083   .     S
C249   C391    1.384   .     S
C250   C252    1.402   .     A
C250   H264    1.083   .     S
C253   N268    1.375   .     A
C253   N277    1.419   .     S
C253   C1119   1.422   1_554 S
C254   N267    1.375   .     A
C254   N283    1.419   .     S
C254   C688    1.422   .     S
C255   N267    1.362   .     A
C255   H265    1.082   .     S
C255   C685    1.422   .     S
C256   N268    1.362   .     A
C256   H266    1.082   .     S
C256   C1118   1.422   1_554 S
Cu257  O276    1.958   .     S
Cu257  Cu258   2.684   .     S
Cu257  O273    1.954   .     S
Cu257  N267    2.017   .     S
Cu257  O269    1.964   .     S
Cu257  O272    1.965   .     S
Cu258  O275    1.958   .     S
Cu258  N268    2.017   .     S
Cu258  O274    1.954   .     S
Cu258  O270    1.964   .     S
Cu258  O271    1.965   .     S
H259   C149    1.087   1_655 S
N277   H278    1.031   .     S
N277   C279    1.448   .     S
C279   H282    1.111   .     S
C279   H280    1.110   .     S
C279   H1145   1.111   1_554 S
H281   C711    1.111   .     S
N283   H284    1.031   .     S
N283   C285    1.448   .     S
C285   H286    1.110   .     S
C285   H287    1.111   .     S
C285   H720    1.111   .     S
H288   C1149   1.111   1_554 S
C289   O317    1.293   .     A
C289   C300    1.450   .     S
C289   O319    1.294   .     A
C290   O318    1.293   .     A
C290   C299    1.450   .     S
C290   O320    1.294   .     A
C291   O323    1.292   .     A
C291   O321    1.287   .     A
C291   C293    1.435   .     S
C292   O324    1.292   .     A
C292   O322    1.287   .     A
C292   C294    1.435   .     S
C293   C390    1.338   1_455 S
C293   H403    1.087   1_455 S
C294   C341    1.338   .     S
C294   H356    1.087   .     S
C295   C300    1.401   .     A
C295   H309    1.083   .     S
C296   H310    1.083   .     S
C296   C299    1.401   .     A
C296   C10     1.383   1_565 S
C297   C299    1.402   .     A
C297   H311    1.083   .     S
C297   C7      1.384   1_565 S
C298   C300    1.402   .     A
C298   H312    1.083   .     S
C301   N316    1.375   .     A
C301   N325    1.419   .     S
C301   C1167   1.422   1_554 S
C302   N315    1.375   .     A
C302   N331    1.419   .     S
C302   C736    1.422   .     S
C303   N315    1.362   .     A
C303   H313    1.082   .     S
C303   C733    1.422   .     S
C304   N316    1.362   .     A
C304   H314    1.082   .     S
C304   C1166   1.422   1_554 S
Cu305  O324    1.958   .     S
Cu305  Cu306   2.684   .     S
Cu305  O321    1.954   .     S
Cu305  N315    2.017   .     S
Cu305  O317    1.964   .     S
Cu305  O320    1.965   .     S
Cu306  O323    1.958   .     S
Cu306  N316    2.017   .     S
Cu306  O322    1.954   .     S
Cu306  O318    1.964   .     S
Cu306  O319    1.965   .     S
H307   C341    1.087   .     S
H308   C390    1.087   1_455 S
N325   H326    1.031   .     S
N325   C327    1.448   .     S
C327   H330    1.111   .     S
C327   H328    1.110   .     S
C327   H1193   1.111   1_554 S
H329   C759    1.111   .     S
N331   H332    1.031   .     S
N331   C333    1.448   .     S
C333   H334    1.110   .     S
C333   H335    1.111   .     S
C333   H768    1.111   .     S
H336   C1197   1.111   1_554 S
C337   O365    1.293   .     A
C337   C348    1.450   .     S
C337   O367    1.294   .     A
C338   O366    1.293   .     A
C338   C347    1.450   .     S
C338   O368    1.294   .     A
C339   O371    1.292   .     A
C339   O369    1.287   .     A
C339   C341    1.435   .     S
C340   O372    1.292   .     A
C340   O370    1.287   .     A
C340   C342    1.435   .     S
C342   C389    1.338   .     S
C342   H404    1.087   .     S
C343   C348    1.401   .     A
C343   H357    1.083   .     S
C344   H358    1.083   .     S
C344   C347    1.401   .     A
C344   C58     1.383   1_565 S
C345   C347    1.402   .     A
C345   H359    1.083   .     S
C345   C55     1.384   1_565 S
C346   C348    1.402   .     A
C346   H360    1.083   .     S
C349   N364    1.375   .     A
C349   N373    1.419   .     S
C349   C1215   1.422   1_554 S
C350   N363    1.375   .     A
C350   N379    1.419   .     S
C350   C784    1.422   .     S
C351   N363    1.362   .     A
C351   H361    1.082   .     S
C351   C781    1.422   .     S
C352   N364    1.362   .     A
C352   H362    1.082   .     S
C352   C1214   1.422   1_554 S
Cu353  O372    1.958   .     S
Cu353  Cu354   2.684   .     S
Cu353  O369    1.954   .     S
Cu353  N363    2.017   .     S
Cu353  O365    1.964   .     S
Cu353  O368    1.965   .     S
Cu354  O371    1.958   .     S
Cu354  N364    2.017   .     S
Cu354  O370    1.954   .     S
Cu354  O366    1.964   .     S
Cu354  O367    1.965   .     S
H355   C389    1.087   .     S
N373   H374    1.031   .     S
N373   C375    1.448   .     S
C375   H378    1.111   .     S
C375   H376    1.110   .     S
C375   H1241   1.111   1_554 S
H377   C807    1.111   .     S
N379   H380    1.031   .     S
N379   C381    1.448   .     S
C381   H382    1.110   .     S
C381   H383    1.111   .     S
C381   H816    1.111   .     S
H384   C1245   1.111   1_554 S
C385   O413    1.293   .     A
C385   C396    1.450   .     S
C385   O415    1.294   .     A
C386   O414    1.293   .     A
C386   C395    1.450   .     S
C386   O416    1.294   .     A
C387   O419    1.292   .     A
C387   O417    1.287   .     A
C387   C389    1.435   .     S
C388   O420    1.292   .     A
C388   O418    1.287   .     A
C388   C390    1.435   .     S
C390   C293    1.338   1_655 S
C390   H308    1.087   1_655 S
C391   C396    1.401   .     A
C391   H405    1.083   .     S
C392   H406    1.083   .     S
C392   C395    1.401   .     A
C392   C106    1.383   1_565 S
C393   C395    1.402   .     A
C393   H407    1.083   .     S
C393   C103    1.384   1_565 S
C394   C396    1.402   .     A
C394   H408    1.083   .     S
C397   N412    1.375   .     A
C397   N421    1.419   .     S
C397   C1263   1.422   1_554 S
C398   N411    1.375   .     A
C398   N427    1.419   .     S
C398   C832    1.422   .     S
C399   N411    1.362   .     A
C399   H409    1.082   .     S
C399   C829    1.422   .     S
C400   N412    1.362   .     A
C400   H410    1.082   .     S
C400   C1262   1.422   1_554 S
Cu401  O420    1.958   .     S
Cu401  Cu402   2.684   .     S
Cu401  O417    1.954   .     S
Cu401  N411    2.017   .     S
Cu401  O413    1.964   .     S
Cu401  O416    1.965   .     S
Cu402  O419    1.958   .     S
Cu402  N412    2.017   .     S
Cu402  O418    1.954   .     S
Cu402  O414    1.964   .     S
Cu402  O415    1.965   .     S
H403   C293    1.087   1_655 S
N421   H422    1.031   .     S
N421   C423    1.448   .     S
C423   H426    1.111   .     S
C423   H424    1.110   .     S
C423   H1289   1.111   1_554 S
H425   C855    1.111   .     S
N427   H428    1.031   .     S
N427   C429    1.448   .     S
C429   H430    1.110   .     S
C429   H431    1.111   .     S
C429   H864    1.111   .     S
H432   C1293   1.111   1_554 S
C433   O461    1.293   .     A
C433   C444    1.450   .     S
C433   O463    1.294   .     A
C434   O462    1.293   .     A
C434   C443    1.450   .     S
C434   O464    1.294   .     A
C435   O467    1.292   .     A
C435   O465    1.287   .     A
C435   C437    1.435   .     S
C436   O468    1.292   .     A
C436   O466    1.287   .     A
C436   C438    1.435   .     S
C437   C534    1.338   1_455 S
C437   H547    1.087   1_455 S
C438   C485    1.338   .     S
C438   H500    1.087   .     S
C439   C444    1.401   .     A
C439   H453    1.083   .     S
C439   C729    1.384   1_545 S
C440   H454    1.083   .     S
C440   C443    1.401   .     A
C440   C586    1.383   .     S
C441   C443    1.402   .     A
C441   H455    1.083   .     S
C441   C583    1.384   .     S
C442   C444    1.402   .     A
C442   H456    1.083   .     S
C442   C728    1.383   1_545 S
C445   N460    1.375   .     A
C445   N469    1.419   .     S
C446   N459    1.375   .     A
C446   N475    1.419   .     S
C446   C880    1.422   .     S
C447   N459    1.362   .     A
C447   H457    1.082   .     S
C447   C877    1.422   .     S
C448   N460    1.362   .     A
C448   H458    1.082   .     S
Cu449  O468    1.958   .     S
Cu449  Cu450   2.684   .     S
Cu449  O465    1.954   .     S
Cu449  N459    2.017   .     S
Cu449  O461    1.964   .     S
Cu449  O464    1.965   .     S
Cu450  O467    1.958   .     S
Cu450  N460    2.017   .     S
Cu450  O466    1.954   .     S
Cu450  O462    1.964   .     S
Cu450  O463    1.965   .     S
H451   C485    1.087   .     S
H452   C534    1.087   1_455 S
N469   H470    1.031   .     S
N469   C471    1.448   .     S
C471   H474    1.111   .     S
C471   H472    1.110   .     S
H473   C903    1.111   .     S
N475   H476    1.031   .     S
N475   C477    1.448   .     S
C477   H478    1.110   .     S
C477   H479    1.111   .     S
C477   H912    1.111   .     S
C481   O509    1.293   .     A
C481   C492    1.450   .     S
C481   O511    1.294   .     A
C482   O510    1.293   .     A
C482   C491    1.450   .     S
C482   O512    1.294   .     A
C483   O515    1.292   .     A
C483   O513    1.287   .     A
C483   C485    1.435   .     S
C484   O516    1.292   .     A
C484   O514    1.287   .     A
C484   C486    1.435   .     S
C486   C533    1.338   .     S
C486   H548    1.087   .     S
C487   C492    1.401   .     A
C487   H501    1.083   .     S
C487   C777    1.384   1_545 S
C488   H502    1.083   .     S
C488   C491    1.401   .     A
C488   C634    1.383   .     S
C489   C491    1.402   .     A
C489   H503    1.083   .     S
C489   C631    1.384   .     S
C490   C492    1.402   .     A
C490   H504    1.083   .     S
C490   C776    1.383   1_545 S
C493   N508    1.375   .     A
C493   N517    1.419   .     S
C494   N507    1.375   .     A
C494   N523    1.419   .     S
C494   C928    1.422   .     S
C495   N507    1.362   .     A
C495   H505    1.082   .     S
C495   C925    1.422   .     S
C496   N508    1.362   .     A
C496   H506    1.082   .     S
Cu497  O516    1.958   .     S
Cu497  Cu498   2.684   .     S
Cu497  O513    1.954   .     S
Cu497  N507    2.017   .     S
Cu497  O509    1.964   .     S
Cu497  O512    1.965   .     S
Cu498  O515    1.958   .     S
Cu498  N508    2.017   .     S
Cu498  O514    1.954   .     S
Cu498  O510    1.964   .     S
Cu498  O511    1.965   .     S
H499   C533    1.087   .     S
N517   H518    1.031   .     S
N517   C519    1.448   .     S
C519   H522    1.111   .     S
C519   H520    1.110   .     S
H521   C951    1.111   .     S
N523   H524    1.031   .     S
N523   C525    1.448   .     S
C525   H526    1.110   .     S
C525   H527    1.111   .     S
C525   H960    1.111   .     S
C529   O557    1.293   .     A
C529   C540    1.450   .     S
C529   O559    1.294   .     A
C530   O558    1.293   .     A
C530   C539    1.450   .     S
C530   O560    1.294   .     A
C531   O563    1.292   .     A
C531   O561    1.287   .     A
C531   C533    1.435   .     S
C532   O564    1.292   .     A
C532   O562    1.287   .     A
C532   C534    1.435   .     S
C534   C437    1.338   1_655 S
C534   H452    1.087   1_655 S
C535   C540    1.401   .     A
C535   H549    1.083   .     S
C535   C825    1.384   1_545 S
C536   H550    1.083   .     S
C536   C539    1.401   .     A
C536   C682    1.383   .     S
C537   C539    1.402   .     A
C537   H551    1.083   .     S
C537   C679    1.384   .     S
C538   C540    1.402   .     A
C538   H552    1.083   .     S
C538   C824    1.383   1_545 S
C541   N556    1.375   .     A
C541   N565    1.419   .     S
C542   N555    1.375   .     A
C542   N571    1.419   .     S
C542   C976    1.422   .     S
C543   N555    1.362   .     A
C543   H553    1.082   .     S
C543   C973    1.422   .     S
C544   N556    1.362   .     A
C544   H554    1.082   .     S
Cu545  O564    1.958   .     S
Cu545  Cu546   2.684   .     S
Cu545  O561    1.954   .     S
Cu545  N555    2.017   .     S
Cu545  O557    1.964   .     S
Cu545  O560    1.965   .     S
Cu546  O563    1.958   .     S
Cu546  N556    2.017   .     S
Cu546  O562    1.954   .     S
Cu546  O558    1.964   .     S
Cu546  O559    1.965   .     S
H547   C437    1.087   1_655 S
N565   H566    1.031   .     S
N565   C567    1.448   .     S
C567   H570    1.111   .     S
C567   H568    1.110   .     S
H569   C999    1.111   .     S
N571   H572    1.031   .     S
N571   C573    1.448   .     S
C573   H574    1.110   .     S
C573   H575    1.111   .     S
C573   H1008   1.111   .     S
C577   O605    1.293   .     A
C577   C588    1.450   .     S
C577   O607    1.294   .     A
C578   O606    1.293   .     A
C578   C587    1.450   .     S
C578   O608    1.294   .     A
C579   O611    1.292   .     A
C579   O609    1.287   .     A
C579   C581    1.435   .     S
C580   O612    1.292   .     A
C580   O610    1.287   .     A
C580   C582    1.435   .     S
C581   C678    1.338   1_455 S
C581   H691    1.087   1_455 S
C582   C629    1.338   .     S
C582   H644    1.087   .     S
C583   C588    1.401   .     A
C583   H597    1.083   .     S
C584   H598    1.083   .     S
C584   C587    1.401   .     A
C584   C730    1.383   .     S
C585   C587    1.402   .     A
C585   H599    1.083   .     S
C585   C727    1.384   .     S
C586   C588    1.402   .     A
C586   H600    1.083   .     S
C589   N604    1.375   .     A
C589   N613    1.419   .     S
C590   N603    1.375   .     A
C590   N619    1.419   .     S
C590   C1024   1.422   .     S
C591   N603    1.362   .     A
C591   H601    1.082   .     S
C591   C1021   1.422   .     S
C592   N604    1.362   .     A
C592   H602    1.082   .     S
Cu593  O612    1.958   .     S
Cu593  Cu594   2.684   .     S
Cu593  O609    1.954   .     S
Cu593  N603    2.017   .     S
Cu593  O605    1.964   .     S
Cu593  O608    1.965   .     S
Cu594  O611    1.958   .     S
Cu594  N604    2.017   .     S
Cu594  O610    1.954   .     S
Cu594  O606    1.964   .     S
Cu594  O607    1.965   .     S
H595   C629    1.087   .     S
H596   C678    1.087   1_455 S
N613   H614    1.031   .     S
N613   C615    1.448   .     S
C615   H618    1.111   .     S
C615   H616    1.110   .     S
H617   C1047   1.111   .     S
N619   H620    1.031   .     S
N619   C621    1.448   .     S
C621   H622    1.110   .     S
C621   H623    1.111   .     S
C621   H1056   1.111   .     S
C625   O653    1.293   .     A
C625   C636    1.450   .     S
C625   O655    1.294   .     A
C626   O654    1.293   .     A
C626   C635    1.450   .     S
C626   O656    1.294   .     A
C627   O659    1.292   .     A
C627   O657    1.287   .     A
C627   C629    1.435   .     S
C628   O660    1.292   .     A
C628   O658    1.287   .     A
C628   C630    1.435   .     S
C630   C677    1.338   .     S
C630   H692    1.087   .     S
C631   C636    1.401   .     A
C631   H645    1.083   .     S
C632   H646    1.083   .     S
C632   C635    1.401   .     A
C632   C778    1.383   .     S
C633   C635    1.402   .     A
C633   H647    1.083   .     S
C633   C775    1.384   .     S
C634   C636    1.402   .     A
C634   H648    1.083   .     S
C637   N652    1.375   .     A
C637   N661    1.419   .     S
C638   N651    1.375   .     A
C638   N667    1.419   .     S
C638   C1072   1.422   .     S
C639   N651    1.362   .     A
C639   H649    1.082   .     S
C639   C1069   1.422   .     S
C640   N652    1.362   .     A
C640   H650    1.082   .     S
Cu641  O660    1.958   .     S
Cu641  Cu642   2.684   .     S
Cu641  O657    1.954   .     S
Cu641  N651    2.017   .     S
Cu641  O653    1.964   .     S
Cu641  O656    1.965   .     S
Cu642  O659    1.958   .     S
Cu642  N652    2.017   .     S
Cu642  O658    1.954   .     S
Cu642  O654    1.964   .     S
Cu642  O655    1.965   .     S
H643   C677    1.087   .     S
N661   H662    1.031   .     S
N661   C663    1.448   .     S
C663   H666    1.111   .     S
C663   H664    1.110   .     S
H665   C1095   1.111   .     S
N667   H668    1.031   .     S
N667   C669    1.448   .     S
C669   H670    1.110   .     S
C669   H671    1.111   .     S
C669   H1104   1.111   .     S
C673   O701    1.293   .     A
C673   C684    1.450   .     S
C673   O703    1.294   .     A
C674   O702    1.293   .     A
C674   C683    1.450   .     S
C674   O704    1.294   .     A
C675   O707    1.292   .     A
C675   O705    1.287   .     A
C675   C677    1.435   .     S
C676   O708    1.292   .     A
C676   O706    1.287   .     A
C676   C678    1.435   .     S
C678   C581    1.338   1_655 S
C678   H596    1.087   1_655 S
C679   C684    1.401   .     A
C679   H693    1.083   .     S
C680   H694    1.083   .     S
C680   C683    1.401   .     A
C680   C826    1.383   .     S
C681   C683    1.402   .     A
C681   H695    1.083   .     S
C681   C823    1.384   .     S
C682   C684    1.402   .     A
C682   H696    1.083   .     S
C685   N700    1.375   .     A
C685   N709    1.419   .     S
C686   N699    1.375   .     A
C686   N715    1.419   .     S
C686   C1120   1.422   .     S
C687   N699    1.362   .     A
C687   H697    1.082   .     S
C687   C1117   1.422   .     S
C688   N700    1.362   .     A
C688   H698    1.082   .     S
Cu689  O708    1.958   .     S
Cu689  Cu690   2.684   .     S
Cu689  O705    1.954   .     S
Cu689  N699    2.017   .     S
Cu689  O701    1.964   .     S
Cu689  O704    1.965   .     S
Cu690  O707    1.958   .     S
Cu690  N700    2.017   .     S
Cu690  O706    1.954   .     S
Cu690  O702    1.964   .     S
Cu690  O703    1.965   .     S
H691   C581    1.087   1_655 S
N709   H710    1.031   .     S
N709   C711    1.448   .     S
C711   H714    1.111   .     S
C711   H712    1.110   .     S
H713   C1143   1.111   .     S
N715   H716    1.031   .     S
N715   C717    1.448   .     S
C717   H718    1.110   .     S
C717   H719    1.111   .     S
C717   H1152   1.111   .     S
C721   O749    1.293   .     A
C721   C732    1.450   .     S
C721   O751    1.294   .     A
C722   O750    1.293   .     A
C722   C731    1.450   .     S
C722   O752    1.294   .     A
C723   O755    1.292   .     A
C723   O753    1.287   .     A
C723   C725    1.435   .     S
C724   O756    1.292   .     A
C724   O754    1.287   .     A
C724   C726    1.435   .     S
C725   C822    1.338   1_455 S
C725   H835    1.087   1_455 S
C726   C773    1.338   .     S
C726   H788    1.087   .     S
C727   C732    1.401   .     A
C727   H741    1.083   .     S
C728   H742    1.083   .     S
C728   C731    1.401   .     A
C728   C442    1.383   1_565 S
C729   C731    1.402   .     A
C729   H743    1.083   .     S
C729   C439    1.384   1_565 S
C730   C732    1.402   .     A
C730   H744    1.083   .     S
C733   N748    1.375   .     A
C733   N757    1.419   .     S
C734   N747    1.375   .     A
C734   N763    1.419   .     S
C734   C1168   1.422   .     S
C735   N747    1.362   .     A
C735   H745    1.082   .     S
C735   C1165   1.422   .     S
C736   N748    1.362   .     A
C736   H746    1.082   .     S
Cu737  O756    1.958   .     S
Cu737  Cu738   2.684   .     S
Cu737  O753    1.954   .     S
Cu737  N747    2.017   .     S
Cu737  O749    1.964   .     S
Cu737  O752    1.965   .     S
Cu738  O755    1.958   .     S
Cu738  N748    2.017   .     S
Cu738  O754    1.954   .     S
Cu738  O750    1.964   .     S
Cu738  O751    1.965   .     S
H739   C773    1.087   .     S
H740   C822    1.087   1_455 S
N757   H758    1.031   .     S
N757   C759    1.448   .     S
C759   H762    1.111   .     S
C759   H760    1.110   .     S
H761   C1191   1.111   .     S
N763   H764    1.031   .     S
N763   C765    1.448   .     S
C765   H766    1.110   .     S
C765   H767    1.111   .     S
C765   H1200   1.111   .     S
C769   O797    1.293   .     A
C769   C780    1.450   .     S
C769   O799    1.294   .     A
C770   O798    1.293   .     A
C770   C779    1.450   .     S
C770   O800    1.294   .     A
C771   O803    1.292   .     A
C771   O801    1.287   .     A
C771   C773    1.435   .     S
C772   O804    1.292   .     A
C772   O802    1.287   .     A
C772   C774    1.435   .     S
C774   C821    1.338   .     S
C774   H836    1.087   .     S
C775   C780    1.401   .     A
C775   H789    1.083   .     S
C776   H790    1.083   .     S
C776   C779    1.401   .     A
C776   C490    1.383   1_565 S
C777   C779    1.402   .     A
C777   H791    1.083   .     S
C777   C487    1.384   1_565 S
C778   C780    1.402   .     A
C778   H792    1.083   .     S
C781   N796    1.375   .     A
C781   N805    1.419   .     S
C782   N795    1.375   .     A
C782   N811    1.419   .     S
C782   C1216   1.422   .     S
C783   N795    1.362   .     A
C783   H793    1.082   .     S
C783   C1213   1.422   .     S
C784   N796    1.362   .     A
C784   H794    1.082   .     S
Cu785  O804    1.958   .     S
Cu785  Cu786   2.684   .     S
Cu785  O801    1.954   .     S
Cu785  N795    2.017   .     S
Cu785  O797    1.964   .     S
Cu785  O800    1.965   .     S
Cu786  O803    1.958   .     S
Cu786  N796    2.017   .     S
Cu786  O802    1.954   .     S
Cu786  O798    1.964   .     S
Cu786  O799    1.965   .     S
H787   C821    1.087   .     S
N805   H806    1.031   .     S
N805   C807    1.448   .     S
C807   H810    1.111   .     S
C807   H808    1.110   .     S
H809   C1239   1.111   .     S
N811   H812    1.031   .     S
N811   C813    1.448   .     S
C813   H814    1.110   .     S
C813   H815    1.111   .     S
C813   H1248   1.111   .     S
C817   O845    1.293   .     A
C817   C828    1.450   .     S
C817   O847    1.294   .     A
C818   O846    1.293   .     A
C818   C827    1.450   .     S
C818   O848    1.294   .     A
C819   O851    1.292   .     A
C819   O849    1.287   .     A
C819   C821    1.435   .     S
C820   O852    1.292   .     A
C820   O850    1.287   .     A
C820   C822    1.435   .     S
C822   C725    1.338   1_655 S
C822   H740    1.087   1_655 S
C823   C828    1.401   .     A
C823   H837    1.083   .     S
C824   H838    1.083   .     S
C824   C827    1.401   .     A
C824   C538    1.383   1_565 S
C825   C827    1.402   .     A
C825   H839    1.083   .     S
C825   C535    1.384   1_565 S
C826   C828    1.402   .     A
C826   H840    1.083   .     S
C829   N844    1.375   .     A
C829   N853    1.419   .     S
C830   N843    1.375   .     A
C830   N859    1.419   .     S
C830   C1264   1.422   .     S
C831   N843    1.362   .     A
C831   H841    1.082   .     S
C831   C1261   1.422   .     S
C832   N844    1.362   .     A
C832   H842    1.082   .     S
Cu833  O852    1.958   .     S
Cu833  Cu834   2.684   .     S
Cu833  O849    1.954   .     S
Cu833  N843    2.017   .     S
Cu833  O845    1.964   .     S
Cu833  O848    1.965   .     S
Cu834  O851    1.958   .     S
Cu834  N844    2.017   .     S
Cu834  O850    1.954   .     S
Cu834  O846    1.964   .     S
Cu834  O847    1.965   .     S
H835   C725    1.087   1_655 S
N853   H854    1.031   .     S
N853   C855    1.448   .     S
C855   H858    1.111   .     S
C855   H856    1.110   .     S
H857   C1287   1.111   .     S
N859   H860    1.031   .     S
N859   C861    1.448   .     S
C861   H862    1.110   .     S
C861   H863    1.111   .     S
C861   H1296   1.111   .     S
C865   O893    1.293   .     A
C865   C876    1.450   .     S
C865   O895    1.294   .     A
C866   O894    1.293   .     A
C866   C875    1.450   .     S
C866   O896    1.294   .     A
C867   O899    1.292   .     A
C867   O897    1.287   .     A
C867   C869    1.435   .     S
C868   O900    1.292   .     A
C868   O898    1.287   .     A
C868   C870    1.435   .     S
C869   C966    1.338   1_455 S
C869   H979    1.087   1_455 S
C870   C917    1.338   .     S
C870   H932    1.087   .     S
C871   C876    1.401   .     A
C871   H885    1.083   .     S
C871   C1161   1.384   1_545 S
C872   H886    1.083   .     S
C872   C875    1.401   .     A
C872   C1018   1.383   .     S
C873   C875    1.402   .     A
C873   H887    1.083   .     S
C873   C1015   1.384   .     S
C874   C876    1.402   .     A
C874   H888    1.083   .     S
C874   C1160   1.383   1_545 S
C877   N892    1.375   .     A
C877   N901    1.419   .     S
C878   N891    1.375   .     A
C878   N907    1.419   .     S
C878   C16     1.422   1_556 S
C879   N891    1.362   .     A
C879   H889    1.082   .     S
C879   C13     1.422   1_556 S
C880   N892    1.362   .     A
C880   H890    1.082   .     S
Cu881  O900    1.958   .     S
Cu881  Cu882   2.684   .     S
Cu881  O897    1.954   .     S
Cu881  N891    2.017   .     S
Cu881  O893    1.964   .     S
Cu881  O896    1.965   .     S
Cu882  O899    1.958   .     S
Cu882  N892    2.017   .     S
Cu882  O898    1.954   .     S
Cu882  O894    1.964   .     S
Cu882  O895    1.965   .     S
H883   C917    1.087   .     S
H884   C966    1.087   1_455 S
N901   H902    1.031   .     S
N901   C903    1.448   .     S
C903   H906    1.111   .     S
C903   H904    1.110   .     S
H905   C39     1.111   1_556 S
N907   H908    1.031   .     S
N907   C909    1.448   .     S
C909   H910    1.110   .     S
C909   H911    1.111   .     S
C909   H48     1.111   1_556 S
C913   O941    1.293   .     A
C913   C924    1.450   .     S
C913   O943    1.294   .     A
C914   O942    1.293   .     A
C914   C923    1.450   .     S
C914   O944    1.294   .     A
C915   O947    1.292   .     A
C915   O945    1.287   .     A
C915   C917    1.435   .     S
C916   O948    1.292   .     A
C916   O946    1.287   .     A
C916   C918    1.435   .     S
C918   C965    1.338   .     S
C918   H980    1.087   .     S
C919   C924    1.401   .     A
C919   H933    1.083   .     S
C919   C1209   1.384   1_545 S
C920   H934    1.083   .     S
C920   C923    1.401   .     A
C920   C1066   1.383   .     S
C921   C923    1.402   .     A
C921   H935    1.083   .     S
C921   C1063   1.384   .     S
C922   C924    1.402   .     A
C922   H936    1.083   .     S
C922   C1208   1.383   1_545 S
C925   N940    1.375   .     A
C925   N949    1.419   .     S
C926   N939    1.375   .     A
C926   N955    1.419   .     S
C926   C64     1.422   1_556 S
C927   N939    1.362   .     A
C927   H937    1.082   .     S
C927   C61     1.422   1_556 S
C928   N940    1.362   .     A
C928   H938    1.082   .     S
Cu929  O948    1.958   .     S
Cu929  Cu930   2.684   .     S
Cu929  O945    1.954   .     S
Cu929  N939    2.017   .     S
Cu929  O941    1.964   .     S
Cu929  O944    1.965   .     S
Cu930  O947    1.958   .     S
Cu930  N940    2.017   .     S
Cu930  O946    1.954   .     S
Cu930  O942    1.964   .     S
Cu930  O943    1.965   .     S
H931   C965    1.087   .     S
N949   H950    1.031   .     S
N949   C951    1.448   .     S
C951   H954    1.111   .     S
C951   H952    1.110   .     S
H953   C87     1.111   1_556 S
N955   H956    1.031   .     S
N955   C957    1.448   .     S
C957   H958    1.110   .     S
C957   H959    1.111   .     S
C957   H96     1.111   1_556 S
C961   O989    1.293   .     A
C961   C972    1.450   .     S
C961   O991    1.294   .     A
C962   O990    1.293   .     A
C962   C971    1.450   .     S
C962   O992    1.294   .     A
C963   O995    1.292   .     A
C963   O993    1.287   .     A
C963   C965    1.435   .     S
C964   O996    1.292   .     A
C964   O994    1.287   .     A
C964   C966    1.435   .     S
C966   C869    1.338   1_655 S
C966   H884    1.087   1_655 S
C967   C972    1.401   .     A
C967   H981    1.083   .     S
C967   C1257   1.384   1_545 S
C968   H982    1.083   .     S
C968   C971    1.401   .     A
C968   C1114   1.383   .     S
C969   C971    1.402   .     A
C969   H983    1.083   .     S
C969   C1111   1.384   .     S
C970   C972    1.402   .     A
C970   H984    1.083   .     S
C970   C1256   1.383   1_545 S
C973   N988    1.375   .     A
C973   N997    1.419   .     S
C974   N987    1.375   .     A
C974   N1003   1.419   .     S
C974   C112    1.422   1_556 S
C975   N987    1.362   .     A
C975   H985    1.082   .     S
C975   C109    1.422   1_556 S
C976   N988    1.362   .     A
C976   H986    1.082   .     S
Cu977  O996    1.958   .     S
Cu977  Cu978   2.684   .     S
Cu977  O993    1.954   .     S
Cu977  N987    2.017   .     S
Cu977  O989    1.964   .     S
Cu977  O992    1.965   .     S
Cu978  O995    1.958   .     S
Cu978  N988    2.017   .     S
Cu978  O994    1.954   .     S
Cu978  O990    1.964   .     S
Cu978  O991    1.965   .     S
H979   C869    1.087   1_655 S
N997   H998    1.031   .     S
N997   C999    1.448   .     S
C999   H1002   1.111   .     S
C999   H1000   1.110   .     S
H1001  C135    1.111   1_556 S
N1003  H1004   1.031   .     S
N1003  C1005   1.448   .     S
C1005  H1006   1.110   .     S
C1005  H1007   1.111   .     S
C1005  H144    1.111   1_556 S
C1009  O1037   1.293   .     A
C1009  C1020   1.450   .     S
C1009  O1039   1.294   .     A
C1010  O1038   1.293   .     A
C1010  C1019   1.450   .     S
C1010  O1040   1.294   .     A
C1011  O1043   1.292   .     A
C1011  O1041   1.287   .     A
C1011  C1013   1.435   .     S
C1012  O1044   1.292   .     A
C1012  O1042   1.287   .     A
C1012  C1014   1.435   .     S
C1013  C1110   1.338   1_455 S
C1013  H1123   1.087   1_455 S
C1014  C1061   1.338   .     S
C1014  H1076   1.087   .     S
C1015  C1020   1.401   .     A
C1015  H1029   1.083   .     S
C1016  H1030   1.083   .     S
C1016  C1019   1.401   .     A
C1016  C1162   1.383   .     S
C1017  C1019   1.402   .     A
C1017  H1031   1.083   .     S
C1017  C1159   1.384   .     S
C1018  C1020   1.402   .     A
C1018  H1032   1.083   .     S
C1021  N1036   1.375   .     A
C1021  N1045   1.419   .     S
C1022  N1035   1.375   .     A
C1022  N1051   1.419   .     S
C1022  C160    1.422   1_556 S
C1023  N1035   1.362   .     A
C1023  H1033   1.082   .     S
C1023  C157    1.422   1_556 S
C1024  N1036   1.362   .     A
C1024  H1034   1.082   .     S
Cu1025 O1044   1.958   .     S
Cu1025 Cu1026  2.684   .     S
Cu1025 O1041   1.954   .     S
Cu1025 N1035   2.017   .     S
Cu1025 O1037   1.964   .     S
Cu1025 O1040   1.965   .     S
Cu1026 O1043   1.958   .     S
Cu1026 N1036   2.017   .     S
Cu1026 O1042   1.954   .     S
Cu1026 O1038   1.964   .     S
Cu1026 O1039   1.965   .     S
H1027  C1061   1.087   .     S
H1028  C1110   1.087   1_455 S
N1045  H1046   1.031   .     S
N1045  C1047   1.448   .     S
C1047  H1050   1.111   .     S
C1047  H1048   1.110   .     S
H1049  C183    1.111   1_556 S
N1051  H1052   1.031   .     S
N1051  C1053   1.448   .     S
C1053  H1054   1.110   .     S
C1053  H1055   1.111   .     S
C1053  H192    1.111   1_556 S
C1057  O1085   1.293   .     A
C1057  C1068   1.450   .     S
C1057  O1087   1.294   .     A
C1058  O1086   1.293   .     A
C1058  C1067   1.450   .     S
C1058  O1088   1.294   .     A
C1059  O1091   1.292   .     A
C1059  O1089   1.287   .     A
C1059  C1061   1.435   .     S
C1060  O1092   1.292   .     A
C1060  O1090   1.287   .     A
C1060  C1062   1.435   .     S
C1062  C1109   1.338   .     S
C1062  H1124   1.087   .     S
C1063  C1068   1.401   .     A
C1063  H1077   1.083   .     S
C1064  H1078   1.083   .     S
C1064  C1067   1.401   .     A
C1064  C1210   1.383   .     S
C1065  C1067   1.402   .     A
C1065  H1079   1.083   .     S
C1065  C1207   1.384   .     S
C1066  C1068   1.402   .     A
C1066  H1080   1.083   .     S
C1069  N1084   1.375   .     A
C1069  N1093   1.419   .     S
C1070  N1083   1.375   .     A
C1070  N1099   1.419   .     S
C1070  C208    1.422   1_556 S
C1071  N1083   1.362   .     A
C1071  H1081   1.082   .     S
C1071  C205    1.422   1_556 S
C1072  N1084   1.362   .     A
C1072  H1082   1.082   .     S
Cu1073 O1092   1.958   .     S
Cu1073 Cu1074  2.684   .     S
Cu1073 O1089   1.954   .     S
Cu1073 N1083   2.017   .     S
Cu1073 O1085   1.964   .     S
Cu1073 O1088   1.965   .     S
Cu1074 O1091   1.958   .     S
Cu1074 N1084   2.017   .     S
Cu1074 O1090   1.954   .     S
Cu1074 O1086   1.964   .     S
Cu1074 O1087   1.965   .     S
H1075  C1109   1.087   .     S
N1093  H1094   1.031   .     S
N1093  C1095   1.448   .     S
C1095  H1098   1.111   .     S
C1095  H1096   1.110   .     S
H1097  C231    1.111   1_556 S
N1099  H1100   1.031   .     S
N1099  C1101   1.448   .     S
C1101  H1102   1.110   .     S
C1101  H1103   1.111   .     S
C1101  H240    1.111   1_556 S
C1105  O1133   1.293   .     A
C1105  C1116   1.450   .     S
C1105  O1135   1.294   .     A
C1106  O1134   1.293   .     A
C1106  C1115   1.450   .     S
C1106  O1136   1.294   .     A
C1107  O1139   1.292   .     A
C1107  O1137   1.287   .     A
C1107  C1109   1.435   .     S
C1108  O1140   1.292   .     A
C1108  O1138   1.287   .     A
C1108  C1110   1.435   .     S
C1110  C1013   1.338   1_655 S
C1110  H1028   1.087   1_655 S
C1111  C1116   1.401   .     A
C1111  H1125   1.083   .     S
C1112  H1126   1.083   .     S
C1112  C1115   1.401   .     A
C1112  C1258   1.383   .     S
C1113  C1115   1.402   .     A
C1113  H1127   1.083   .     S
C1113  C1255   1.384   .     S
C1114  C1116   1.402   .     A
C1114  H1128   1.083   .     S
C1117  N1132   1.375   .     A
C1117  N1141   1.419   .     S
C1118  N1131   1.375   .     A
C1118  N1147   1.419   .     S
C1118  C256    1.422   1_556 S
C1119  N1131   1.362   .     A
C1119  H1129   1.082   .     S
C1119  C253    1.422   1_556 S
C1120  N1132   1.362   .     A
C1120  H1130   1.082   .     S
Cu1121 O1140   1.958   .     S
Cu1121 Cu1122  2.684   .     S
Cu1121 O1137   1.954   .     S
Cu1121 N1131   2.017   .     S
Cu1121 O1133   1.964   .     S
Cu1121 O1136   1.965   .     S
Cu1122 O1139   1.958   .     S
Cu1122 N1132   2.017   .     S
Cu1122 O1138   1.954   .     S
Cu1122 O1134   1.964   .     S
Cu1122 O1135   1.965   .     S
H1123  C1013   1.087   1_655 S
N1141  H1142   1.031   .     S
N1141  C1143   1.448   .     S
C1143  H1146   1.111   .     S
C1143  H1144   1.110   .     S
H1145  C279    1.111   1_556 S
N1147  H1148   1.031   .     S
N1147  C1149   1.448   .     S
C1149  H1150   1.110   .     S
C1149  H1151   1.111   .     S
C1149  H288    1.111   1_556 S
C1153  O1181   1.293   .     A
C1153  C1164   1.450   .     S
C1153  O1183   1.294   .     A
C1154  O1182   1.293   .     A
C1154  C1163   1.450   .     S
C1154  O1184   1.294   .     A
C1155  O1187   1.292   .     A
C1155  O1185   1.287   .     A
C1155  C1157   1.435   .     S
C1156  O1188   1.292   .     A
C1156  O1186   1.287   .     A
C1156  C1158   1.435   .     S
C1157  C1254   1.338   1_455 S
C1157  H1267   1.087   1_455 S
C1158  C1205   1.338   .     S
C1158  H1220   1.087   .     S
C1159  C1164   1.401   .     A
C1159  H1173   1.083   .     S
C1160  H1174   1.083   .     S
C1160  C1163   1.401   .     A
C1160  C874    1.383   1_565 S
C1161  C1163   1.402   .     A
C1161  H1175   1.083   .     S
C1161  C871    1.384   1_565 S
C1162  C1164   1.402   .     A
C1162  H1176   1.083   .     S
C1165  N1180   1.375   .     A
C1165  N1189   1.419   .     S
C1166  N1179   1.375   .     A
C1166  N1195   1.419   .     S
C1166  C304    1.422   1_556 S
C1167  N1179   1.362   .     A
C1167  H1177   1.082   .     S
C1167  C301    1.422   1_556 S
C1168  N1180   1.362   .     A
C1168  H1178   1.082   .     S
Cu1169 O1188   1.958   .     S
Cu1169 Cu1170  2.684   .     S
Cu1169 O1185   1.954   .     S
Cu1169 N1179   2.017   .     S
Cu1169 O1181   1.964   .     S
Cu1169 O1184   1.965   .     S
Cu1170 O1187   1.958   .     S
Cu1170 N1180   2.017   .     S
Cu1170 O1186   1.954   .     S
Cu1170 O1182   1.964   .     S
Cu1170 O1183   1.965   .     S
H1171  C1205   1.087   .     S
H1172  C1254   1.087   1_455 S
N1189  H1190   1.031   .     S
N1189  C1191   1.448   .     S
C1191  H1194   1.111   .     S
C1191  H1192   1.110   .     S
H1193  C327    1.111   1_556 S
N1195  H1196   1.031   .     S
N1195  C1197   1.448   .     S
C1197  H1198   1.110   .     S
C1197  H1199   1.111   .     S
C1197  H336    1.111   1_556 S
C1201  O1229   1.293   .     A
C1201  C1212   1.450   .     S
C1201  O1231   1.294   .     A
C1202  O1230   1.293   .     A
C1202  C1211   1.450   .     S
C1202  O1232   1.294   .     A
C1203  O1235   1.292   .     A
C1203  O1233   1.287   .     A
C1203  C1205   1.435   .     S
C1204  O1236   1.292   .     A
C1204  O1234   1.287   .     A
C1204  C1206   1.435   .     S
C1206  C1253   1.338   .     S
C1206  H1268   1.087   .     S
C1207  C1212   1.401   .     A
C1207  H1221   1.083   .     S
C1208  H1222   1.083   .     S
C1208  C1211   1.401   .     A
C1208  C922    1.383   1_565 S
C1209  C1211   1.402   .     A
C1209  H1223   1.083   .     S
C1209  C919    1.384   1_565 S
C1210  C1212   1.402   .     A
C1210  H1224   1.083   .     S
C1213  N1228   1.375   .     A
C1213  N1237   1.419   .     S
C1214  N1227   1.375   .     A
C1214  N1243   1.419   .     S
C1214  C352    1.422   1_556 S
C1215  N1227   1.362   .     A
C1215  H1225   1.082   .     S
C1215  C349    1.422   1_556 S
C1216  N1228   1.362   .     A
C1216  H1226   1.082   .     S
Cu1217 O1236   1.958   .     S
Cu1217 Cu1218  2.684   .     S
Cu1217 O1233   1.954   .     S
Cu1217 N1227   2.017   .     S
Cu1217 O1229   1.964   .     S
Cu1217 O1232   1.965   .     S
Cu1218 O1235   1.958   .     S
Cu1218 N1228   2.017   .     S
Cu1218 O1234   1.954   .     S
Cu1218 O1230   1.964   .     S
Cu1218 O1231   1.965   .     S
H1219  C1253   1.087   .     S
N1237  H1238   1.031   .     S
N1237  C1239   1.448   .     S
C1239  H1242   1.111   .     S
C1239  H1240   1.110   .     S
H1241  C375    1.111   1_556 S
N1243  H1244   1.031   .     S
N1243  C1245   1.448   .     S
C1245  H1246   1.110   .     S
C1245  H1247   1.111   .     S
C1245  H384    1.111   1_556 S
C1249  O1277   1.293   .     A
C1249  C1260   1.450   .     S
C1249  O1279   1.294   .     A
C1250  O1278   1.293   .     A
C1250  C1259   1.450   .     S
C1250  O1280   1.294   .     A
C1251  O1283   1.292   .     A
C1251  O1281   1.287   .     A
C1251  C1253   1.435   .     S
C1252  O1284   1.292   .     A
C1252  O1282   1.287   .     A
C1252  C1254   1.435   .     S
C1254  C1157   1.338   1_655 S
C1254  H1172   1.087   1_655 S
C1255  C1260   1.401   .     A
C1255  H1269   1.083   .     S
C1256  H1270   1.083   .     S
C1256  C1259   1.401   .     A
C1256  C970    1.383   1_565 S
C1257  C1259   1.402   .     A
C1257  H1271   1.083   .     S
C1257  C967    1.384   1_565 S
C1258  C1260   1.402   .     A
C1258  H1272   1.083   .     S
C1261  N1276   1.375   .     A
C1261  N1285   1.419   .     S
C1262  N1275   1.375   .     A
C1262  N1291   1.419   .     S
C1262  C400    1.422   1_556 S
C1263  N1275   1.362   .     A
C1263  H1273   1.082   .     S
C1263  C397    1.422   1_556 S
C1264  N1276   1.362   .     A
C1264  H1274   1.082   .     S
Cu1265 O1284   1.958   .     S
Cu1265 Cu1266  2.684   .     S
Cu1265 O1281   1.954   .     S
Cu1265 N1275   2.017   .     S
Cu1265 O1277   1.964   .     S
Cu1265 O1280   1.965   .     S
Cu1266 O1283   1.958   .     S
Cu1266 N1276   2.017   .     S
Cu1266 O1282   1.954   .     S
Cu1266 O1278   1.964   .     S
Cu1266 O1279   1.965   .     S
H1267  C1157   1.087   1_655 S
N1285  H1286   1.031   .     S
N1285  C1287   1.448   .     S
C1287  H1290   1.111   .     S
C1287  H1288   1.110   .     S
H1289  C423    1.111   1_556 S
N1291  H1292   1.031   .     S
N1291  C1293   1.448   .     S
C1293  H1294   1.110   .     S
C1293  H1295   1.111   .     S
C1293  H432    1.111   1_556 S
