data_str_m2_o1_o16_pcu_sym.152
_audit_creation_date              2020-01-03
_audit_creation_method            'Materials Studio'
_symmetry_space_group_name_H-M    'P1'
_symmetry_Int_Tables_number       1
_symmetry_cell_setting            triclinic
loop_
_symmetry_equiv_pos_as_xyz
  x,y,z
_cell_length_a                    28.5415
_cell_length_b                    32.4883
_cell_length_c                    26.7630
_cell_angle_alpha                 89.9957
_cell_angle_beta                  73.6811
_cell_angle_gamma                 90.0065
loop_
_atom_site_label
_atom_site_type_symbol
_atom_site_fract_x
_atom_site_fract_y
_atom_site_fract_z
_atom_site_U_iso_or_equiv
_atom_site_adp_type
_atom_site_occupancy
C1     C     0.16675   0.24598   0.24970   0.00000  Uiso   1.00
C2     C     0.14814   0.18590   0.48695   0.00000  Uiso   1.00
C3     C     0.16374   0.18938   0.43224   0.00000  Uiso   1.00
C4     C     0.18287   0.17399   0.01345   0.00000  Uiso   1.00
C5     C     0.23293   0.17019   0.48489   0.00000  Uiso   1.00
C6     C     0.24806   0.18509   0.43378   0.00000  Uiso   1.00
C7     C     0.21385   0.19783   0.40864   0.00000  Uiso   1.00
C8     C     0.16947   0.16327   0.06658   0.00000  Uiso   1.00
C9     C     0.25432   0.15518   0.06422   0.00000  Uiso   1.00
C10    C     0.12819   0.18592   0.40430   0.00000  Uiso   1.00
C11    C     0.20927   0.31206   0.24985   0.00000  Uiso   1.00
C12    C     0.14139   0.17281   0.34910   0.00000  Uiso   1.00
C13    C     0.20923   0.02129   0.24999   0.00000  Uiso   1.00
C14    C     0.16675   0.04274   0.24963   0.00000  Uiso   1.00
C15    C     0.12434   0.02128   0.24901   0.00000  Uiso   1.00
C16    C     0.12435   0.31204   0.24896   0.00000  Uiso   1.00
C17    C     0.16680   0.29059   0.24948   0.00000  Uiso   1.00
C18    C     0.31744   0.19102   0.21617   0.00000  Uiso   1.00
C19    C     0.03373   0.19100   0.21616   0.00000  Uiso   1.00
C20    C     0.01592   0.14225   0.28372   0.00000  Uiso   1.00
C21    C     0.29965   0.14220   0.28366   0.00000  Uiso   1.00
C22    C     0.16668   0.08736   0.24990   0.00000  Uiso   1.00
C23    C     0.19225   0.16450   0.15001   0.00000  Uiso   1.00
C24    C     0.26715   0.15483   0.00970   0.00000  Uiso   1.00
C25    C     0.20585   0.16163   0.09292   0.00000  Uiso   1.00
C26    C     0.07921   0.19400   0.43056   0.00000  Uiso   1.00
C27    C     0.06562   0.20213   0.48376   0.00000  Uiso   1.00
C28    C     0.09917   0.19664   0.01226   0.00000  Uiso   1.00
Cu29   Cu    0.11978   0.16666   0.25000   0.00000  Uiso   1.00
Cu30   Cu    0.21355   0.16667   0.25000   0.00000  Uiso   1.00
H31    H     0.28138   0.14813   0.08438   0.00000  Uiso   1.00
H32    H     0.24240   0.03731   0.25042   0.00000  Uiso   1.00
H33    H     0.09116   0.03730   0.24861   0.00000  Uiso   1.00
H34    H     0.09118   0.29601   0.24856   0.00000  Uiso   1.00
H35    H     0.30584   0.21060   0.18918   0.00000  Uiso   1.00
H36    H     0.05956   0.21054   0.18912   0.00000  Uiso   1.00
H37    H     0.02752   0.12268   0.31071   0.00000  Uiso   1.00
H38    H     0.27382   0.12267   0.31071   0.00000  Uiso   1.00
H39    H     0.28647   0.19044   0.41532   0.00000  Uiso   1.00
H40    H     0.05159   0.19470   0.40991   0.00000  Uiso   1.00
H41    H     0.08647   0.20271   0.05348   0.00000  Uiso   1.00
H42    H     0.02829   0.21052   0.00349   0.00000  Uiso   1.00
H43    H     0.24248   0.29605   0.25013   0.00000  Uiso   1.00
N44    N     0.04931   0.16666   0.24998   0.00000  Uiso   1.00
N45    N     0.28402   0.16669   0.24999   0.00000  Uiso   1.00
O46    O     0.12708   0.22678   0.25000   0.00000  Uiso   1.00
O47    O     0.20627   0.22679   0.25000   0.00000  Uiso   1.00
O48    O     0.10775   0.16665   0.32549   0.00000  Uiso   1.00
O49    O     0.18694   0.16666   0.32549   0.00000  Uiso   1.00
O50    O     0.12706   0.10654   0.24999   0.00000  Uiso   1.00
O51    O     0.20625   0.10655   0.24999   0.00000  Uiso   1.00
O52    O     0.14640   0.16667   0.17451   0.00000  Uiso   1.00
O53    O     0.22559   0.16668   0.17451   0.00000  Uiso   1.00
C54    C     0.31372   0.13464   0.48045   0.00000  Uiso   1.00
O55    O     0.00979   0.12388   0.00343   0.00000  Uiso   1.00
O56    O     0.32265   0.12495   0.42767   0.00000  Uiso   1.00
H57    H     0.02188   0.11072   0.41280   0.00000  Uiso   1.00
O58    O     0.12140   0.15358   0.09222   0.00000  Uiso   1.00
C59    C     0.11621   0.11044   0.09979   0.00000  Uiso   1.00
H60    H     0.08179   0.10508   0.13109   0.00000  Uiso   1.00
H61    H     0.14597   0.09656   0.11376   0.00000  Uiso   1.00
C62    C     0.11256   0.08859   0.05023   0.00000  Uiso   1.00
H63    H     0.08384   0.10354   0.03596   0.00000  Uiso   1.00
H64    H     0.14785   0.09115   0.01944   0.00000  Uiso   1.00
C65    C     0.10017   0.04311   0.06037   0.00000  Uiso   1.00
H66    H     0.12884   0.02746   0.07418   0.00000  Uiso   1.00
H67    H     0.09807   0.02815   0.02376   0.00000  Uiso   1.00
H68    H     0.06434   0.03958   0.09008   0.00000  Uiso   1.00
C69    C     0.23000   0.22793   0.36526   0.00000  Uiso   1.00
O70    O     0.20050   0.25167   0.35552   0.00000  Uiso   1.00
O71    O     0.27931   0.23068   0.33732   0.00000  Uiso   1.00
H72    H     0.28570   0.25273   0.30942   0.00000  Uiso   1.00
C73    C     0.50008   0.24598   0.24970   0.00000  Uiso   1.00
C74    C     0.48148   0.18590   0.48695   0.00000  Uiso   1.00
C75    C     0.49708   0.18938   0.43224   0.00000  Uiso   1.00
C76    C     0.51620   0.17399   0.01345   0.00000  Uiso   1.00
C77    C     0.56627   0.17019   0.48489   0.00000  Uiso   1.00
C78    C     0.58139   0.18509   0.43378   0.00000  Uiso   1.00
C79    C     0.54719   0.19783   0.40864   0.00000  Uiso   1.00
C80    C     0.50280   0.16327   0.06658   0.00000  Uiso   1.00
C81    C     0.58765   0.15518   0.06422   0.00000  Uiso   1.00
C82    C     0.46152   0.18592   0.40430   0.00000  Uiso   1.00
C83    C     0.54261   0.31206   0.24985   0.00000  Uiso   1.00
C84    C     0.47472   0.17281   0.34910   0.00000  Uiso   1.00
C85    C     0.54256   0.02129   0.24999   0.00000  Uiso   1.00
C86    C     0.50008   0.04274   0.24963   0.00000  Uiso   1.00
C87    C     0.45767   0.02128   0.24901   0.00000  Uiso   1.00
C88    C     0.45769   0.31204   0.24896   0.00000  Uiso   1.00
C89    C     0.50013   0.29059   0.24948   0.00000  Uiso   1.00
C90    C     0.65077   0.19102   0.21617   0.00000  Uiso   1.00
C91    C     0.36706   0.19100   0.21616   0.00000  Uiso   1.00
C92    C     0.34925   0.14225   0.28372   0.00000  Uiso   1.00
C93    C     0.63298   0.14220   0.28366   0.00000  Uiso   1.00
C94    C     0.50001   0.08736   0.24990   0.00000  Uiso   1.00
C95    C     0.52558   0.16450   0.15001   0.00000  Uiso   1.00
C96    C     0.60048   0.15483   0.00970   0.00000  Uiso   1.00
C97    C     0.53918   0.16163   0.09292   0.00000  Uiso   1.00
C98    C     0.41254   0.19400   0.43056   0.00000  Uiso   1.00
C99    C     0.39896   0.20213   0.48376   0.00000  Uiso   1.00
C100   C     0.43250   0.19664   0.01226   0.00000  Uiso   1.00
Cu101  Cu    0.45311   0.16666   0.25000   0.00000  Uiso   1.00
Cu102  Cu    0.54689   0.16667   0.25000   0.00000  Uiso   1.00
H103   H     0.61471   0.14813   0.08438   0.00000  Uiso   1.00
H104   H     0.57574   0.03731   0.25042   0.00000  Uiso   1.00
H105   H     0.42449   0.03730   0.24861   0.00000  Uiso   1.00
H106   H     0.42451   0.29601   0.24856   0.00000  Uiso   1.00
H107   H     0.63918   0.21060   0.18918   0.00000  Uiso   1.00
H108   H     0.39290   0.21054   0.18912   0.00000  Uiso   1.00
H109   H     0.36085   0.12268   0.31071   0.00000  Uiso   1.00
H110   H     0.60715   0.12267   0.31071   0.00000  Uiso   1.00
H111   H     0.61980   0.19044   0.41532   0.00000  Uiso   1.00
H112   H     0.38493   0.19470   0.40991   0.00000  Uiso   1.00
H113   H     0.41980   0.20271   0.05348   0.00000  Uiso   1.00
H114   H     0.36163   0.21052   0.00349   0.00000  Uiso   1.00
H115   H     0.57581   0.29605   0.25013   0.00000  Uiso   1.00
N116   N     0.38265   0.16666   0.24998   0.00000  Uiso   1.00
N117   N     0.61735   0.16669   0.24999   0.00000  Uiso   1.00
O118   O     0.46042   0.22678   0.25000   0.00000  Uiso   1.00
O119   O     0.53961   0.22679   0.25000   0.00000  Uiso   1.00
O120   O     0.44108   0.16665   0.32549   0.00000  Uiso   1.00
O121   O     0.52027   0.16666   0.32549   0.00000  Uiso   1.00
O122   O     0.46039   0.10654   0.24999   0.00000  Uiso   1.00
O123   O     0.53958   0.10655   0.24999   0.00000  Uiso   1.00
O124   O     0.47973   0.16667   0.17451   0.00000  Uiso   1.00
O125   O     0.55892   0.16668   0.17451   0.00000  Uiso   1.00
C126   C     0.64705   0.13464   0.48045   0.00000  Uiso   1.00
O127   O     0.34313   0.12388   0.00343   0.00000  Uiso   1.00
O128   O     0.65598   0.12495   0.42767   0.00000  Uiso   1.00
H129   H     0.35521   0.11072   0.41280   0.00000  Uiso   1.00
O130   O     0.45473   0.15358   0.09222   0.00000  Uiso   1.00
C131   C     0.44955   0.11044   0.09979   0.00000  Uiso   1.00
H132   H     0.41513   0.10508   0.13109   0.00000  Uiso   1.00
H133   H     0.47930   0.09656   0.11376   0.00000  Uiso   1.00
C134   C     0.44590   0.08859   0.05023   0.00000  Uiso   1.00
H135   H     0.41718   0.10354   0.03596   0.00000  Uiso   1.00
H136   H     0.48119   0.09115   0.01944   0.00000  Uiso   1.00
C137   C     0.43350   0.04311   0.06037   0.00000  Uiso   1.00
H138   H     0.46217   0.02746   0.07418   0.00000  Uiso   1.00
H139   H     0.43140   0.02815   0.02376   0.00000  Uiso   1.00
H140   H     0.39767   0.03958   0.09008   0.00000  Uiso   1.00
C141   C     0.56334   0.22793   0.36526   0.00000  Uiso   1.00
O142   O     0.53383   0.25167   0.35552   0.00000  Uiso   1.00
O143   O     0.61264   0.23068   0.33732   0.00000  Uiso   1.00
H144   H     0.61903   0.25273   0.30942   0.00000  Uiso   1.00
C145   C     0.83342   0.24598   0.24970   0.00000  Uiso   1.00
C146   C     0.81481   0.18590   0.48695   0.00000  Uiso   1.00
C147   C     0.83041   0.18938   0.43224   0.00000  Uiso   1.00
C148   C     0.84954   0.17399   0.01345   0.00000  Uiso   1.00
C149   C     0.89960   0.17019   0.48489   0.00000  Uiso   1.00
C150   C     0.91472   0.18509   0.43378   0.00000  Uiso   1.00
C151   C     0.88052   0.19783   0.40864   0.00000  Uiso   1.00
C152   C     0.83613   0.16327   0.06658   0.00000  Uiso   1.00
C153   C     0.92098   0.15518   0.06422   0.00000  Uiso   1.00
C154   C     0.79485   0.18592   0.40430   0.00000  Uiso   1.00
C155   C     0.87594   0.31206   0.24985   0.00000  Uiso   1.00
C156   C     0.80806   0.17281   0.34910   0.00000  Uiso   1.00
C157   C     0.87590   0.02129   0.24999   0.00000  Uiso   1.00
C158   C     0.83341   0.04274   0.24963   0.00000  Uiso   1.00
C159   C     0.79100   0.02128   0.24901   0.00000  Uiso   1.00
C160   C     0.79102   0.31204   0.24896   0.00000  Uiso   1.00
C161   C     0.83347   0.29059   0.24948   0.00000  Uiso   1.00
C162   C     0.98410   0.19102   0.21617   0.00000  Uiso   1.00
C163   C     0.70039   0.19100   0.21616   0.00000  Uiso   1.00
C164   C     0.68259   0.14225   0.28372   0.00000  Uiso   1.00
C165   C     0.96632   0.14220   0.28366   0.00000  Uiso   1.00
C166   C     0.83334   0.08736   0.24990   0.00000  Uiso   1.00
C167   C     0.85892   0.16450   0.15001   0.00000  Uiso   1.00
C168   C     0.93381   0.15483   0.00970   0.00000  Uiso   1.00
C169   C     0.87251   0.16163   0.09292   0.00000  Uiso   1.00
C170   C     0.74588   0.19400   0.43056   0.00000  Uiso   1.00
C171   C     0.73229   0.20213   0.48376   0.00000  Uiso   1.00
C172   C     0.76584   0.19664   0.01226   0.00000  Uiso   1.00
Cu173  Cu    0.78645   0.16666   0.25000   0.00000  Uiso   1.00
Cu174  Cu    0.88022   0.16667   0.25000   0.00000  Uiso   1.00
H175   H     0.94804   0.14813   0.08438   0.00000  Uiso   1.00
H176   H     0.90907   0.03731   0.25042   0.00000  Uiso   1.00
H177   H     0.75782   0.03730   0.24861   0.00000  Uiso   1.00
H178   H     0.75784   0.29601   0.24856   0.00000  Uiso   1.00
H179   H     0.97251   0.21060   0.18918   0.00000  Uiso   1.00
H180   H     0.72623   0.21054   0.18912   0.00000  Uiso   1.00
H181   H     0.69418   0.12268   0.31071   0.00000  Uiso   1.00
H182   H     0.94049   0.12267   0.31071   0.00000  Uiso   1.00
H183   H     0.95314   0.19044   0.41532   0.00000  Uiso   1.00
H184   H     0.71826   0.19470   0.40991   0.00000  Uiso   1.00
H185   H     0.75314   0.20271   0.05348   0.00000  Uiso   1.00
H186   H     0.69496   0.21052   0.00349   0.00000  Uiso   1.00
H187   H     0.90915   0.29605   0.25013   0.00000  Uiso   1.00
N188   N     0.71598   0.16666   0.24998   0.00000  Uiso   1.00
N189   N     0.95069   0.16669   0.24999   0.00000  Uiso   1.00
O190   O     0.79375   0.22678   0.25000   0.00000  Uiso   1.00
O191   O     0.87294   0.22679   0.25000   0.00000  Uiso   1.00
O192   O     0.77441   0.16665   0.32549   0.00000  Uiso   1.00
O193   O     0.85360   0.16666   0.32549   0.00000  Uiso   1.00
O194   O     0.79373   0.10654   0.24999   0.00000  Uiso   1.00
O195   O     0.87292   0.10655   0.24999   0.00000  Uiso   1.00
O196   O     0.81306   0.16667   0.17451   0.00000  Uiso   1.00
O197   O     0.89225   0.16668   0.17451   0.00000  Uiso   1.00
C198   C     0.98039   0.13464   0.48045   0.00000  Uiso   1.00
O199   O     0.67646   0.12388   0.00343   0.00000  Uiso   1.00
O200   O     0.98932   0.12495   0.42767   0.00000  Uiso   1.00
H201   H     0.68855   0.11072   0.41280   0.00000  Uiso   1.00
O202   O     0.78807   0.15358   0.09222   0.00000  Uiso   1.00
C203   C     0.78288   0.11044   0.09979   0.00000  Uiso   1.00
H204   H     0.74846   0.10508   0.13109   0.00000  Uiso   1.00
H205   H     0.81264   0.09656   0.11376   0.00000  Uiso   1.00
C206   C     0.77923   0.08859   0.05023   0.00000  Uiso   1.00
H207   H     0.75051   0.10354   0.03596   0.00000  Uiso   1.00
H208   H     0.81452   0.09115   0.01944   0.00000  Uiso   1.00
C209   C     0.76684   0.04311   0.06037   0.00000  Uiso   1.00
H210   H     0.79551   0.02746   0.07418   0.00000  Uiso   1.00
H211   H     0.76474   0.02815   0.02376   0.00000  Uiso   1.00
H212   H     0.73100   0.03958   0.09008   0.00000  Uiso   1.00
C213   C     0.89667   0.22793   0.36526   0.00000  Uiso   1.00
O214   O     0.86716   0.25167   0.35552   0.00000  Uiso   1.00
O215   O     0.94598   0.23068   0.33732   0.00000  Uiso   1.00
H216   H     0.95237   0.25273   0.30942   0.00000  Uiso   1.00
C217   C     0.16675   0.57931   0.24970   0.00000  Uiso   1.00
C218   C     0.14814   0.51923   0.48695   0.00000  Uiso   1.00
C219   C     0.16374   0.52271   0.43224   0.00000  Uiso   1.00
C220   C     0.18287   0.50733   0.01345   0.00000  Uiso   1.00
C221   C     0.23293   0.50352   0.48489   0.00000  Uiso   1.00
C222   C     0.24806   0.51843   0.43378   0.00000  Uiso   1.00
C223   C     0.21385   0.53116   0.40864   0.00000  Uiso   1.00
C224   C     0.16947   0.49661   0.06658   0.00000  Uiso   1.00
C225   C     0.25432   0.48851   0.06422   0.00000  Uiso   1.00
C226   C     0.12819   0.51925   0.40430   0.00000  Uiso   1.00
C227   C     0.20927   0.64539   0.24985   0.00000  Uiso   1.00
C228   C     0.14139   0.50615   0.34910   0.00000  Uiso   1.00
C229   C     0.20923   0.35463   0.24999   0.00000  Uiso   1.00
C230   C     0.16675   0.37608   0.24963   0.00000  Uiso   1.00
C231   C     0.12434   0.35462   0.24901   0.00000  Uiso   1.00
C232   C     0.12435   0.64537   0.24896   0.00000  Uiso   1.00
C233   C     0.16680   0.62393   0.24948   0.00000  Uiso   1.00
C234   C     0.31744   0.52436   0.21617   0.00000  Uiso   1.00
C235   C     0.03373   0.52433   0.21616   0.00000  Uiso   1.00
C236   C     0.01592   0.47559   0.28372   0.00000  Uiso   1.00
C237   C     0.29965   0.47554   0.28366   0.00000  Uiso   1.00
C238   C     0.16668   0.42069   0.24990   0.00000  Uiso   1.00
C239   C     0.19225   0.49784   0.15001   0.00000  Uiso   1.00
C240   C     0.26715   0.48816   0.00970   0.00000  Uiso   1.00
C241   C     0.20585   0.49496   0.09292   0.00000  Uiso   1.00
C242   C     0.07921   0.52734   0.43056   0.00000  Uiso   1.00
C243   C     0.06562   0.53547   0.48376   0.00000  Uiso   1.00
C244   C     0.09917   0.52997   0.01226   0.00000  Uiso   1.00
Cu245  Cu    0.11978   0.49999   0.25000   0.00000  Uiso   1.00
Cu246  Cu    0.21355   0.50001   0.25000   0.00000  Uiso   1.00
H247   H     0.28138   0.48146   0.08438   0.00000  Uiso   1.00
H248   H     0.24240   0.37065   0.25042   0.00000  Uiso   1.00
H249   H     0.09116   0.37063   0.24861   0.00000  Uiso   1.00
H250   H     0.09118   0.62935   0.24856   0.00000  Uiso   1.00
H251   H     0.30584   0.54393   0.18918   0.00000  Uiso   1.00
H252   H     0.05956   0.54387   0.18912   0.00000  Uiso   1.00
H253   H     0.02752   0.45602   0.31071   0.00000  Uiso   1.00
H254   H     0.27382   0.45600   0.31071   0.00000  Uiso   1.00
H255   H     0.28647   0.52377   0.41532   0.00000  Uiso   1.00
H256   H     0.05159   0.52803   0.40991   0.00000  Uiso   1.00
H257   H     0.08647   0.53605   0.05348   0.00000  Uiso   1.00
H258   H     0.02829   0.54385   0.00349   0.00000  Uiso   1.00
H259   H     0.24248   0.62938   0.25013   0.00000  Uiso   1.00
N260   N     0.04931   0.49999   0.24998   0.00000  Uiso   1.00
N261   N     0.28402   0.50002   0.24999   0.00000  Uiso   1.00
O262   O     0.12708   0.56011   0.25000   0.00000  Uiso   1.00
O263   O     0.20627   0.56012   0.25000   0.00000  Uiso   1.00
O264   O     0.10775   0.49998   0.32549   0.00000  Uiso   1.00
O265   O     0.18694   0.49999   0.32549   0.00000  Uiso   1.00
O266   O     0.12706   0.43988   0.24999   0.00000  Uiso   1.00
O267   O     0.20625   0.43989   0.24999   0.00000  Uiso   1.00
O268   O     0.14640   0.50001   0.17451   0.00000  Uiso   1.00
O269   O     0.22559   0.50002   0.17451   0.00000  Uiso   1.00
C270   C     0.31372   0.46797   0.48045   0.00000  Uiso   1.00
O271   O     0.00979   0.45721   0.00343   0.00000  Uiso   1.00
O272   O     0.32265   0.45828   0.42767   0.00000  Uiso   1.00
H273   H     0.02188   0.44405   0.41280   0.00000  Uiso   1.00
O274   O     0.12140   0.48691   0.09222   0.00000  Uiso   1.00
C275   C     0.11621   0.44377   0.09979   0.00000  Uiso   1.00
H276   H     0.08179   0.43842   0.13109   0.00000  Uiso   1.00
H277   H     0.14597   0.42989   0.11376   0.00000  Uiso   1.00
C278   C     0.11256   0.42193   0.05023   0.00000  Uiso   1.00
H279   H     0.08384   0.43687   0.03596   0.00000  Uiso   1.00
H280   H     0.14785   0.42448   0.01944   0.00000  Uiso   1.00
C281   C     0.10017   0.37645   0.06037   0.00000  Uiso   1.00
H282   H     0.12884   0.36080   0.07418   0.00000  Uiso   1.00
H283   H     0.09807   0.36148   0.02376   0.00000  Uiso   1.00
H284   H     0.06434   0.37291   0.09008   0.00000  Uiso   1.00
C285   C     0.23000   0.56126   0.36526   0.00000  Uiso   1.00
O286   O     0.20050   0.58500   0.35552   0.00000  Uiso   1.00
O287   O     0.27931   0.56401   0.33732   0.00000  Uiso   1.00
H288   H     0.28570   0.58606   0.30942   0.00000  Uiso   1.00
C289   C     0.50008   0.57931   0.24970   0.00000  Uiso   1.00
C290   C     0.48148   0.51923   0.48695   0.00000  Uiso   1.00
C291   C     0.49708   0.52271   0.43224   0.00000  Uiso   1.00
C292   C     0.51620   0.50733   0.01345   0.00000  Uiso   1.00
C293   C     0.56627   0.50352   0.48489   0.00000  Uiso   1.00
C294   C     0.58139   0.51843   0.43378   0.00000  Uiso   1.00
C295   C     0.54719   0.53116   0.40864   0.00000  Uiso   1.00
C296   C     0.50280   0.49661   0.06658   0.00000  Uiso   1.00
C297   C     0.58765   0.48851   0.06422   0.00000  Uiso   1.00
C298   C     0.46152   0.51925   0.40430   0.00000  Uiso   1.00
C299   C     0.54261   0.64539   0.24985   0.00000  Uiso   1.00
C300   C     0.47472   0.50615   0.34910   0.00000  Uiso   1.00
C301   C     0.54256   0.35463   0.24999   0.00000  Uiso   1.00
C302   C     0.50008   0.37608   0.24963   0.00000  Uiso   1.00
C303   C     0.45767   0.35462   0.24901   0.00000  Uiso   1.00
C304   C     0.45769   0.64537   0.24896   0.00000  Uiso   1.00
C305   C     0.50013   0.62393   0.24948   0.00000  Uiso   1.00
C306   C     0.65077   0.52436   0.21617   0.00000  Uiso   1.00
C307   C     0.36706   0.52433   0.21616   0.00000  Uiso   1.00
C308   C     0.34925   0.47559   0.28372   0.00000  Uiso   1.00
C309   C     0.63298   0.47554   0.28366   0.00000  Uiso   1.00
C310   C     0.50001   0.42069   0.24990   0.00000  Uiso   1.00
C311   C     0.52558   0.49784   0.15001   0.00000  Uiso   1.00
C312   C     0.60048   0.48816   0.00970   0.00000  Uiso   1.00
C313   C     0.53918   0.49496   0.09292   0.00000  Uiso   1.00
C314   C     0.41254   0.52734   0.43056   0.00000  Uiso   1.00
C315   C     0.39896   0.53547   0.48376   0.00000  Uiso   1.00
C316   C     0.43250   0.52997   0.01226   0.00000  Uiso   1.00
Cu317  Cu    0.45311   0.49999   0.25000   0.00000  Uiso   1.00
Cu318  Cu    0.54689   0.50001   0.25000   0.00000  Uiso   1.00
H319   H     0.61471   0.48146   0.08438   0.00000  Uiso   1.00
H320   H     0.57574   0.37065   0.25042   0.00000  Uiso   1.00
H321   H     0.42449   0.37063   0.24861   0.00000  Uiso   1.00
H322   H     0.42451   0.62935   0.24856   0.00000  Uiso   1.00
H323   H     0.63918   0.54393   0.18918   0.00000  Uiso   1.00
H324   H     0.39290   0.54387   0.18912   0.00000  Uiso   1.00
H325   H     0.36085   0.45602   0.31071   0.00000  Uiso   1.00
H326   H     0.60715   0.45600   0.31071   0.00000  Uiso   1.00
H327   H     0.61980   0.52377   0.41532   0.00000  Uiso   1.00
H328   H     0.38493   0.52803   0.40991   0.00000  Uiso   1.00
H329   H     0.41980   0.53605   0.05348   0.00000  Uiso   1.00
H330   H     0.36163   0.54385   0.00349   0.00000  Uiso   1.00
H331   H     0.57581   0.62938   0.25013   0.00000  Uiso   1.00
N332   N     0.38265   0.49999   0.24998   0.00000  Uiso   1.00
N333   N     0.61735   0.50002   0.24999   0.00000  Uiso   1.00
O334   O     0.46042   0.56011   0.25000   0.00000  Uiso   1.00
O335   O     0.53961   0.56012   0.25000   0.00000  Uiso   1.00
O336   O     0.44108   0.49998   0.32549   0.00000  Uiso   1.00
O337   O     0.52027   0.49999   0.32549   0.00000  Uiso   1.00
O338   O     0.46039   0.43988   0.24999   0.00000  Uiso   1.00
O339   O     0.53958   0.43989   0.24999   0.00000  Uiso   1.00
O340   O     0.47973   0.50001   0.17451   0.00000  Uiso   1.00
O341   O     0.55892   0.50002   0.17451   0.00000  Uiso   1.00
C342   C     0.64705   0.46797   0.48045   0.00000  Uiso   1.00
O343   O     0.34313   0.45721   0.00343   0.00000  Uiso   1.00
O344   O     0.65598   0.45828   0.42767   0.00000  Uiso   1.00
H345   H     0.35521   0.44405   0.41280   0.00000  Uiso   1.00
O346   O     0.45473   0.48691   0.09222   0.00000  Uiso   1.00
C347   C     0.44955   0.44377   0.09979   0.00000  Uiso   1.00
H348   H     0.41513   0.43842   0.13109   0.00000  Uiso   1.00
H349   H     0.47930   0.42989   0.11376   0.00000  Uiso   1.00
C350   C     0.44590   0.42193   0.05023   0.00000  Uiso   1.00
H351   H     0.41718   0.43687   0.03596   0.00000  Uiso   1.00
H352   H     0.48119   0.42448   0.01944   0.00000  Uiso   1.00
C353   C     0.43350   0.37645   0.06037   0.00000  Uiso   1.00
H354   H     0.46217   0.36080   0.07418   0.00000  Uiso   1.00
H355   H     0.43140   0.36148   0.02376   0.00000  Uiso   1.00
H356   H     0.39767   0.37291   0.09008   0.00000  Uiso   1.00
C357   C     0.56334   0.56126   0.36526   0.00000  Uiso   1.00
O358   O     0.53383   0.58500   0.35552   0.00000  Uiso   1.00
O359   O     0.61264   0.56401   0.33732   0.00000  Uiso   1.00
H360   H     0.61903   0.58606   0.30942   0.00000  Uiso   1.00
C361   C     0.83342   0.57931   0.24970   0.00000  Uiso   1.00
C362   C     0.81481   0.51923   0.48695   0.00000  Uiso   1.00
C363   C     0.83041   0.52271   0.43224   0.00000  Uiso   1.00
C364   C     0.84954   0.50733   0.01345   0.00000  Uiso   1.00
C365   C     0.89960   0.50352   0.48489   0.00000  Uiso   1.00
C366   C     0.91472   0.51843   0.43378   0.00000  Uiso   1.00
C367   C     0.88052   0.53116   0.40864   0.00000  Uiso   1.00
C368   C     0.83613   0.49661   0.06658   0.00000  Uiso   1.00
C369   C     0.92098   0.48851   0.06422   0.00000  Uiso   1.00
C370   C     0.79485   0.51925   0.40430   0.00000  Uiso   1.00
C371   C     0.87594   0.64539   0.24985   0.00000  Uiso   1.00
C372   C     0.80806   0.50615   0.34910   0.00000  Uiso   1.00
C373   C     0.87590   0.35463   0.24999   0.00000  Uiso   1.00
C374   C     0.83341   0.37608   0.24963   0.00000  Uiso   1.00
C375   C     0.79100   0.35462   0.24901   0.00000  Uiso   1.00
C376   C     0.79102   0.64537   0.24896   0.00000  Uiso   1.00
C377   C     0.83347   0.62393   0.24948   0.00000  Uiso   1.00
C378   C     0.98410   0.52436   0.21617   0.00000  Uiso   1.00
C379   C     0.70039   0.52433   0.21616   0.00000  Uiso   1.00
C380   C     0.68259   0.47559   0.28372   0.00000  Uiso   1.00
C381   C     0.96632   0.47554   0.28366   0.00000  Uiso   1.00
C382   C     0.83334   0.42069   0.24990   0.00000  Uiso   1.00
C383   C     0.85892   0.49784   0.15001   0.00000  Uiso   1.00
C384   C     0.93381   0.48816   0.00970   0.00000  Uiso   1.00
C385   C     0.87251   0.49496   0.09292   0.00000  Uiso   1.00
C386   C     0.74588   0.52734   0.43056   0.00000  Uiso   1.00
C387   C     0.73229   0.53547   0.48376   0.00000  Uiso   1.00
C388   C     0.76584   0.52997   0.01226   0.00000  Uiso   1.00
Cu389  Cu    0.78645   0.49999   0.25000   0.00000  Uiso   1.00
Cu390  Cu    0.88022   0.50001   0.25000   0.00000  Uiso   1.00
H391   H     0.94804   0.48146   0.08438   0.00000  Uiso   1.00
H392   H     0.90907   0.37065   0.25042   0.00000  Uiso   1.00
H393   H     0.75782   0.37063   0.24861   0.00000  Uiso   1.00
H394   H     0.75784   0.62935   0.24856   0.00000  Uiso   1.00
H395   H     0.97251   0.54393   0.18918   0.00000  Uiso   1.00
H396   H     0.72623   0.54387   0.18912   0.00000  Uiso   1.00
H397   H     0.69418   0.45602   0.31071   0.00000  Uiso   1.00
H398   H     0.94049   0.45600   0.31071   0.00000  Uiso   1.00
H399   H     0.95314   0.52377   0.41532   0.00000  Uiso   1.00
H400   H     0.71826   0.52803   0.40991   0.00000  Uiso   1.00
H401   H     0.75314   0.53605   0.05348   0.00000  Uiso   1.00
H402   H     0.69496   0.54385   0.00349   0.00000  Uiso   1.00
H403   H     0.90915   0.62938   0.25013   0.00000  Uiso   1.00
N404   N     0.71598   0.49999   0.24998   0.00000  Uiso   1.00
N405   N     0.95069   0.50002   0.24999   0.00000  Uiso   1.00
O406   O     0.79375   0.56011   0.25000   0.00000  Uiso   1.00
O407   O     0.87294   0.56012   0.25000   0.00000  Uiso   1.00
O408   O     0.77441   0.49998   0.32549   0.00000  Uiso   1.00
O409   O     0.85360   0.49999   0.32549   0.00000  Uiso   1.00
O410   O     0.79373   0.43988   0.24999   0.00000  Uiso   1.00
O411   O     0.87292   0.43989   0.24999   0.00000  Uiso   1.00
O412   O     0.81306   0.50001   0.17451   0.00000  Uiso   1.00
O413   O     0.89225   0.50002   0.17451   0.00000  Uiso   1.00
C414   C     0.98039   0.46797   0.48045   0.00000  Uiso   1.00
O415   O     0.67646   0.45721   0.00343   0.00000  Uiso   1.00
O416   O     0.98932   0.45828   0.42767   0.00000  Uiso   1.00
H417   H     0.68855   0.44405   0.41280   0.00000  Uiso   1.00
O418   O     0.78807   0.48691   0.09222   0.00000  Uiso   1.00
C419   C     0.78288   0.44377   0.09979   0.00000  Uiso   1.00
H420   H     0.74846   0.43842   0.13109   0.00000  Uiso   1.00
H421   H     0.81264   0.42989   0.11376   0.00000  Uiso   1.00
C422   C     0.77923   0.42193   0.05023   0.00000  Uiso   1.00
H423   H     0.75051   0.43687   0.03596   0.00000  Uiso   1.00
H424   H     0.81452   0.42448   0.01944   0.00000  Uiso   1.00
C425   C     0.76684   0.37645   0.06037   0.00000  Uiso   1.00
H426   H     0.79551   0.36080   0.07418   0.00000  Uiso   1.00
H427   H     0.76474   0.36148   0.02376   0.00000  Uiso   1.00
H428   H     0.73100   0.37291   0.09008   0.00000  Uiso   1.00
C429   C     0.89667   0.56126   0.36526   0.00000  Uiso   1.00
O430   O     0.86716   0.58500   0.35552   0.00000  Uiso   1.00
O431   O     0.94598   0.56401   0.33732   0.00000  Uiso   1.00
H432   H     0.95237   0.58606   0.30942   0.00000  Uiso   1.00
C433   C     0.16675   0.91265   0.24970   0.00000  Uiso   1.00
C434   C     0.14814   0.85256   0.48695   0.00000  Uiso   1.00
C435   C     0.16374   0.85604   0.43224   0.00000  Uiso   1.00
C436   C     0.18287   0.84066   0.01345   0.00000  Uiso   1.00
C437   C     0.23293   0.83685   0.48489   0.00000  Uiso   1.00
C438   C     0.24806   0.85176   0.43378   0.00000  Uiso   1.00
C439   C     0.21385   0.86450   0.40864   0.00000  Uiso   1.00
C440   C     0.16947   0.82994   0.06658   0.00000  Uiso   1.00
C441   C     0.25432   0.82185   0.06422   0.00000  Uiso   1.00
C442   C     0.12819   0.85258   0.40430   0.00000  Uiso   1.00
C443   C     0.20927   0.97872   0.24985   0.00000  Uiso   1.00
C444   C     0.14139   0.83948   0.34910   0.00000  Uiso   1.00
C445   C     0.20923   0.68796   0.24999   0.00000  Uiso   1.00
C446   C     0.16675   0.70941   0.24963   0.00000  Uiso   1.00
C447   C     0.12434   0.68795   0.24901   0.00000  Uiso   1.00
C448   C     0.12435   0.97871   0.24896   0.00000  Uiso   1.00
C449   C     0.16680   0.95726   0.24948   0.00000  Uiso   1.00
C450   C     0.31744   0.85769   0.21617   0.00000  Uiso   1.00
C451   C     0.03373   0.85767   0.21616   0.00000  Uiso   1.00
C452   C     0.01592   0.80892   0.28372   0.00000  Uiso   1.00
C453   C     0.29965   0.80887   0.28366   0.00000  Uiso   1.00
C454   C     0.16668   0.75402   0.24990   0.00000  Uiso   1.00
C455   C     0.19225   0.83117   0.15001   0.00000  Uiso   1.00
C456   C     0.26715   0.82149   0.00970   0.00000  Uiso   1.00
C457   C     0.20585   0.82830   0.09292   0.00000  Uiso   1.00
C458   C     0.07921   0.86067   0.43056   0.00000  Uiso   1.00
C459   C     0.06562   0.86880   0.48376   0.00000  Uiso   1.00
C460   C     0.09917   0.86331   0.01226   0.00000  Uiso   1.00
Cu461  Cu    0.11978   0.83333   0.25000   0.00000  Uiso   1.00
Cu462  Cu    0.21355   0.83334   0.25000   0.00000  Uiso   1.00
H463   H     0.28138   0.81480   0.08438   0.00000  Uiso   1.00
H464   H     0.24240   0.70398   0.25042   0.00000  Uiso   1.00
H465   H     0.09116   0.70396   0.24861   0.00000  Uiso   1.00
H466   H     0.09118   0.96268   0.24856   0.00000  Uiso   1.00
H467   H     0.30584   0.87727   0.18918   0.00000  Uiso   1.00
H468   H     0.05956   0.87720   0.18912   0.00000  Uiso   1.00
H469   H     0.02752   0.78935   0.31071   0.00000  Uiso   1.00
H470   H     0.27382   0.78934   0.31071   0.00000  Uiso   1.00
H471   H     0.28647   0.85710   0.41532   0.00000  Uiso   1.00
H472   H     0.05159   0.86137   0.40991   0.00000  Uiso   1.00
H473   H     0.08647   0.86938   0.05348   0.00000  Uiso   1.00
H474   H     0.02829   0.87718   0.00349   0.00000  Uiso   1.00
H475   H     0.24248   0.96272   0.25013   0.00000  Uiso   1.00
N476   N     0.04931   0.83332   0.24998   0.00000  Uiso   1.00
N477   N     0.28402   0.83335   0.24999   0.00000  Uiso   1.00
O478   O     0.12708   0.89345   0.25000   0.00000  Uiso   1.00
O479   O     0.20627   0.89346   0.25000   0.00000  Uiso   1.00
O480   O     0.10775   0.83332   0.32549   0.00000  Uiso   1.00
O481   O     0.18694   0.83333   0.32549   0.00000  Uiso   1.00
O482   O     0.12706   0.77321   0.24999   0.00000  Uiso   1.00
O483   O     0.20625   0.77322   0.24999   0.00000  Uiso   1.00
O484   O     0.14640   0.83334   0.17451   0.00000  Uiso   1.00
O485   O     0.22559   0.83335   0.17451   0.00000  Uiso   1.00
C486   C     0.31372   0.80130   0.48045   0.00000  Uiso   1.00
O487   O     0.00979   0.79054   0.00343   0.00000  Uiso   1.00
O488   O     0.32265   0.79162   0.42767   0.00000  Uiso   1.00
H489   H     0.02188   0.77739   0.41280   0.00000  Uiso   1.00
O490   O     0.12140   0.82025   0.09222   0.00000  Uiso   1.00
C491   C     0.11621   0.77710   0.09979   0.00000  Uiso   1.00
H492   H     0.08179   0.77175   0.13109   0.00000  Uiso   1.00
H493   H     0.14597   0.76322   0.11376   0.00000  Uiso   1.00
C494   C     0.11256   0.75526   0.05023   0.00000  Uiso   1.00
H495   H     0.08384   0.77020   0.03596   0.00000  Uiso   1.00
H496   H     0.14785   0.75781   0.01944   0.00000  Uiso   1.00
C497   C     0.10017   0.70978   0.06037   0.00000  Uiso   1.00
H498   H     0.12884   0.69413   0.07418   0.00000  Uiso   1.00
H499   H     0.09807   0.69482   0.02376   0.00000  Uiso   1.00
H500   H     0.06434   0.70625   0.09008   0.00000  Uiso   1.00
C501   C     0.23000   0.89459   0.36526   0.00000  Uiso   1.00
O502   O     0.20050   0.91833   0.35552   0.00000  Uiso   1.00
O503   O     0.27931   0.89734   0.33732   0.00000  Uiso   1.00
H504   H     0.28570   0.91940   0.30942   0.00000  Uiso   1.00
C505   C     0.50008   0.91265   0.24970   0.00000  Uiso   1.00
C506   C     0.48148   0.85256   0.48695   0.00000  Uiso   1.00
C507   C     0.49708   0.85604   0.43224   0.00000  Uiso   1.00
C508   C     0.51620   0.84066   0.01345   0.00000  Uiso   1.00
C509   C     0.56627   0.83685   0.48489   0.00000  Uiso   1.00
C510   C     0.58139   0.85176   0.43378   0.00000  Uiso   1.00
C511   C     0.54719   0.86450   0.40864   0.00000  Uiso   1.00
C512   C     0.50280   0.82994   0.06658   0.00000  Uiso   1.00
C513   C     0.58765   0.82185   0.06422   0.00000  Uiso   1.00
C514   C     0.46152   0.85258   0.40430   0.00000  Uiso   1.00
C515   C     0.54261   0.97872   0.24985   0.00000  Uiso   1.00
C516   C     0.47472   0.83948   0.34910   0.00000  Uiso   1.00
C517   C     0.54256   0.68796   0.24999   0.00000  Uiso   1.00
C518   C     0.50008   0.70941   0.24963   0.00000  Uiso   1.00
C519   C     0.45767   0.68795   0.24901   0.00000  Uiso   1.00
C520   C     0.45769   0.97871   0.24896   0.00000  Uiso   1.00
C521   C     0.50013   0.95726   0.24948   0.00000  Uiso   1.00
C522   C     0.65077   0.85769   0.21617   0.00000  Uiso   1.00
C523   C     0.36706   0.85767   0.21616   0.00000  Uiso   1.00
C524   C     0.34925   0.80892   0.28372   0.00000  Uiso   1.00
C525   C     0.63298   0.80887   0.28366   0.00000  Uiso   1.00
C526   C     0.50001   0.75402   0.24990   0.00000  Uiso   1.00
C527   C     0.52558   0.83117   0.15001   0.00000  Uiso   1.00
C528   C     0.60048   0.82149   0.00970   0.00000  Uiso   1.00
C529   C     0.53918   0.82830   0.09292   0.00000  Uiso   1.00
C530   C     0.41254   0.86067   0.43056   0.00000  Uiso   1.00
C531   C     0.39896   0.86880   0.48376   0.00000  Uiso   1.00
C532   C     0.43250   0.86331   0.01226   0.00000  Uiso   1.00
Cu533  Cu    0.45311   0.83333   0.25000   0.00000  Uiso   1.00
Cu534  Cu    0.54689   0.83334   0.25000   0.00000  Uiso   1.00
H535   H     0.61471   0.81480   0.08438   0.00000  Uiso   1.00
H536   H     0.57574   0.70398   0.25042   0.00000  Uiso   1.00
H537   H     0.42449   0.70396   0.24861   0.00000  Uiso   1.00
H538   H     0.42451   0.96268   0.24856   0.00000  Uiso   1.00
H539   H     0.63918   0.87727   0.18918   0.00000  Uiso   1.00
H540   H     0.39290   0.87720   0.18912   0.00000  Uiso   1.00
H541   H     0.36085   0.78935   0.31071   0.00000  Uiso   1.00
H542   H     0.60715   0.78934   0.31071   0.00000  Uiso   1.00
H543   H     0.61980   0.85710   0.41532   0.00000  Uiso   1.00
H544   H     0.38493   0.86137   0.40991   0.00000  Uiso   1.00
H545   H     0.41980   0.86938   0.05348   0.00000  Uiso   1.00
H546   H     0.36163   0.87718   0.00349   0.00000  Uiso   1.00
H547   H     0.57581   0.96272   0.25013   0.00000  Uiso   1.00
N548   N     0.38265   0.83332   0.24998   0.00000  Uiso   1.00
N549   N     0.61735   0.83335   0.24999   0.00000  Uiso   1.00
O550   O     0.46042   0.89345   0.25000   0.00000  Uiso   1.00
O551   O     0.53961   0.89346   0.25000   0.00000  Uiso   1.00
O552   O     0.44108   0.83332   0.32549   0.00000  Uiso   1.00
O553   O     0.52027   0.83333   0.32549   0.00000  Uiso   1.00
O554   O     0.46039   0.77321   0.24999   0.00000  Uiso   1.00
O555   O     0.53958   0.77322   0.24999   0.00000  Uiso   1.00
O556   O     0.47973   0.83334   0.17451   0.00000  Uiso   1.00
O557   O     0.55892   0.83335   0.17451   0.00000  Uiso   1.00
C558   C     0.64705   0.80130   0.48045   0.00000  Uiso   1.00
O559   O     0.34313   0.79054   0.00343   0.00000  Uiso   1.00
O560   O     0.65598   0.79162   0.42767   0.00000  Uiso   1.00
H561   H     0.35521   0.77739   0.41280   0.00000  Uiso   1.00
O562   O     0.45473   0.82025   0.09222   0.00000  Uiso   1.00
C563   C     0.44955   0.77710   0.09979   0.00000  Uiso   1.00
H564   H     0.41513   0.77175   0.13109   0.00000  Uiso   1.00
H565   H     0.47930   0.76322   0.11376   0.00000  Uiso   1.00
C566   C     0.44590   0.75526   0.05023   0.00000  Uiso   1.00
H567   H     0.41718   0.77020   0.03596   0.00000  Uiso   1.00
H568   H     0.48119   0.75781   0.01944   0.00000  Uiso   1.00
C569   C     0.43350   0.70978   0.06037   0.00000  Uiso   1.00
H570   H     0.46217   0.69413   0.07418   0.00000  Uiso   1.00
H571   H     0.43140   0.69482   0.02376   0.00000  Uiso   1.00
H572   H     0.39767   0.70625   0.09008   0.00000  Uiso   1.00
C573   C     0.56334   0.89459   0.36526   0.00000  Uiso   1.00
O574   O     0.53383   0.91833   0.35552   0.00000  Uiso   1.00
O575   O     0.61264   0.89734   0.33732   0.00000  Uiso   1.00
H576   H     0.61903   0.91940   0.30942   0.00000  Uiso   1.00
C577   C     0.83342   0.91265   0.24970   0.00000  Uiso   1.00
C578   C     0.81481   0.85256   0.48695   0.00000  Uiso   1.00
C579   C     0.83041   0.85604   0.43224   0.00000  Uiso   1.00
C580   C     0.84954   0.84066   0.01345   0.00000  Uiso   1.00
C581   C     0.89960   0.83685   0.48489   0.00000  Uiso   1.00
C582   C     0.91472   0.85176   0.43378   0.00000  Uiso   1.00
C583   C     0.88052   0.86450   0.40864   0.00000  Uiso   1.00
C584   C     0.83613   0.82994   0.06658   0.00000  Uiso   1.00
C585   C     0.92098   0.82185   0.06422   0.00000  Uiso   1.00
C586   C     0.79485   0.85258   0.40430   0.00000  Uiso   1.00
C587   C     0.87594   0.97872   0.24985   0.00000  Uiso   1.00
C588   C     0.80806   0.83948   0.34910   0.00000  Uiso   1.00
C589   C     0.87590   0.68796   0.24999   0.00000  Uiso   1.00
C590   C     0.83341   0.70941   0.24963   0.00000  Uiso   1.00
C591   C     0.79100   0.68795   0.24901   0.00000  Uiso   1.00
C592   C     0.79102   0.97871   0.24896   0.00000  Uiso   1.00
C593   C     0.83347   0.95726   0.24948   0.00000  Uiso   1.00
C594   C     0.98410   0.85769   0.21617   0.00000  Uiso   1.00
C595   C     0.70039   0.85767   0.21616   0.00000  Uiso   1.00
C596   C     0.68259   0.80892   0.28372   0.00000  Uiso   1.00
C597   C     0.96632   0.80887   0.28366   0.00000  Uiso   1.00
C598   C     0.83334   0.75402   0.24990   0.00000  Uiso   1.00
C599   C     0.85892   0.83117   0.15001   0.00000  Uiso   1.00
C600   C     0.93381   0.82149   0.00970   0.00000  Uiso   1.00
C601   C     0.87251   0.82830   0.09292   0.00000  Uiso   1.00
C602   C     0.74588   0.86067   0.43056   0.00000  Uiso   1.00
C603   C     0.73229   0.86880   0.48376   0.00000  Uiso   1.00
C604   C     0.76584   0.86331   0.01226   0.00000  Uiso   1.00
Cu605  Cu    0.78645   0.83333   0.25000   0.00000  Uiso   1.00
Cu606  Cu    0.88022   0.83334   0.25000   0.00000  Uiso   1.00
H607   H     0.94804   0.81480   0.08438   0.00000  Uiso   1.00
H608   H     0.90907   0.70398   0.25042   0.00000  Uiso   1.00
H609   H     0.75782   0.70396   0.24861   0.00000  Uiso   1.00
H610   H     0.75784   0.96268   0.24856   0.00000  Uiso   1.00
H611   H     0.97251   0.87727   0.18918   0.00000  Uiso   1.00
H612   H     0.72623   0.87720   0.18912   0.00000  Uiso   1.00
H613   H     0.69418   0.78935   0.31071   0.00000  Uiso   1.00
H614   H     0.94049   0.78934   0.31071   0.00000  Uiso   1.00
H615   H     0.95314   0.85710   0.41532   0.00000  Uiso   1.00
H616   H     0.71826   0.86137   0.40991   0.00000  Uiso   1.00
H617   H     0.75314   0.86938   0.05348   0.00000  Uiso   1.00
H618   H     0.69496   0.87718   0.00349   0.00000  Uiso   1.00
H619   H     0.90915   0.96272   0.25013   0.00000  Uiso   1.00
N620   N     0.71598   0.83332   0.24998   0.00000  Uiso   1.00
N621   N     0.95069   0.83335   0.24999   0.00000  Uiso   1.00
O622   O     0.79375   0.89345   0.25000   0.00000  Uiso   1.00
O623   O     0.87294   0.89346   0.25000   0.00000  Uiso   1.00
O624   O     0.77441   0.83332   0.32549   0.00000  Uiso   1.00
O625   O     0.85360   0.83333   0.32549   0.00000  Uiso   1.00
O626   O     0.79373   0.77321   0.24999   0.00000  Uiso   1.00
O627   O     0.87292   0.77322   0.24999   0.00000  Uiso   1.00
O628   O     0.81306   0.83334   0.17451   0.00000  Uiso   1.00
O629   O     0.89225   0.83335   0.17451   0.00000  Uiso   1.00
C630   C     0.98039   0.80130   0.48045   0.00000  Uiso   1.00
O631   O     0.67646   0.79054   0.00343   0.00000  Uiso   1.00
O632   O     0.98932   0.79162   0.42767   0.00000  Uiso   1.00
H633   H     0.68855   0.77739   0.41280   0.00000  Uiso   1.00
O634   O     0.78807   0.82025   0.09222   0.00000  Uiso   1.00
C635   C     0.78288   0.77710   0.09979   0.00000  Uiso   1.00
H636   H     0.74846   0.77175   0.13109   0.00000  Uiso   1.00
H637   H     0.81264   0.76322   0.11376   0.00000  Uiso   1.00
C638   C     0.77923   0.75526   0.05023   0.00000  Uiso   1.00
H639   H     0.75051   0.77020   0.03596   0.00000  Uiso   1.00
H640   H     0.81452   0.75781   0.01944   0.00000  Uiso   1.00
C641   C     0.76684   0.70978   0.06037   0.00000  Uiso   1.00
H642   H     0.79551   0.69413   0.07418   0.00000  Uiso   1.00
H643   H     0.76474   0.69482   0.02376   0.00000  Uiso   1.00
H644   H     0.73100   0.70625   0.09008   0.00000  Uiso   1.00
C645   C     0.89667   0.89459   0.36526   0.00000  Uiso   1.00
O646   O     0.86716   0.91833   0.35552   0.00000  Uiso   1.00
O647   O     0.94598   0.89734   0.33732   0.00000  Uiso   1.00
H648   H     0.95237   0.91940   0.30942   0.00000  Uiso   1.00
C649   C     0.16675   0.24598   0.74970   0.00000  Uiso   1.00
C650   C     0.14814   0.18590   0.98695   0.00000  Uiso   1.00
C651   C     0.16374   0.18938   0.93224   0.00000  Uiso   1.00
C652   C     0.18287   0.17399   0.51345   0.00000  Uiso   1.00
C653   C     0.23293   0.17019   0.98489   0.00000  Uiso   1.00
C654   C     0.24806   0.18509   0.93378   0.00000  Uiso   1.00
C655   C     0.21385   0.19783   0.90864   0.00000  Uiso   1.00
C656   C     0.16947   0.16327   0.56658   0.00000  Uiso   1.00
C657   C     0.25432   0.15518   0.56422   0.00000  Uiso   1.00
C658   C     0.12819   0.18592   0.90430   0.00000  Uiso   1.00
C659   C     0.20927   0.31206   0.74985   0.00000  Uiso   1.00
C660   C     0.14139   0.17281   0.84910   0.00000  Uiso   1.00
C661   C     0.20923   0.02129   0.74999   0.00000  Uiso   1.00
C662   C     0.16675   0.04274   0.74963   0.00000  Uiso   1.00
C663   C     0.12434   0.02128   0.74901   0.00000  Uiso   1.00
C664   C     0.12435   0.31204   0.74896   0.00000  Uiso   1.00
C665   C     0.16680   0.29059   0.74948   0.00000  Uiso   1.00
C666   C     0.31744   0.19102   0.71617   0.00000  Uiso   1.00
C667   C     0.03373   0.19100   0.71616   0.00000  Uiso   1.00
C668   C     0.01592   0.14225   0.78372   0.00000  Uiso   1.00
C669   C     0.29965   0.14220   0.78366   0.00000  Uiso   1.00
C670   C     0.16668   0.08736   0.74990   0.00000  Uiso   1.00
C671   C     0.19225   0.16450   0.65001   0.00000  Uiso   1.00
C672   C     0.26715   0.15483   0.50970   0.00000  Uiso   1.00
C673   C     0.20585   0.16163   0.59292   0.00000  Uiso   1.00
C674   C     0.07921   0.19400   0.93056   0.00000  Uiso   1.00
C675   C     0.06562   0.20213   0.98376   0.00000  Uiso   1.00
C676   C     0.09917   0.19664   0.51226   0.00000  Uiso   1.00
Cu677  Cu    0.11978   0.16666   0.75000   0.00000  Uiso   1.00
Cu678  Cu    0.21355   0.16667   0.75000   0.00000  Uiso   1.00
H679   H     0.28138   0.14813   0.58438   0.00000  Uiso   1.00
H680   H     0.24240   0.03731   0.75042   0.00000  Uiso   1.00
H681   H     0.09116   0.03730   0.74861   0.00000  Uiso   1.00
H682   H     0.09118   0.29601   0.74856   0.00000  Uiso   1.00
H683   H     0.30584   0.21060   0.68918   0.00000  Uiso   1.00
H684   H     0.05956   0.21054   0.68912   0.00000  Uiso   1.00
H685   H     0.02752   0.12268   0.81071   0.00000  Uiso   1.00
H686   H     0.27382   0.12267   0.81071   0.00000  Uiso   1.00
H687   H     0.28647   0.19044   0.91532   0.00000  Uiso   1.00
H688   H     0.05159   0.19470   0.90991   0.00000  Uiso   1.00
H689   H     0.08647   0.20271   0.55348   0.00000  Uiso   1.00
H690   H     0.02829   0.21052   0.50349   0.00000  Uiso   1.00
H691   H     0.24248   0.29605   0.75013   0.00000  Uiso   1.00
N692   N     0.04931   0.16666   0.74998   0.00000  Uiso   1.00
N693   N     0.28402   0.16669   0.74999   0.00000  Uiso   1.00
O694   O     0.12708   0.22678   0.75000   0.00000  Uiso   1.00
O695   O     0.20627   0.22679   0.75000   0.00000  Uiso   1.00
O696   O     0.10775   0.16665   0.82549   0.00000  Uiso   1.00
O697   O     0.18694   0.16666   0.82549   0.00000  Uiso   1.00
O698   O     0.12706   0.10654   0.74999   0.00000  Uiso   1.00
O699   O     0.20625   0.10655   0.74999   0.00000  Uiso   1.00
O700   O     0.14640   0.16667   0.67451   0.00000  Uiso   1.00
O701   O     0.22559   0.16668   0.67451   0.00000  Uiso   1.00
C702   C     0.31372   0.13464   0.98045   0.00000  Uiso   1.00
O703   O     0.00979   0.12388   0.50343   0.00000  Uiso   1.00
O704   O     0.32265   0.12495   0.92767   0.00000  Uiso   1.00
H705   H     0.02188   0.11072   0.91280   0.00000  Uiso   1.00
O706   O     0.12140   0.15358   0.59222   0.00000  Uiso   1.00
C707   C     0.11621   0.11044   0.59979   0.00000  Uiso   1.00
H708   H     0.08179   0.10508   0.63109   0.00000  Uiso   1.00
H709   H     0.14597   0.09656   0.61376   0.00000  Uiso   1.00
C710   C     0.11256   0.08859   0.55023   0.00000  Uiso   1.00
H711   H     0.08384   0.10354   0.53596   0.00000  Uiso   1.00
H712   H     0.14785   0.09115   0.51944   0.00000  Uiso   1.00
C713   C     0.10017   0.04311   0.56037   0.00000  Uiso   1.00
H714   H     0.12884   0.02746   0.57418   0.00000  Uiso   1.00
H715   H     0.09807   0.02815   0.52376   0.00000  Uiso   1.00
H716   H     0.06434   0.03958   0.59008   0.00000  Uiso   1.00
C717   C     0.23000   0.22793   0.86526   0.00000  Uiso   1.00
O718   O     0.20050   0.25167   0.85552   0.00000  Uiso   1.00
O719   O     0.27931   0.23068   0.83732   0.00000  Uiso   1.00
H720   H     0.28570   0.25273   0.80942   0.00000  Uiso   1.00
C721   C     0.50008   0.24598   0.74970   0.00000  Uiso   1.00
C722   C     0.48148   0.18590   0.98695   0.00000  Uiso   1.00
C723   C     0.49708   0.18938   0.93224   0.00000  Uiso   1.00
C724   C     0.51620   0.17399   0.51345   0.00000  Uiso   1.00
C725   C     0.56627   0.17019   0.98489   0.00000  Uiso   1.00
C726   C     0.58139   0.18509   0.93378   0.00000  Uiso   1.00
C727   C     0.54719   0.19783   0.90864   0.00000  Uiso   1.00
C728   C     0.50280   0.16327   0.56658   0.00000  Uiso   1.00
C729   C     0.58765   0.15518   0.56422   0.00000  Uiso   1.00
C730   C     0.46152   0.18592   0.90430   0.00000  Uiso   1.00
C731   C     0.54261   0.31206   0.74985   0.00000  Uiso   1.00
C732   C     0.47472   0.17281   0.84910   0.00000  Uiso   1.00
C733   C     0.54256   0.02129   0.74999   0.00000  Uiso   1.00
C734   C     0.50008   0.04274   0.74963   0.00000  Uiso   1.00
C735   C     0.45767   0.02128   0.74901   0.00000  Uiso   1.00
C736   C     0.45769   0.31204   0.74896   0.00000  Uiso   1.00
C737   C     0.50013   0.29059   0.74948   0.00000  Uiso   1.00
C738   C     0.65077   0.19102   0.71617   0.00000  Uiso   1.00
C739   C     0.36706   0.19100   0.71616   0.00000  Uiso   1.00
C740   C     0.34925   0.14225   0.78372   0.00000  Uiso   1.00
C741   C     0.63298   0.14220   0.78366   0.00000  Uiso   1.00
C742   C     0.50001   0.08736   0.74990   0.00000  Uiso   1.00
C743   C     0.52558   0.16450   0.65001   0.00000  Uiso   1.00
C744   C     0.60048   0.15483   0.50970   0.00000  Uiso   1.00
C745   C     0.53918   0.16163   0.59292   0.00000  Uiso   1.00
C746   C     0.41254   0.19400   0.93056   0.00000  Uiso   1.00
C747   C     0.39896   0.20213   0.98376   0.00000  Uiso   1.00
C748   C     0.43250   0.19664   0.51226   0.00000  Uiso   1.00
Cu749  Cu    0.45311   0.16666   0.75000   0.00000  Uiso   1.00
Cu750  Cu    0.54689   0.16667   0.75000   0.00000  Uiso   1.00
H751   H     0.61471   0.14813   0.58438   0.00000  Uiso   1.00
H752   H     0.57574   0.03731   0.75042   0.00000  Uiso   1.00
H753   H     0.42449   0.03730   0.74861   0.00000  Uiso   1.00
H754   H     0.42451   0.29601   0.74856   0.00000  Uiso   1.00
H755   H     0.63918   0.21060   0.68918   0.00000  Uiso   1.00
H756   H     0.39290   0.21054   0.68912   0.00000  Uiso   1.00
H757   H     0.36085   0.12268   0.81071   0.00000  Uiso   1.00
H758   H     0.60715   0.12267   0.81071   0.00000  Uiso   1.00
H759   H     0.61980   0.19044   0.91532   0.00000  Uiso   1.00
H760   H     0.38493   0.19470   0.90991   0.00000  Uiso   1.00
H761   H     0.41980   0.20271   0.55348   0.00000  Uiso   1.00
H762   H     0.36163   0.21052   0.50349   0.00000  Uiso   1.00
H763   H     0.57581   0.29605   0.75013   0.00000  Uiso   1.00
N764   N     0.38265   0.16666   0.74998   0.00000  Uiso   1.00
N765   N     0.61735   0.16669   0.74999   0.00000  Uiso   1.00
O766   O     0.46042   0.22678   0.75000   0.00000  Uiso   1.00
O767   O     0.53961   0.22679   0.75000   0.00000  Uiso   1.00
O768   O     0.44108   0.16665   0.82549   0.00000  Uiso   1.00
O769   O     0.52027   0.16666   0.82549   0.00000  Uiso   1.00
O770   O     0.46039   0.10654   0.74999   0.00000  Uiso   1.00
O771   O     0.53958   0.10655   0.74999   0.00000  Uiso   1.00
O772   O     0.47973   0.16667   0.67451   0.00000  Uiso   1.00
O773   O     0.55892   0.16668   0.67451   0.00000  Uiso   1.00
C774   C     0.64705   0.13464   0.98045   0.00000  Uiso   1.00
O775   O     0.34313   0.12388   0.50343   0.00000  Uiso   1.00
O776   O     0.65598   0.12495   0.92767   0.00000  Uiso   1.00
H777   H     0.35521   0.11072   0.91280   0.00000  Uiso   1.00
O778   O     0.45473   0.15358   0.59222   0.00000  Uiso   1.00
C779   C     0.44955   0.11044   0.59979   0.00000  Uiso   1.00
H780   H     0.41513   0.10508   0.63109   0.00000  Uiso   1.00
H781   H     0.47930   0.09656   0.61376   0.00000  Uiso   1.00
C782   C     0.44590   0.08859   0.55023   0.00000  Uiso   1.00
H783   H     0.41718   0.10354   0.53596   0.00000  Uiso   1.00
H784   H     0.48119   0.09115   0.51944   0.00000  Uiso   1.00
C785   C     0.43350   0.04311   0.56037   0.00000  Uiso   1.00
H786   H     0.46217   0.02746   0.57418   0.00000  Uiso   1.00
H787   H     0.43140   0.02815   0.52376   0.00000  Uiso   1.00
H788   H     0.39767   0.03958   0.59008   0.00000  Uiso   1.00
C789   C     0.56334   0.22793   0.86526   0.00000  Uiso   1.00
O790   O     0.53383   0.25167   0.85552   0.00000  Uiso   1.00
O791   O     0.61264   0.23068   0.83732   0.00000  Uiso   1.00
H792   H     0.61903   0.25273   0.80942   0.00000  Uiso   1.00
C793   C     0.83342   0.24598   0.74970   0.00000  Uiso   1.00
C794   C     0.81481   0.18590   0.98695   0.00000  Uiso   1.00
C795   C     0.83041   0.18938   0.93224   0.00000  Uiso   1.00
C796   C     0.84954   0.17399   0.51345   0.00000  Uiso   1.00
C797   C     0.89960   0.17019   0.98489   0.00000  Uiso   1.00
C798   C     0.91472   0.18509   0.93378   0.00000  Uiso   1.00
C799   C     0.88052   0.19783   0.90864   0.00000  Uiso   1.00
C800   C     0.83613   0.16327   0.56658   0.00000  Uiso   1.00
C801   C     0.92098   0.15518   0.56422   0.00000  Uiso   1.00
C802   C     0.79485   0.18592   0.90430   0.00000  Uiso   1.00
C803   C     0.87594   0.31206   0.74985   0.00000  Uiso   1.00
C804   C     0.80806   0.17281   0.84910   0.00000  Uiso   1.00
C805   C     0.87590   0.02129   0.74999   0.00000  Uiso   1.00
C806   C     0.83341   0.04274   0.74963   0.00000  Uiso   1.00
C807   C     0.79100   0.02128   0.74901   0.00000  Uiso   1.00
C808   C     0.79102   0.31204   0.74896   0.00000  Uiso   1.00
C809   C     0.83347   0.29059   0.74948   0.00000  Uiso   1.00
C810   C     0.98410   0.19102   0.71617   0.00000  Uiso   1.00
C811   C     0.70039   0.19100   0.71616   0.00000  Uiso   1.00
C812   C     0.68259   0.14225   0.78372   0.00000  Uiso   1.00
C813   C     0.96632   0.14220   0.78366   0.00000  Uiso   1.00
C814   C     0.83334   0.08736   0.74990   0.00000  Uiso   1.00
C815   C     0.85892   0.16450   0.65001   0.00000  Uiso   1.00
C816   C     0.93381   0.15483   0.50970   0.00000  Uiso   1.00
C817   C     0.87251   0.16163   0.59292   0.00000  Uiso   1.00
C818   C     0.74588   0.19400   0.93056   0.00000  Uiso   1.00
C819   C     0.73229   0.20213   0.98376   0.00000  Uiso   1.00
C820   C     0.76584   0.19664   0.51226   0.00000  Uiso   1.00
Cu821  Cu    0.78645   0.16666   0.75000   0.00000  Uiso   1.00
Cu822  Cu    0.88022   0.16667   0.75000   0.00000  Uiso   1.00
H823   H     0.94804   0.14813   0.58438   0.00000  Uiso   1.00
H824   H     0.90907   0.03731   0.75042   0.00000  Uiso   1.00
H825   H     0.75782   0.03730   0.74861   0.00000  Uiso   1.00
H826   H     0.75784   0.29601   0.74856   0.00000  Uiso   1.00
H827   H     0.97251   0.21060   0.68918   0.00000  Uiso   1.00
H828   H     0.72623   0.21054   0.68912   0.00000  Uiso   1.00
H829   H     0.69418   0.12268   0.81071   0.00000  Uiso   1.00
H830   H     0.94049   0.12267   0.81071   0.00000  Uiso   1.00
H831   H     0.95314   0.19044   0.91532   0.00000  Uiso   1.00
H832   H     0.71826   0.19470   0.90991   0.00000  Uiso   1.00
H833   H     0.75314   0.20271   0.55348   0.00000  Uiso   1.00
H834   H     0.69496   0.21052   0.50349   0.00000  Uiso   1.00
H835   H     0.90915   0.29605   0.75013   0.00000  Uiso   1.00
N836   N     0.71598   0.16666   0.74998   0.00000  Uiso   1.00
N837   N     0.95069   0.16669   0.74999   0.00000  Uiso   1.00
O838   O     0.79375   0.22678   0.75000   0.00000  Uiso   1.00
O839   O     0.87294   0.22679   0.75000   0.00000  Uiso   1.00
O840   O     0.77441   0.16665   0.82549   0.00000  Uiso   1.00
O841   O     0.85360   0.16666   0.82549   0.00000  Uiso   1.00
O842   O     0.79373   0.10654   0.74999   0.00000  Uiso   1.00
O843   O     0.87292   0.10655   0.74999   0.00000  Uiso   1.00
O844   O     0.81306   0.16667   0.67451   0.00000  Uiso   1.00
O845   O     0.89225   0.16668   0.67451   0.00000  Uiso   1.00
C846   C     0.98039   0.13464   0.98045   0.00000  Uiso   1.00
O847   O     0.67646   0.12388   0.50343   0.00000  Uiso   1.00
O848   O     0.98932   0.12495   0.92767   0.00000  Uiso   1.00
H849   H     0.68855   0.11072   0.91280   0.00000  Uiso   1.00
O850   O     0.78807   0.15358   0.59222   0.00000  Uiso   1.00
C851   C     0.78288   0.11044   0.59979   0.00000  Uiso   1.00
H852   H     0.74846   0.10508   0.63109   0.00000  Uiso   1.00
H853   H     0.81264   0.09656   0.61376   0.00000  Uiso   1.00
C854   C     0.77923   0.08859   0.55023   0.00000  Uiso   1.00
H855   H     0.75051   0.10354   0.53596   0.00000  Uiso   1.00
H856   H     0.81452   0.09115   0.51944   0.00000  Uiso   1.00
C857   C     0.76684   0.04311   0.56037   0.00000  Uiso   1.00
H858   H     0.79551   0.02746   0.57418   0.00000  Uiso   1.00
H859   H     0.76474   0.02815   0.52376   0.00000  Uiso   1.00
H860   H     0.73100   0.03958   0.59008   0.00000  Uiso   1.00
C861   C     0.89667   0.22793   0.86526   0.00000  Uiso   1.00
O862   O     0.86716   0.25167   0.85552   0.00000  Uiso   1.00
O863   O     0.94598   0.23068   0.83732   0.00000  Uiso   1.00
H864   H     0.95237   0.25273   0.80942   0.00000  Uiso   1.00
C865   C     0.16675   0.57931   0.74970   0.00000  Uiso   1.00
C866   C     0.14814   0.51923   0.98695   0.00000  Uiso   1.00
C867   C     0.16374   0.52271   0.93224   0.00000  Uiso   1.00
C868   C     0.18287   0.50733   0.51345   0.00000  Uiso   1.00
C869   C     0.23293   0.50352   0.98489   0.00000  Uiso   1.00
C870   C     0.24806   0.51843   0.93378   0.00000  Uiso   1.00
C871   C     0.21385   0.53116   0.90864   0.00000  Uiso   1.00
C872   C     0.16947   0.49661   0.56658   0.00000  Uiso   1.00
C873   C     0.25432   0.48851   0.56422   0.00000  Uiso   1.00
C874   C     0.12819   0.51925   0.90430   0.00000  Uiso   1.00
C875   C     0.20927   0.64539   0.74985   0.00000  Uiso   1.00
C876   C     0.14139   0.50615   0.84910   0.00000  Uiso   1.00
C877   C     0.20923   0.35463   0.74999   0.00000  Uiso   1.00
C878   C     0.16675   0.37608   0.74963   0.00000  Uiso   1.00
C879   C     0.12434   0.35462   0.74901   0.00000  Uiso   1.00
C880   C     0.12435   0.64537   0.74896   0.00000  Uiso   1.00
C881   C     0.16680   0.62393   0.74948   0.00000  Uiso   1.00
C882   C     0.31744   0.52436   0.71617   0.00000  Uiso   1.00
C883   C     0.03373   0.52433   0.71616   0.00000  Uiso   1.00
C884   C     0.01592   0.47559   0.78372   0.00000  Uiso   1.00
C885   C     0.29965   0.47554   0.78366   0.00000  Uiso   1.00
C886   C     0.16668   0.42069   0.74990   0.00000  Uiso   1.00
C887   C     0.19225   0.49784   0.65001   0.00000  Uiso   1.00
C888   C     0.26715   0.48816   0.50970   0.00000  Uiso   1.00
C889   C     0.20585   0.49496   0.59292   0.00000  Uiso   1.00
C890   C     0.07921   0.52734   0.93056   0.00000  Uiso   1.00
C891   C     0.06562   0.53547   0.98376   0.00000  Uiso   1.00
C892   C     0.09917   0.52997   0.51226   0.00000  Uiso   1.00
Cu893  Cu    0.11978   0.49999   0.75000   0.00000  Uiso   1.00
Cu894  Cu    0.21355   0.50001   0.75000   0.00000  Uiso   1.00
H895   H     0.28138   0.48146   0.58438   0.00000  Uiso   1.00
H896   H     0.24240   0.37065   0.75042   0.00000  Uiso   1.00
H897   H     0.09116   0.37063   0.74861   0.00000  Uiso   1.00
H898   H     0.09118   0.62935   0.74856   0.00000  Uiso   1.00
H899   H     0.30584   0.54393   0.68918   0.00000  Uiso   1.00
H900   H     0.05956   0.54387   0.68912   0.00000  Uiso   1.00
H901   H     0.02752   0.45602   0.81071   0.00000  Uiso   1.00
H902   H     0.27382   0.45600   0.81071   0.00000  Uiso   1.00
H903   H     0.28647   0.52377   0.91532   0.00000  Uiso   1.00
H904   H     0.05159   0.52803   0.90991   0.00000  Uiso   1.00
H905   H     0.08647   0.53605   0.55348   0.00000  Uiso   1.00
H906   H     0.02829   0.54385   0.50349   0.00000  Uiso   1.00
H907   H     0.24248   0.62938   0.75013   0.00000  Uiso   1.00
N908   N     0.04931   0.49999   0.74998   0.00000  Uiso   1.00
N909   N     0.28402   0.50002   0.74999   0.00000  Uiso   1.00
O910   O     0.12708   0.56011   0.75000   0.00000  Uiso   1.00
O911   O     0.20627   0.56012   0.75000   0.00000  Uiso   1.00
O912   O     0.10775   0.49998   0.82549   0.00000  Uiso   1.00
O913   O     0.18694   0.49999   0.82549   0.00000  Uiso   1.00
O914   O     0.12706   0.43988   0.74999   0.00000  Uiso   1.00
O915   O     0.20625   0.43989   0.74999   0.00000  Uiso   1.00
O916   O     0.14640   0.50001   0.67451   0.00000  Uiso   1.00
O917   O     0.22559   0.50002   0.67451   0.00000  Uiso   1.00
C918   C     0.31372   0.46797   0.98045   0.00000  Uiso   1.00
O919   O     0.00979   0.45721   0.50343   0.00000  Uiso   1.00
O920   O     0.32265   0.45828   0.92767   0.00000  Uiso   1.00
H921   H     0.02188   0.44405   0.91280   0.00000  Uiso   1.00
O922   O     0.12140   0.48691   0.59222   0.00000  Uiso   1.00
C923   C     0.11621   0.44377   0.59979   0.00000  Uiso   1.00
H924   H     0.08179   0.43842   0.63109   0.00000  Uiso   1.00
H925   H     0.14597   0.42989   0.61376   0.00000  Uiso   1.00
C926   C     0.11256   0.42193   0.55023   0.00000  Uiso   1.00
H927   H     0.08384   0.43687   0.53596   0.00000  Uiso   1.00
H928   H     0.14785   0.42448   0.51944   0.00000  Uiso   1.00
C929   C     0.10017   0.37645   0.56037   0.00000  Uiso   1.00
H930   H     0.12884   0.36080   0.57418   0.00000  Uiso   1.00
H931   H     0.09807   0.36148   0.52376   0.00000  Uiso   1.00
H932   H     0.06434   0.37291   0.59008   0.00000  Uiso   1.00
C933   C     0.23000   0.56126   0.86526   0.00000  Uiso   1.00
O934   O     0.20050   0.58500   0.85552   0.00000  Uiso   1.00
O935   O     0.27931   0.56401   0.83732   0.00000  Uiso   1.00
H936   H     0.28570   0.58606   0.80942   0.00000  Uiso   1.00
C937   C     0.50008   0.57931   0.74970   0.00000  Uiso   1.00
C938   C     0.48148   0.51923   0.98695   0.00000  Uiso   1.00
C939   C     0.49708   0.52271   0.93224   0.00000  Uiso   1.00
C940   C     0.51620   0.50733   0.51345   0.00000  Uiso   1.00
C941   C     0.56627   0.50352   0.98489   0.00000  Uiso   1.00
C942   C     0.58139   0.51843   0.93378   0.00000  Uiso   1.00
C943   C     0.54719   0.53116   0.90864   0.00000  Uiso   1.00
C944   C     0.50280   0.49661   0.56658   0.00000  Uiso   1.00
C945   C     0.58765   0.48851   0.56422   0.00000  Uiso   1.00
C946   C     0.46152   0.51925   0.90430   0.00000  Uiso   1.00
C947   C     0.54261   0.64539   0.74985   0.00000  Uiso   1.00
C948   C     0.47472   0.50615   0.84910   0.00000  Uiso   1.00
C949   C     0.54256   0.35463   0.74999   0.00000  Uiso   1.00
C950   C     0.50008   0.37608   0.74963   0.00000  Uiso   1.00
C951   C     0.45767   0.35462   0.74901   0.00000  Uiso   1.00
C952   C     0.45769   0.64537   0.74896   0.00000  Uiso   1.00
C953   C     0.50013   0.62393   0.74948   0.00000  Uiso   1.00
C954   C     0.65077   0.52436   0.71617   0.00000  Uiso   1.00
C955   C     0.36706   0.52433   0.71616   0.00000  Uiso   1.00
C956   C     0.34925   0.47559   0.78372   0.00000  Uiso   1.00
C957   C     0.63298   0.47554   0.78366   0.00000  Uiso   1.00
C958   C     0.50001   0.42069   0.74990   0.00000  Uiso   1.00
C959   C     0.52558   0.49784   0.65001   0.00000  Uiso   1.00
C960   C     0.60048   0.48816   0.50970   0.00000  Uiso   1.00
C961   C     0.53918   0.49496   0.59292   0.00000  Uiso   1.00
C962   C     0.41254   0.52734   0.93056   0.00000  Uiso   1.00
C963   C     0.39896   0.53547   0.98376   0.00000  Uiso   1.00
C964   C     0.43250   0.52997   0.51226   0.00000  Uiso   1.00
Cu965  Cu    0.45311   0.49999   0.75000   0.00000  Uiso   1.00
Cu966  Cu    0.54689   0.50001   0.75000   0.00000  Uiso   1.00
H967   H     0.61471   0.48146   0.58438   0.00000  Uiso   1.00
H968   H     0.57574   0.37065   0.75042   0.00000  Uiso   1.00
H969   H     0.42449   0.37063   0.74861   0.00000  Uiso   1.00
H970   H     0.42451   0.62935   0.74856   0.00000  Uiso   1.00
H971   H     0.63918   0.54393   0.68918   0.00000  Uiso   1.00
H972   H     0.39290   0.54387   0.68912   0.00000  Uiso   1.00
H973   H     0.36085   0.45602   0.81071   0.00000  Uiso   1.00
H974   H     0.60715   0.45600   0.81071   0.00000  Uiso   1.00
H975   H     0.61980   0.52377   0.91532   0.00000  Uiso   1.00
H976   H     0.38493   0.52803   0.90991   0.00000  Uiso   1.00
H977   H     0.41980   0.53605   0.55348   0.00000  Uiso   1.00
H978   H     0.36163   0.54385   0.50349   0.00000  Uiso   1.00
H979   H     0.57581   0.62938   0.75013   0.00000  Uiso   1.00
N980   N     0.38265   0.49999   0.74998   0.00000  Uiso   1.00
N981   N     0.61735   0.50002   0.74999   0.00000  Uiso   1.00
O982   O     0.46042   0.56011   0.75000   0.00000  Uiso   1.00
O983   O     0.53961   0.56012   0.75000   0.00000  Uiso   1.00
O984   O     0.44108   0.49998   0.82549   0.00000  Uiso   1.00
O985   O     0.52027   0.49999   0.82549   0.00000  Uiso   1.00
O986   O     0.46039   0.43988   0.74999   0.00000  Uiso   1.00
O987   O     0.53958   0.43989   0.74999   0.00000  Uiso   1.00
O988   O     0.47973   0.50001   0.67451   0.00000  Uiso   1.00
O989   O     0.55892   0.50002   0.67451   0.00000  Uiso   1.00
C990   C     0.64705   0.46797   0.98045   0.00000  Uiso   1.00
O991   O     0.34313   0.45721   0.50343   0.00000  Uiso   1.00
O992   O     0.65598   0.45828   0.92767   0.00000  Uiso   1.00
H993   H     0.35521   0.44405   0.91280   0.00000  Uiso   1.00
O994   O     0.45473   0.48691   0.59222   0.00000  Uiso   1.00
C995   C     0.44955   0.44377   0.59979   0.00000  Uiso   1.00
H996   H     0.41513   0.43842   0.63109   0.00000  Uiso   1.00
H997   H     0.47930   0.42989   0.61376   0.00000  Uiso   1.00
C998   C     0.44590   0.42193   0.55023   0.00000  Uiso   1.00
H999   H     0.41718   0.43687   0.53596   0.00000  Uiso   1.00
H1000  H     0.48119   0.42448   0.51944   0.00000  Uiso   1.00
C1001  C     0.43350   0.37645   0.56037   0.00000  Uiso   1.00
H1002  H     0.46217   0.36080   0.57418   0.00000  Uiso   1.00
H1003  H     0.43140   0.36148   0.52376   0.00000  Uiso   1.00
H1004  H     0.39767   0.37291   0.59008   0.00000  Uiso   1.00
C1005  C     0.56334   0.56126   0.86526   0.00000  Uiso   1.00
O1006  O     0.53383   0.58500   0.85552   0.00000  Uiso   1.00
O1007  O     0.61264   0.56401   0.83732   0.00000  Uiso   1.00
H1008  H     0.61903   0.58606   0.80942   0.00000  Uiso   1.00
C1009  C     0.83342   0.57931   0.74970   0.00000  Uiso   1.00
C1010  C     0.81481   0.51923   0.98695   0.00000  Uiso   1.00
C1011  C     0.83041   0.52271   0.93224   0.00000  Uiso   1.00
C1012  C     0.84954   0.50733   0.51345   0.00000  Uiso   1.00
C1013  C     0.89960   0.50352   0.98489   0.00000  Uiso   1.00
C1014  C     0.91472   0.51843   0.93378   0.00000  Uiso   1.00
C1015  C     0.88052   0.53116   0.90864   0.00000  Uiso   1.00
C1016  C     0.83613   0.49661   0.56658   0.00000  Uiso   1.00
C1017  C     0.92098   0.48851   0.56422   0.00000  Uiso   1.00
C1018  C     0.79485   0.51925   0.90430   0.00000  Uiso   1.00
C1019  C     0.87594   0.64539   0.74985   0.00000  Uiso   1.00
C1020  C     0.80806   0.50615   0.84910   0.00000  Uiso   1.00
C1021  C     0.87590   0.35463   0.74999   0.00000  Uiso   1.00
C1022  C     0.83341   0.37608   0.74963   0.00000  Uiso   1.00
C1023  C     0.79100   0.35462   0.74901   0.00000  Uiso   1.00
C1024  C     0.79102   0.64537   0.74896   0.00000  Uiso   1.00
C1025  C     0.83347   0.62393   0.74948   0.00000  Uiso   1.00
C1026  C     0.98410   0.52436   0.71617   0.00000  Uiso   1.00
C1027  C     0.70039   0.52433   0.71616   0.00000  Uiso   1.00
C1028  C     0.68259   0.47559   0.78372   0.00000  Uiso   1.00
C1029  C     0.96632   0.47554   0.78366   0.00000  Uiso   1.00
C1030  C     0.83334   0.42069   0.74990   0.00000  Uiso   1.00
C1031  C     0.85892   0.49784   0.65001   0.00000  Uiso   1.00
C1032  C     0.93381   0.48816   0.50970   0.00000  Uiso   1.00
C1033  C     0.87251   0.49496   0.59292   0.00000  Uiso   1.00
C1034  C     0.74588   0.52734   0.93056   0.00000  Uiso   1.00
C1035  C     0.73229   0.53547   0.98376   0.00000  Uiso   1.00
C1036  C     0.76584   0.52997   0.51226   0.00000  Uiso   1.00
Cu1037 Cu    0.78645   0.49999   0.75000   0.00000  Uiso   1.00
Cu1038 Cu    0.88022   0.50001   0.75000   0.00000  Uiso   1.00
H1039  H     0.94804   0.48146   0.58438   0.00000  Uiso   1.00
H1040  H     0.90907   0.37065   0.75042   0.00000  Uiso   1.00
H1041  H     0.75782   0.37063   0.74861   0.00000  Uiso   1.00
H1042  H     0.75784   0.62935   0.74856   0.00000  Uiso   1.00
H1043  H     0.97251   0.54393   0.68918   0.00000  Uiso   1.00
H1044  H     0.72623   0.54387   0.68912   0.00000  Uiso   1.00
H1045  H     0.69418   0.45602   0.81071   0.00000  Uiso   1.00
H1046  H     0.94049   0.45600   0.81071   0.00000  Uiso   1.00
H1047  H     0.95314   0.52377   0.91532   0.00000  Uiso   1.00
H1048  H     0.71826   0.52803   0.90991   0.00000  Uiso   1.00
H1049  H     0.75314   0.53605   0.55348   0.00000  Uiso   1.00
H1050  H     0.69496   0.54385   0.50349   0.00000  Uiso   1.00
H1051  H     0.90915   0.62938   0.75013   0.00000  Uiso   1.00
N1052  N     0.71598   0.49999   0.74998   0.00000  Uiso   1.00
N1053  N     0.95069   0.50002   0.74999   0.00000  Uiso   1.00
O1054  O     0.79375   0.56011   0.75000   0.00000  Uiso   1.00
O1055  O     0.87294   0.56012   0.75000   0.00000  Uiso   1.00
O1056  O     0.77441   0.49998   0.82549   0.00000  Uiso   1.00
O1057  O     0.85360   0.49999   0.82549   0.00000  Uiso   1.00
O1058  O     0.79373   0.43988   0.74999   0.00000  Uiso   1.00
O1059  O     0.87292   0.43989   0.74999   0.00000  Uiso   1.00
O1060  O     0.81306   0.50001   0.67451   0.00000  Uiso   1.00
O1061  O     0.89225   0.50002   0.67451   0.00000  Uiso   1.00
C1062  C     0.98039   0.46797   0.98045   0.00000  Uiso   1.00
O1063  O     0.67646   0.45721   0.50343   0.00000  Uiso   1.00
O1064  O     0.98932   0.45828   0.92767   0.00000  Uiso   1.00
H1065  H     0.68855   0.44405   0.91280   0.00000  Uiso   1.00
O1066  O     0.78807   0.48691   0.59222   0.00000  Uiso   1.00
C1067  C     0.78288   0.44377   0.59979   0.00000  Uiso   1.00
H1068  H     0.74846   0.43842   0.63109   0.00000  Uiso   1.00
H1069  H     0.81264   0.42989   0.61376   0.00000  Uiso   1.00
C1070  C     0.77923   0.42193   0.55023   0.00000  Uiso   1.00
H1071  H     0.75051   0.43687   0.53596   0.00000  Uiso   1.00
H1072  H     0.81452   0.42448   0.51944   0.00000  Uiso   1.00
C1073  C     0.76684   0.37645   0.56037   0.00000  Uiso   1.00
H1074  H     0.79551   0.36080   0.57418   0.00000  Uiso   1.00
H1075  H     0.76474   0.36148   0.52376   0.00000  Uiso   1.00
H1076  H     0.73100   0.37291   0.59008   0.00000  Uiso   1.00
C1077  C     0.89667   0.56126   0.86526   0.00000  Uiso   1.00
O1078  O     0.86716   0.58500   0.85552   0.00000  Uiso   1.00
O1079  O     0.94598   0.56401   0.83732   0.00000  Uiso   1.00
H1080  H     0.95237   0.58606   0.80942   0.00000  Uiso   1.00
C1081  C     0.16675   0.91265   0.74970   0.00000  Uiso   1.00
C1082  C     0.14814   0.85256   0.98695   0.00000  Uiso   1.00
C1083  C     0.16374   0.85604   0.93224   0.00000  Uiso   1.00
C1084  C     0.18287   0.84066   0.51345   0.00000  Uiso   1.00
C1085  C     0.23293   0.83685   0.98489   0.00000  Uiso   1.00
C1086  C     0.24806   0.85176   0.93378   0.00000  Uiso   1.00
C1087  C     0.21385   0.86450   0.90864   0.00000  Uiso   1.00
C1088  C     0.16947   0.82994   0.56658   0.00000  Uiso   1.00
C1089  C     0.25432   0.82185   0.56422   0.00000  Uiso   1.00
C1090  C     0.12819   0.85258   0.90430   0.00000  Uiso   1.00
C1091  C     0.20927   0.97872   0.74985   0.00000  Uiso   1.00
C1092  C     0.14139   0.83948   0.84910   0.00000  Uiso   1.00
C1093  C     0.20923   0.68796   0.74999   0.00000  Uiso   1.00
C1094  C     0.16675   0.70941   0.74963   0.00000  Uiso   1.00
C1095  C     0.12434   0.68795   0.74901   0.00000  Uiso   1.00
C1096  C     0.12435   0.97871   0.74896   0.00000  Uiso   1.00
C1097  C     0.16680   0.95726   0.74948   0.00000  Uiso   1.00
C1098  C     0.31744   0.85769   0.71617   0.00000  Uiso   1.00
C1099  C     0.03373   0.85767   0.71616   0.00000  Uiso   1.00
C1100  C     0.01592   0.80892   0.78372   0.00000  Uiso   1.00
C1101  C     0.29965   0.80887   0.78366   0.00000  Uiso   1.00
C1102  C     0.16668   0.75402   0.74990   0.00000  Uiso   1.00
C1103  C     0.19225   0.83117   0.65001   0.00000  Uiso   1.00
C1104  C     0.26715   0.82149   0.50970   0.00000  Uiso   1.00
C1105  C     0.20585   0.82830   0.59292   0.00000  Uiso   1.00
C1106  C     0.07921   0.86067   0.93056   0.00000  Uiso   1.00
C1107  C     0.06562   0.86880   0.98376   0.00000  Uiso   1.00
C1108  C     0.09917   0.86331   0.51226   0.00000  Uiso   1.00
Cu1109 Cu    0.11978   0.83333   0.75000   0.00000  Uiso   1.00
Cu1110 Cu    0.21355   0.83334   0.75000   0.00000  Uiso   1.00
H1111  H     0.28138   0.81480   0.58438   0.00000  Uiso   1.00
H1112  H     0.24240   0.70398   0.75042   0.00000  Uiso   1.00
H1113  H     0.09116   0.70396   0.74861   0.00000  Uiso   1.00
H1114  H     0.09118   0.96268   0.74856   0.00000  Uiso   1.00
H1115  H     0.30584   0.87727   0.68918   0.00000  Uiso   1.00
H1116  H     0.05956   0.87720   0.68912   0.00000  Uiso   1.00
H1117  H     0.02752   0.78935   0.81071   0.00000  Uiso   1.00
H1118  H     0.27382   0.78934   0.81071   0.00000  Uiso   1.00
H1119  H     0.28647   0.85710   0.91532   0.00000  Uiso   1.00
H1120  H     0.05159   0.86137   0.90991   0.00000  Uiso   1.00
H1121  H     0.08647   0.86938   0.55348   0.00000  Uiso   1.00
H1122  H     0.02829   0.87718   0.50349   0.00000  Uiso   1.00
H1123  H     0.24248   0.96272   0.75013   0.00000  Uiso   1.00
N1124  N     0.04931   0.83332   0.74998   0.00000  Uiso   1.00
N1125  N     0.28402   0.83335   0.74999   0.00000  Uiso   1.00
O1126  O     0.12708   0.89345   0.75000   0.00000  Uiso   1.00
O1127  O     0.20627   0.89346   0.75000   0.00000  Uiso   1.00
O1128  O     0.10775   0.83332   0.82549   0.00000  Uiso   1.00
O1129  O     0.18694   0.83333   0.82549   0.00000  Uiso   1.00
O1130  O     0.12706   0.77321   0.74999   0.00000  Uiso   1.00
O1131  O     0.20625   0.77322   0.74999   0.00000  Uiso   1.00
O1132  O     0.14640   0.83334   0.67451   0.00000  Uiso   1.00
O1133  O     0.22559   0.83335   0.67451   0.00000  Uiso   1.00
C1134  C     0.31372   0.80130   0.98045   0.00000  Uiso   1.00
O1135  O     0.00979   0.79054   0.50343   0.00000  Uiso   1.00
O1136  O     0.32265   0.79162   0.92767   0.00000  Uiso   1.00
H1137  H     0.02188   0.77739   0.91280   0.00000  Uiso   1.00
O1138  O     0.12140   0.82025   0.59222   0.00000  Uiso   1.00
C1139  C     0.11621   0.77710   0.59979   0.00000  Uiso   1.00
H1140  H     0.08179   0.77175   0.63109   0.00000  Uiso   1.00
H1141  H     0.14597   0.76322   0.61376   0.00000  Uiso   1.00
C1142  C     0.11256   0.75526   0.55023   0.00000  Uiso   1.00
H1143  H     0.08384   0.77020   0.53596   0.00000  Uiso   1.00
H1144  H     0.14785   0.75781   0.51944   0.00000  Uiso   1.00
C1145  C     0.10017   0.70978   0.56037   0.00000  Uiso   1.00
H1146  H     0.12884   0.69413   0.57418   0.00000  Uiso   1.00
H1147  H     0.09807   0.69482   0.52376   0.00000  Uiso   1.00
H1148  H     0.06434   0.70625   0.59008   0.00000  Uiso   1.00
C1149  C     0.23000   0.89459   0.86526   0.00000  Uiso   1.00
O1150  O     0.20050   0.91833   0.85552   0.00000  Uiso   1.00
O1151  O     0.27931   0.89734   0.83732   0.00000  Uiso   1.00
H1152  H     0.28570   0.91940   0.80942   0.00000  Uiso   1.00
C1153  C     0.50008   0.91265   0.74970   0.00000  Uiso   1.00
C1154  C     0.48148   0.85256   0.98695   0.00000  Uiso   1.00
C1155  C     0.49708   0.85604   0.93224   0.00000  Uiso   1.00
C1156  C     0.51620   0.84066   0.51345   0.00000  Uiso   1.00
C1157  C     0.56627   0.83685   0.98489   0.00000  Uiso   1.00
C1158  C     0.58139   0.85176   0.93378   0.00000  Uiso   1.00
C1159  C     0.54719   0.86450   0.90864   0.00000  Uiso   1.00
C1160  C     0.50280   0.82994   0.56658   0.00000  Uiso   1.00
C1161  C     0.58765   0.82185   0.56422   0.00000  Uiso   1.00
C1162  C     0.46152   0.85258   0.90430   0.00000  Uiso   1.00
C1163  C     0.54261   0.97872   0.74985   0.00000  Uiso   1.00
C1164  C     0.47472   0.83948   0.84910   0.00000  Uiso   1.00
C1165  C     0.54256   0.68796   0.74999   0.00000  Uiso   1.00
C1166  C     0.50008   0.70941   0.74963   0.00000  Uiso   1.00
C1167  C     0.45767   0.68795   0.74901   0.00000  Uiso   1.00
C1168  C     0.45769   0.97871   0.74896   0.00000  Uiso   1.00
C1169  C     0.50013   0.95726   0.74948   0.00000  Uiso   1.00
C1170  C     0.65077   0.85769   0.71617   0.00000  Uiso   1.00
C1171  C     0.36706   0.85767   0.71616   0.00000  Uiso   1.00
C1172  C     0.34925   0.80892   0.78372   0.00000  Uiso   1.00
C1173  C     0.63298   0.80887   0.78366   0.00000  Uiso   1.00
C1174  C     0.50001   0.75402   0.74990   0.00000  Uiso   1.00
C1175  C     0.52558   0.83117   0.65001   0.00000  Uiso   1.00
C1176  C     0.60048   0.82149   0.50970   0.00000  Uiso   1.00
C1177  C     0.53918   0.82830   0.59292   0.00000  Uiso   1.00
C1178  C     0.41254   0.86067   0.93056   0.00000  Uiso   1.00
C1179  C     0.39896   0.86880   0.98376   0.00000  Uiso   1.00
C1180  C     0.43250   0.86331   0.51226   0.00000  Uiso   1.00
Cu1181 Cu    0.45311   0.83333   0.75000   0.00000  Uiso   1.00
Cu1182 Cu    0.54689   0.83334   0.75000   0.00000  Uiso   1.00
H1183  H     0.61471   0.81480   0.58438   0.00000  Uiso   1.00
H1184  H     0.57574   0.70398   0.75042   0.00000  Uiso   1.00
H1185  H     0.42449   0.70396   0.74861   0.00000  Uiso   1.00
H1186  H     0.42451   0.96268   0.74856   0.00000  Uiso   1.00
H1187  H     0.63918   0.87727   0.68918   0.00000  Uiso   1.00
H1188  H     0.39290   0.87720   0.68912   0.00000  Uiso   1.00
H1189  H     0.36085   0.78935   0.81071   0.00000  Uiso   1.00
H1190  H     0.60715   0.78934   0.81071   0.00000  Uiso   1.00
H1191  H     0.61980   0.85710   0.91532   0.00000  Uiso   1.00
H1192  H     0.38493   0.86137   0.90991   0.00000  Uiso   1.00
H1193  H     0.41980   0.86938   0.55348   0.00000  Uiso   1.00
H1194  H     0.36163   0.87718   0.50349   0.00000  Uiso   1.00
H1195  H     0.57581   0.96272   0.75013   0.00000  Uiso   1.00
N1196  N     0.38265   0.83332   0.74998   0.00000  Uiso   1.00
N1197  N     0.61735   0.83335   0.74999   0.00000  Uiso   1.00
O1198  O     0.46042   0.89345   0.75000   0.00000  Uiso   1.00
O1199  O     0.53961   0.89346   0.75000   0.00000  Uiso   1.00
O1200  O     0.44108   0.83332   0.82549   0.00000  Uiso   1.00
O1201  O     0.52027   0.83333   0.82549   0.00000  Uiso   1.00
O1202  O     0.46039   0.77321   0.74999   0.00000  Uiso   1.00
O1203  O     0.53958   0.77322   0.74999   0.00000  Uiso   1.00
O1204  O     0.47973   0.83334   0.67451   0.00000  Uiso   1.00
O1205  O     0.55892   0.83335   0.67451   0.00000  Uiso   1.00
C1206  C     0.64705   0.80130   0.98045   0.00000  Uiso   1.00
O1207  O     0.34313   0.79054   0.50343   0.00000  Uiso   1.00
O1208  O     0.65598   0.79162   0.92767   0.00000  Uiso   1.00
H1209  H     0.35521   0.77739   0.91280   0.00000  Uiso   1.00
O1210  O     0.45473   0.82025   0.59222   0.00000  Uiso   1.00
C1211  C     0.44955   0.77710   0.59979   0.00000  Uiso   1.00
H1212  H     0.41513   0.77175   0.63109   0.00000  Uiso   1.00
H1213  H     0.47930   0.76322   0.61376   0.00000  Uiso   1.00
C1214  C     0.44590   0.75526   0.55023   0.00000  Uiso   1.00
H1215  H     0.41718   0.77020   0.53596   0.00000  Uiso   1.00
H1216  H     0.48119   0.75781   0.51944   0.00000  Uiso   1.00
C1217  C     0.43350   0.70978   0.56037   0.00000  Uiso   1.00
H1218  H     0.46217   0.69413   0.57418   0.00000  Uiso   1.00
H1219  H     0.43140   0.69482   0.52376   0.00000  Uiso   1.00
H1220  H     0.39767   0.70625   0.59008   0.00000  Uiso   1.00
C1221  C     0.56334   0.89459   0.86526   0.00000  Uiso   1.00
O1222  O     0.53383   0.91833   0.85552   0.00000  Uiso   1.00
O1223  O     0.61264   0.89734   0.83732   0.00000  Uiso   1.00
H1224  H     0.61903   0.91940   0.80942   0.00000  Uiso   1.00
C1225  C     0.83342   0.91265   0.74970   0.00000  Uiso   1.00
C1226  C     0.81481   0.85256   0.98695   0.00000  Uiso   1.00
C1227  C     0.83041   0.85604   0.93224   0.00000  Uiso   1.00
C1228  C     0.84954   0.84066   0.51345   0.00000  Uiso   1.00
C1229  C     0.89960   0.83685   0.98489   0.00000  Uiso   1.00
C1230  C     0.91472   0.85176   0.93378   0.00000  Uiso   1.00
C1231  C     0.88052   0.86450   0.90864   0.00000  Uiso   1.00
C1232  C     0.83613   0.82994   0.56658   0.00000  Uiso   1.00
C1233  C     0.92098   0.82185   0.56422   0.00000  Uiso   1.00
C1234  C     0.79485   0.85258   0.90430   0.00000  Uiso   1.00
C1235  C     0.87594   0.97872   0.74985   0.00000  Uiso   1.00
C1236  C     0.80806   0.83948   0.84910   0.00000  Uiso   1.00
C1237  C     0.87590   0.68796   0.74999   0.00000  Uiso   1.00
C1238  C     0.83341   0.70941   0.74963   0.00000  Uiso   1.00
C1239  C     0.79100   0.68795   0.74901   0.00000  Uiso   1.00
C1240  C     0.79102   0.97871   0.74896   0.00000  Uiso   1.00
C1241  C     0.83347   0.95726   0.74948   0.00000  Uiso   1.00
C1242  C     0.98410   0.85769   0.71617   0.00000  Uiso   1.00
C1243  C     0.70039   0.85767   0.71616   0.00000  Uiso   1.00
C1244  C     0.68259   0.80892   0.78372   0.00000  Uiso   1.00
C1245  C     0.96632   0.80887   0.78366   0.00000  Uiso   1.00
C1246  C     0.83334   0.75402   0.74990   0.00000  Uiso   1.00
C1247  C     0.85892   0.83117   0.65001   0.00000  Uiso   1.00
C1248  C     0.93381   0.82149   0.50970   0.00000  Uiso   1.00
C1249  C     0.87251   0.82830   0.59292   0.00000  Uiso   1.00
C1250  C     0.74588   0.86067   0.93056   0.00000  Uiso   1.00
C1251  C     0.73229   0.86880   0.98376   0.00000  Uiso   1.00
C1252  C     0.76584   0.86331   0.51226   0.00000  Uiso   1.00
Cu1253 Cu    0.78645   0.83333   0.75000   0.00000  Uiso   1.00
Cu1254 Cu    0.88022   0.83334   0.75000   0.00000  Uiso   1.00
H1255  H     0.94804   0.81480   0.58438   0.00000  Uiso   1.00
H1256  H     0.90907   0.70398   0.75042   0.00000  Uiso   1.00
H1257  H     0.75782   0.70396   0.74861   0.00000  Uiso   1.00
H1258  H     0.75784   0.96268   0.74856   0.00000  Uiso   1.00
H1259  H     0.97251   0.87727   0.68918   0.00000  Uiso   1.00
H1260  H     0.72623   0.87720   0.68912   0.00000  Uiso   1.00
H1261  H     0.69418   0.78935   0.81071   0.00000  Uiso   1.00
H1262  H     0.94049   0.78934   0.81071   0.00000  Uiso   1.00
H1263  H     0.95314   0.85710   0.91532   0.00000  Uiso   1.00
H1264  H     0.71826   0.86137   0.90991   0.00000  Uiso   1.00
H1265  H     0.75314   0.86938   0.55348   0.00000  Uiso   1.00
H1266  H     0.69496   0.87718   0.50349   0.00000  Uiso   1.00
H1267  H     0.90915   0.96272   0.75013   0.00000  Uiso   1.00
N1268  N     0.71598   0.83332   0.74998   0.00000  Uiso   1.00
N1269  N     0.95069   0.83335   0.74999   0.00000  Uiso   1.00
O1270  O     0.79375   0.89345   0.75000   0.00000  Uiso   1.00
O1271  O     0.87294   0.89346   0.75000   0.00000  Uiso   1.00
O1272  O     0.77441   0.83332   0.82549   0.00000  Uiso   1.00
O1273  O     0.85360   0.83333   0.82549   0.00000  Uiso   1.00
O1274  O     0.79373   0.77321   0.74999   0.00000  Uiso   1.00
O1275  O     0.87292   0.77322   0.74999   0.00000  Uiso   1.00
O1276  O     0.81306   0.83334   0.67451   0.00000  Uiso   1.00
O1277  O     0.89225   0.83335   0.67451   0.00000  Uiso   1.00
C1278  C     0.98039   0.80130   0.98045   0.00000  Uiso   1.00
O1279  O     0.67646   0.79054   0.50343   0.00000  Uiso   1.00
O1280  O     0.98932   0.79162   0.92767   0.00000  Uiso   1.00
H1281  H     0.68855   0.77739   0.91280   0.00000  Uiso   1.00
O1282  O     0.78807   0.82025   0.59222   0.00000  Uiso   1.00
C1283  C     0.78288   0.77710   0.59979   0.00000  Uiso   1.00
H1284  H     0.74846   0.77175   0.63109   0.00000  Uiso   1.00
H1285  H     0.81264   0.76322   0.61376   0.00000  Uiso   1.00
C1286  C     0.77923   0.75526   0.55023   0.00000  Uiso   1.00
H1287  H     0.75051   0.77020   0.53596   0.00000  Uiso   1.00
H1288  H     0.81452   0.75781   0.51944   0.00000  Uiso   1.00
C1289  C     0.76684   0.70978   0.56037   0.00000  Uiso   1.00
H1290  H     0.79551   0.69413   0.57418   0.00000  Uiso   1.00
H1291  H     0.76474   0.69482   0.52376   0.00000  Uiso   1.00
H1292  H     0.73100   0.70625   0.59008   0.00000  Uiso   1.00
C1293  C     0.89667   0.89459   0.86526   0.00000  Uiso   1.00
O1294  O     0.86716   0.91833   0.85552   0.00000  Uiso   1.00
O1295  O     0.94598   0.89734   0.83732   0.00000  Uiso   1.00
H1296  H     0.95237   0.91940   0.80942   0.00000  Uiso   1.00
loop_
_geom_bond_atom_site_label_1
_geom_bond_atom_site_label_2
_geom_bond_distance
_geom_bond_site_symmetry_2
_ccdc_geom_bond_type
C1     C17     1.449   .     S
C1     O47     1.291   .     A
C1     O46     1.291   .     A
C2     C3      1.410   .     A
C2     C652    1.425   .     S
C2     C676    1.415   .     S
C3     C10     1.424   .     A
C3     C7      1.418   .     A
C4     C8      1.408   .     A
C4     C650    1.425   1_554 S
C4     C653    1.424   1_554 S
C5     C6      1.400   .     A
C5     C652    1.424   .     S
C5     C672    1.417   .     S
C6     C7      1.395   .     A
C6     H39     1.082   .     S
C7     C69     1.488   .     S
C8     O58     1.387   .     S
C8     C25     1.410   .     A
C9     C24     1.401   .     A
C9     C25     1.397   .     A
C9     H31     1.084   .     S
C10    C26     1.402   .     A
C10    C12     1.481   .     S
C11    H43     1.083   .     S
C11    C17     1.401   .     A
C11    C229    1.383   .     S
C12    O48     1.305   .     A
C12    O49     1.291   .     A
C13    C14     1.401   .     A
C13    H32     1.083   .     S
C13    C443    1.383   1_545 S
C14    C15     1.401   .     A
C14    C22     1.449   .     S
C15    H33     1.083   .     S
C15    C448    1.383   1_545 S
C16    C17     1.401   .     A
C16    H34     1.083   .     S
C16    C231    1.383   .     S
C18    H35     1.082   .     S
C18    N45     1.367   .     A
C18    C91     1.416   .     S
C19    H36     1.082   .     S
C19    N44     1.367   .     A
C19    C162    1.416   1_455 S
C20    H37     1.082   .     S
C20    N44     1.367   .     A
C20    C165    1.416   1_455 S
C21    N45     1.367   .     A
C21    H38     1.082   .     S
C21    C92     1.416   .     S
C22    O50     1.291   .     A
C22    O51     1.291   .     A
C23    O52     1.291   .     A
C23    O53     1.300   .     A
C23    C25     1.470   .     S
C24    C653    1.417   1_554 S
C24    C702    1.492   1_554 S
C26    C27     1.392   .     A
C26    H40     1.083   .     S
C27    C676    1.393   .     S
C27    H690    1.083   .     S
C28    H41     1.078   .     S
C28    C675    1.393   1_554 S
C28    C650    1.415   1_554 S
Cu29   O46     1.964   .     S
Cu29   Cu30    2.676   .     S
Cu29   O50     1.964   .     S
Cu29   N44     2.011   .     S
Cu29   O48     1.952   .     S
Cu29   O52     1.948   .     S
Cu30   O51     1.964   .     S
Cu30   N45     2.011   .     S
Cu30   O49     1.948   .     S
Cu30   O53     1.952   .     S
Cu30   O47     1.964   .     S
H42    C675    1.083   1_554 S
C54    O56     1.399   .     S
C54    C672    1.492   .     S
C54    O775    1.223   .     S
O55    C846    1.223   1_454 S
O56    H129    1.014   .     S
H57    O200    1.014   1_455 S
O58    C59     1.418   .     S
C59    H60     1.111   .     S
C59    H61     1.115   .     S
C59    C62     1.534   .     S
C62    H63     1.109   .     S
C62    H64     1.111   .     S
C62    C65     1.526   .     S
C65    H68     1.111   .     S
C65    H66     1.111   .     S
C65    H67     1.110   .     S
C69    O70     1.223   .     D
C69    O71     1.399   .     S
O71    H72     1.014   .     S
C73    C89     1.449   .     S
C73    O119    1.291   .     A
C73    O118    1.291   .     A
C74    C75     1.410   .     A
C74    C724    1.425   .     S
C74    C748    1.415   .     S
C75    C82     1.424   .     A
C75    C79     1.418   .     A
C76    C80     1.408   .     A
C76    C722    1.425   1_554 S
C76    C725    1.424   1_554 S
C77    C78     1.400   .     A
C77    C724    1.424   .     S
C77    C744    1.417   .     S
C78    C79     1.395   .     A
C78    H111    1.082   .     S
C79    C141    1.488   .     S
C80    O130    1.387   .     S
C80    C97     1.410   .     A
C81    C96     1.401   .     A
C81    C97     1.397   .     A
C81    H103    1.084   .     S
C82    C98     1.402   .     A
C82    C84     1.481   .     S
C83    H115    1.083   .     S
C83    C89     1.401   .     A
C83    C301    1.383   .     S
C84    O120    1.305   .     A
C84    O121    1.291   .     A
C85    C86     1.401   .     A
C85    H104    1.083   .     S
C85    C515    1.383   1_545 S
C86    C87     1.401   .     A
C86    C94     1.449   .     S
C87    H105    1.083   .     S
C87    C520    1.383   1_545 S
C88    C89     1.401   .     A
C88    H106    1.083   .     S
C88    C303    1.383   .     S
C90    H107    1.082   .     S
C90    N117    1.367   .     A
C90    C163    1.416   .     S
C91    H108    1.082   .     S
C91    N116    1.367   .     A
C92    H109    1.082   .     S
C92    N116    1.367   .     A
C93    N117    1.367   .     A
C93    H110    1.082   .     S
C93    C164    1.416   .     S
C94    O122    1.291   .     A
C94    O123    1.291   .     A
C95    O124    1.291   .     A
C95    O125    1.300   .     A
C95    C97     1.470   .     S
C96    C725    1.417   1_554 S
C96    C774    1.492   1_554 S
C98    C99     1.392   .     A
C98    H112    1.083   .     S
C99    C748    1.393   .     S
C99    H762    1.083   .     S
C100   H113    1.078   .     S
C100   C747    1.393   1_554 S
C100   C722    1.415   1_554 S
Cu101  O118    1.964   .     S
Cu101  Cu102   2.676   .     S
Cu101  O122    1.964   .     S
Cu101  N116    2.011   .     S
Cu101  O120    1.952   .     S
Cu101  O124    1.948   .     S
Cu102  O123    1.964   .     S
Cu102  N117    2.011   .     S
Cu102  O121    1.948   .     S
Cu102  O125    1.952   .     S
Cu102  O119    1.964   .     S
H114   C747    1.083   1_554 S
C126   O128    1.399   .     S
C126   C744    1.492   .     S
C126   O847    1.223   .     S
O127   C702    1.223   1_554 S
O128   H201    1.014   .     S
O130   C131    1.418   .     S
C131   H132    1.111   .     S
C131   H133    1.115   .     S
C131   C134    1.534   .     S
C134   H135    1.109   .     S
C134   H136    1.111   .     S
C134   C137    1.526   .     S
C137   H140    1.111   .     S
C137   H138    1.111   .     S
C137   H139    1.110   .     S
C141   O142    1.223   .     D
C141   O143    1.399   .     S
O143   H144    1.014   .     S
C145   C161    1.449   .     S
C145   O191    1.291   .     A
C145   O190    1.291   .     A
C146   C147    1.410   .     A
C146   C796    1.425   .     S
C146   C820    1.415   .     S
C147   C154    1.424   .     A
C147   C151    1.418   .     A
C148   C152    1.408   .     A
C148   C794    1.425   1_554 S
C148   C797    1.424   1_554 S
C149   C150    1.400   .     A
C149   C796    1.424   .     S
C149   C816    1.417   .     S
C150   C151    1.395   .     A
C150   H183    1.082   .     S
C151   C213    1.488   .     S
C152   O202    1.387   .     S
C152   C169    1.410   .     A
C153   C168    1.401   .     A
C153   C169    1.397   .     A
C153   H175    1.084   .     S
C154   C170    1.402   .     A
C154   C156    1.481   .     S
C155   H187    1.083   .     S
C155   C161    1.401   .     A
C155   C373    1.383   .     S
C156   O192    1.305   .     A
C156   O193    1.291   .     A
C157   C158    1.401   .     A
C157   H176    1.083   .     S
C157   C587    1.383   1_545 S
C158   C159    1.401   .     A
C158   C166    1.449   .     S
C159   H177    1.083   .     S
C159   C592    1.383   1_545 S
C160   C161    1.401   .     A
C160   H178    1.083   .     S
C160   C375    1.383   .     S
C162   H179    1.082   .     S
C162   N189    1.367   .     A
C162   C19     1.416   1_655 S
C163   H180    1.082   .     S
C163   N188    1.367   .     A
C164   H181    1.082   .     S
C164   N188    1.367   .     A
C165   N189    1.367   .     A
C165   H182    1.082   .     S
C165   C20     1.416   1_655 S
C166   O194    1.291   .     A
C166   O195    1.291   .     A
C167   O196    1.291   .     A
C167   O197    1.300   .     A
C167   C169    1.470   .     S
C168   C797    1.417   1_554 S
C168   C846    1.492   1_554 S
C170   C171    1.392   .     A
C170   H184    1.083   .     S
C171   C820    1.393   .     S
C171   H834    1.083   .     S
C172   H185    1.078   .     S
C172   C819    1.393   1_554 S
C172   C794    1.415   1_554 S
Cu173  O190    1.964   .     S
Cu173  Cu174   2.676   .     S
Cu173  O194    1.964   .     S
Cu173  N188    2.011   .     S
Cu173  O192    1.952   .     S
Cu173  O196    1.948   .     S
Cu174  O195    1.964   .     S
Cu174  N189    2.011   .     S
Cu174  O193    1.948   .     S
Cu174  O197    1.952   .     S
Cu174  O191    1.964   .     S
H186   C819    1.083   1_554 S
C198   O200    1.399   .     S
C198   C816    1.492   .     S
C198   O703    1.223   1_655 S
O199   C774    1.223   1_554 S
O200   H57     1.014   1_655 S
O202   C203    1.418   .     S
C203   H204    1.111   .     S
C203   H205    1.115   .     S
C203   C206    1.534   .     S
C206   H207    1.109   .     S
C206   H208    1.111   .     S
C206   C209    1.526   .     S
C209   H212    1.111   .     S
C209   H210    1.111   .     S
C209   H211    1.110   .     S
C213   O214    1.223   .     D
C213   O215    1.399   .     S
O215   H216    1.014   .     S
C217   C233    1.449   .     S
C217   O263    1.291   .     A
C217   O262    1.291   .     A
C218   C219    1.410   .     A
C218   C868    1.425   .     S
C218   C892    1.415   .     S
C219   C226    1.424   .     A
C219   C223    1.418   .     A
C220   C224    1.408   .     A
C220   C866    1.425   1_554 S
C220   C869    1.424   1_554 S
C221   C222    1.400   .     A
C221   C868    1.424   .     S
C221   C888    1.417   .     S
C222   C223    1.395   .     A
C222   H255    1.082   .     S
C223   C285    1.488   .     S
C224   O274    1.387   .     S
C224   C241    1.410   .     A
C225   C240    1.401   .     A
C225   C241    1.397   .     A
C225   H247    1.084   .     S
C226   C242    1.402   .     A
C226   C228    1.481   .     S
C227   H259    1.083   .     S
C227   C233    1.401   .     A
C227   C445    1.383   .     S
C228   O264    1.305   .     A
C228   O265    1.291   .     A
C229   C230    1.401   .     A
C229   H248    1.083   .     S
C230   C231    1.401   .     A
C230   C238    1.449   .     S
C231   H249    1.083   .     S
C232   C233    1.401   .     A
C232   H250    1.083   .     S
C232   C447    1.383   .     S
C234   H251    1.082   .     S
C234   N261    1.367   .     A
C234   C307    1.416   .     S
C235   H252    1.082   .     S
C235   N260    1.367   .     A
C235   C378    1.416   1_455 S
C236   H253    1.082   .     S
C236   N260    1.367   .     A
C236   C381    1.416   1_455 S
C237   N261    1.367   .     A
C237   H254    1.082   .     S
C237   C308    1.416   .     S
C238   O266    1.291   .     A
C238   O267    1.291   .     A
C239   O268    1.291   .     A
C239   O269    1.300   .     A
C239   C241    1.470   .     S
C240   C869    1.417   1_554 S
C240   C918    1.492   1_554 S
C242   C243    1.392   .     A
C242   H256    1.083   .     S
C243   C892    1.393   .     S
C243   H906    1.083   .     S
C244   H257    1.078   .     S
C244   C891    1.393   1_554 S
C244   C866    1.415   1_554 S
Cu245  O262    1.964   .     S
Cu245  Cu246   2.676   .     S
Cu245  O266    1.964   .     S
Cu245  N260    2.011   .     S
Cu245  O264    1.952   .     S
Cu245  O268    1.948   .     S
Cu246  O267    1.964   .     S
Cu246  N261    2.011   .     S
Cu246  O265    1.948   .     S
Cu246  O269    1.952   .     S
Cu246  O263    1.964   .     S
H258   C891    1.083   1_554 S
C270   O272    1.399   .     S
C270   C888    1.492   .     S
C270   O991    1.223   .     S
O271   C1062   1.223   1_454 S
O272   H345    1.014   .     S
H273   O416    1.014   1_455 S
O274   C275    1.418   .     S
C275   H276    1.111   .     S
C275   H277    1.115   .     S
C275   C278    1.534   .     S
C278   H279    1.109   .     S
C278   H280    1.111   .     S
C278   C281    1.526   .     S
C281   H284    1.111   .     S
C281   H282    1.111   .     S
C281   H283    1.110   .     S
C285   O286    1.223   .     D
C285   O287    1.399   .     S
O287   H288    1.014   .     S
C289   C305    1.449   .     S
C289   O335    1.291   .     A
C289   O334    1.291   .     A
C290   C291    1.410   .     A
C290   C940    1.425   .     S
C290   C964    1.415   .     S
C291   C298    1.424   .     A
C291   C295    1.418   .     A
C292   C296    1.408   .     A
C292   C938    1.425   1_554 S
C292   C941    1.424   1_554 S
C293   C294    1.400   .     A
C293   C940    1.424   .     S
C293   C960    1.417   .     S
C294   C295    1.395   .     A
C294   H327    1.082   .     S
C295   C357    1.488   .     S
C296   O346    1.387   .     S
C296   C313    1.410   .     A
C297   C312    1.401   .     A
C297   C313    1.397   .     A
C297   H319    1.084   .     S
C298   C314    1.402   .     A
C298   C300    1.481   .     S
C299   H331    1.083   .     S
C299   C305    1.401   .     A
C299   C517    1.383   .     S
C300   O336    1.305   .     A
C300   O337    1.291   .     A
C301   C302    1.401   .     A
C301   H320    1.083   .     S
C302   C303    1.401   .     A
C302   C310    1.449   .     S
C303   H321    1.083   .     S
C304   C305    1.401   .     A
C304   H322    1.083   .     S
C304   C519    1.383   .     S
C306   H323    1.082   .     S
C306   N333    1.367   .     A
C306   C379    1.416   .     S
C307   H324    1.082   .     S
C307   N332    1.367   .     A
C308   H325    1.082   .     S
C308   N332    1.367   .     A
C309   N333    1.367   .     A
C309   H326    1.082   .     S
C309   C380    1.416   .     S
C310   O338    1.291   .     A
C310   O339    1.291   .     A
C311   O340    1.291   .     A
C311   O341    1.300   .     A
C311   C313    1.470   .     S
C312   C941    1.417   1_554 S
C312   C990    1.492   1_554 S
C314   C315    1.392   .     A
C314   H328    1.083   .     S
C315   C964    1.393   .     S
C315   H978    1.083   .     S
C316   H329    1.078   .     S
C316   C963    1.393   1_554 S
C316   C938    1.415   1_554 S
Cu317  O334    1.964   .     S
Cu317  Cu318   2.676   .     S
Cu317  O338    1.964   .     S
Cu317  N332    2.011   .     S
Cu317  O336    1.952   .     S
Cu317  O340    1.948   .     S
Cu318  O339    1.964   .     S
Cu318  N333    2.011   .     S
Cu318  O337    1.948   .     S
Cu318  O341    1.952   .     S
Cu318  O335    1.964   .     S
H330   C963    1.083   1_554 S
C342   O344    1.399   .     S
C342   C960    1.492   .     S
C342   O1063   1.223   .     S
O343   C918    1.223   1_554 S
O344   H417    1.014   .     S
O346   C347    1.418   .     S
C347   H348    1.111   .     S
C347   H349    1.115   .     S
C347   C350    1.534   .     S
C350   H351    1.109   .     S
C350   H352    1.111   .     S
C350   C353    1.526   .     S
C353   H356    1.111   .     S
C353   H354    1.111   .     S
C353   H355    1.110   .     S
C357   O358    1.223   .     D
C357   O359    1.399   .     S
O359   H360    1.014   .     S
C361   C377    1.449   .     S
C361   O407    1.291   .     A
C361   O406    1.291   .     A
C362   C363    1.410   .     A
C362   C1012   1.425   .     S
C362   C1036   1.415   .     S
C363   C370    1.424   .     A
C363   C367    1.418   .     A
C364   C368    1.408   .     A
C364   C1010   1.425   1_554 S
C364   C1013   1.424   1_554 S
C365   C366    1.400   .     A
C365   C1012   1.424   .     S
C365   C1032   1.417   .     S
C366   C367    1.395   .     A
C366   H399    1.082   .     S
C367   C429    1.488   .     S
C368   O418    1.387   .     S
C368   C385    1.410   .     A
C369   C384    1.401   .     A
C369   C385    1.397   .     A
C369   H391    1.084   .     S
C370   C386    1.402   .     A
C370   C372    1.481   .     S
C371   H403    1.083   .     S
C371   C377    1.401   .     A
C371   C589    1.383   .     S
C372   O408    1.305   .     A
C372   O409    1.291   .     A
C373   C374    1.401   .     A
C373   H392    1.083   .     S
C374   C375    1.401   .     A
C374   C382    1.449   .     S
C375   H393    1.083   .     S
C376   C377    1.401   .     A
C376   H394    1.083   .     S
C376   C591    1.383   .     S
C378   H395    1.082   .     S
C378   N405    1.367   .     A
C378   C235    1.416   1_655 S
C379   H396    1.082   .     S
C379   N404    1.367   .     A
C380   H397    1.082   .     S
C380   N404    1.367   .     A
C381   N405    1.367   .     A
C381   H398    1.082   .     S
C381   C236    1.416   1_655 S
C382   O410    1.291   .     A
C382   O411    1.291   .     A
C383   O412    1.291   .     A
C383   O413    1.300   .     A
C383   C385    1.470   .     S
C384   C1013   1.417   1_554 S
C384   C1062   1.492   1_554 S
C386   C387    1.392   .     A
C386   H400    1.083   .     S
C387   C1036   1.393   .     S
C387   H1050   1.083   .     S
C388   H401    1.078   .     S
C388   C1035   1.393   1_554 S
C388   C1010   1.415   1_554 S
Cu389  O406    1.964   .     S
Cu389  Cu390   2.676   .     S
Cu389  O410    1.964   .     S
Cu389  N404    2.011   .     S
Cu389  O408    1.952   .     S
Cu389  O412    1.948   .     S
Cu390  O411    1.964   .     S
Cu390  N405    2.011   .     S
Cu390  O409    1.948   .     S
Cu390  O413    1.952   .     S
Cu390  O407    1.964   .     S
H402   C1035   1.083   1_554 S
C414   O416    1.399   .     S
C414   C1032   1.492   .     S
C414   O919    1.223   1_655 S
O415   C990    1.223   1_554 S
O416   H273    1.014   1_655 S
O418   C419    1.418   .     S
C419   H420    1.111   .     S
C419   H421    1.115   .     S
C419   C422    1.534   .     S
C422   H423    1.109   .     S
C422   H424    1.111   .     S
C422   C425    1.526   .     S
C425   H428    1.111   .     S
C425   H426    1.111   .     S
C425   H427    1.110   .     S
C429   O430    1.223   .     D
C429   O431    1.399   .     S
O431   H432    1.014   .     S
C433   C449    1.449   .     S
C433   O479    1.291   .     A
C433   O478    1.291   .     A
C434   C435    1.410   .     A
C434   C1084   1.425   .     S
C434   C1108   1.415   .     S
C435   C442    1.424   .     A
C435   C439    1.418   .     A
C436   C440    1.408   .     A
C436   C1082   1.425   1_554 S
C436   C1085   1.424   1_554 S
C437   C438    1.400   .     A
C437   C1084   1.424   .     S
C437   C1104   1.417   .     S
C438   C439    1.395   .     A
C438   H471    1.082   .     S
C439   C501    1.488   .     S
C440   O490    1.387   .     S
C440   C457    1.410   .     A
C441   C456    1.401   .     A
C441   C457    1.397   .     A
C441   H463    1.084   .     S
C442   C458    1.402   .     A
C442   C444    1.481   .     S
C443   H475    1.083   .     S
C443   C449    1.401   .     A
C443   C13     1.383   1_565 S
C444   O480    1.305   .     A
C444   O481    1.291   .     A
C445   C446    1.401   .     A
C445   H464    1.083   .     S
C446   C447    1.401   .     A
C446   C454    1.449   .     S
C447   H465    1.083   .     S
C448   C449    1.401   .     A
C448   H466    1.083   .     S
C448   C15     1.383   1_565 S
C450   H467    1.082   .     S
C450   N477    1.367   .     A
C450   C523    1.416   .     S
C451   H468    1.082   .     S
C451   N476    1.367   .     A
C451   C594    1.416   1_455 S
C452   H469    1.082   .     S
C452   N476    1.367   .     A
C452   C597    1.416   1_455 S
C453   N477    1.367   .     A
C453   H470    1.082   .     S
C453   C524    1.416   .     S
C454   O482    1.291   .     A
C454   O483    1.291   .     A
C455   O484    1.291   .     A
C455   O485    1.300   .     A
C455   C457    1.470   .     S
C456   C1085   1.417   1_554 S
C456   C1134   1.492   1_554 S
C458   C459    1.392   .     A
C458   H472    1.083   .     S
C459   C1108   1.393   .     S
C459   H1122   1.083   .     S
C460   H473    1.078   .     S
C460   C1107   1.393   1_554 S
C460   C1082   1.415   1_554 S
Cu461  O478    1.964   .     S
Cu461  Cu462   2.676   .     S
Cu461  O482    1.964   .     S
Cu461  N476    2.011   .     S
Cu461  O480    1.952   .     S
Cu461  O484    1.948   .     S
Cu462  O483    1.964   .     S
Cu462  N477    2.011   .     S
Cu462  O481    1.948   .     S
Cu462  O485    1.952   .     S
Cu462  O479    1.964   .     S
H474   C1107   1.083   1_554 S
C486   O488    1.399   .     S
C486   C1104   1.492   .     S
C486   O1207   1.223   .     S
O487   C1278   1.223   1_454 S
O488   H561    1.014   .     S
H489   O632    1.014   1_455 S
O490   C491    1.418   .     S
C491   H492    1.111   .     S
C491   H493    1.115   .     S
C491   C494    1.534   .     S
C494   H495    1.109   .     S
C494   H496    1.111   .     S
C494   C497    1.526   .     S
C497   H500    1.111   .     S
C497   H498    1.111   .     S
C497   H499    1.110   .     S
C501   O502    1.223   .     D
C501   O503    1.399   .     S
O503   H504    1.014   .     S
C505   C521    1.449   .     S
C505   O551    1.291   .     A
C505   O550    1.291   .     A
C506   C507    1.410   .     A
C506   C1156   1.425   .     S
C506   C1180   1.415   .     S
C507   C514    1.424   .     A
C507   C511    1.418   .     A
C508   C512    1.408   .     A
C508   C1154   1.425   1_554 S
C508   C1157   1.424   1_554 S
C509   C510    1.400   .     A
C509   C1156   1.424   .     S
C509   C1176   1.417   .     S
C510   C511    1.395   .     A
C510   H543    1.082   .     S
C511   C573    1.488   .     S
C512   O562    1.387   .     S
C512   C529    1.410   .     A
C513   C528    1.401   .     A
C513   C529    1.397   .     A
C513   H535    1.084   .     S
C514   C530    1.402   .     A
C514   C516    1.481   .     S
C515   H547    1.083   .     S
C515   C521    1.401   .     A
C515   C85     1.383   1_565 S
C516   O552    1.305   .     A
C516   O553    1.291   .     A
C517   C518    1.401   .     A
C517   H536    1.083   .     S
C518   C519    1.401   .     A
C518   C526    1.449   .     S
C519   H537    1.083   .     S
C520   C521    1.401   .     A
C520   H538    1.083   .     S
C520   C87     1.383   1_565 S
C522   H539    1.082   .     S
C522   N549    1.367   .     A
C522   C595    1.416   .     S
C523   H540    1.082   .     S
C523   N548    1.367   .     A
C524   H541    1.082   .     S
C524   N548    1.367   .     A
C525   N549    1.367   .     A
C525   H542    1.082   .     S
C525   C596    1.416   .     S
C526   O554    1.291   .     A
C526   O555    1.291   .     A
C527   O556    1.291   .     A
C527   O557    1.300   .     A
C527   C529    1.470   .     S
C528   C1157   1.417   1_554 S
C528   C1206   1.492   1_554 S
C530   C531    1.392   .     A
C530   H544    1.083   .     S
C531   C1180   1.393   .     S
C531   H1194   1.083   .     S
C532   H545    1.078   .     S
C532   C1179   1.393   1_554 S
C532   C1154   1.415   1_554 S
Cu533  O550    1.964   .     S
Cu533  Cu534   2.676   .     S
Cu533  O554    1.964   .     S
Cu533  N548    2.011   .     S
Cu533  O552    1.952   .     S
Cu533  O556    1.948   .     S
Cu534  O555    1.964   .     S
Cu534  N549    2.011   .     S
Cu534  O553    1.948   .     S
Cu534  O557    1.952   .     S
Cu534  O551    1.964   .     S
H546   C1179   1.083   1_554 S
C558   O560    1.399   .     S
C558   C1176   1.492   .     S
C558   O1279   1.223   .     S
O559   C1134   1.223   1_554 S
O560   H633    1.014   .     S
O562   C563    1.418   .     S
C563   H564    1.111   .     S
C563   H565    1.115   .     S
C563   C566    1.534   .     S
C566   H567    1.109   .     S
C566   H568    1.111   .     S
C566   C569    1.526   .     S
C569   H572    1.111   .     S
C569   H570    1.111   .     S
C569   H571    1.110   .     S
C573   O574    1.223   .     D
C573   O575    1.399   .     S
O575   H576    1.014   .     S
C577   C593    1.449   .     S
C577   O623    1.291   .     A
C577   O622    1.291   .     A
C578   C579    1.410   .     A
C578   C1228   1.425   .     S
C578   C1252   1.415   .     S
C579   C586    1.424   .     A
C579   C583    1.418   .     A
C580   C584    1.408   .     A
C580   C1226   1.425   1_554 S
C580   C1229   1.424   1_554 S
C581   C582    1.400   .     A
C581   C1228   1.424   .     S
C581   C1248   1.417   .     S
C582   C583    1.395   .     A
C582   H615    1.082   .     S
C583   C645    1.488   .     S
C584   O634    1.387   .     S
C584   C601    1.410   .     A
C585   C600    1.401   .     A
C585   C601    1.397   .     A
C585   H607    1.084   .     S
C586   C602    1.402   .     A
C586   C588    1.481   .     S
C587   H619    1.083   .     S
C587   C593    1.401   .     A
C587   C157    1.383   1_565 S
C588   O624    1.305   .     A
C588   O625    1.291   .     A
C589   C590    1.401   .     A
C589   H608    1.083   .     S
C590   C591    1.401   .     A
C590   C598    1.449   .     S
C591   H609    1.083   .     S
C592   C593    1.401   .     A
C592   H610    1.083   .     S
C592   C159    1.383   1_565 S
C594   H611    1.082   .     S
C594   N621    1.367   .     A
C594   C451    1.416   1_655 S
C595   H612    1.082   .     S
C595   N620    1.367   .     A
C596   H613    1.082   .     S
C596   N620    1.367   .     A
C597   N621    1.367   .     A
C597   H614    1.082   .     S
C597   C452    1.416   1_655 S
C598   O626    1.291   .     A
C598   O627    1.291   .     A
C599   O628    1.291   .     A
C599   O629    1.300   .     A
C599   C601    1.470   .     S
C600   C1229   1.417   1_554 S
C600   C1278   1.492   1_554 S
C602   C603    1.392   .     A
C602   H616    1.083   .     S
C603   C1252   1.393   .     S
C603   H1266   1.083   .     S
C604   H617    1.078   .     S
C604   C1251   1.393   1_554 S
C604   C1226   1.415   1_554 S
Cu605  O622    1.964   .     S
Cu605  Cu606   2.676   .     S
Cu605  O626    1.964   .     S
Cu605  N620    2.011   .     S
Cu605  O624    1.952   .     S
Cu605  O628    1.948   .     S
Cu606  O627    1.964   .     S
Cu606  N621    2.011   .     S
Cu606  O625    1.948   .     S
Cu606  O629    1.952   .     S
Cu606  O623    1.964   .     S
H618   C1251   1.083   1_554 S
C630   O632    1.399   .     S
C630   C1248   1.492   .     S
C630   O1135   1.223   1_655 S
O631   C1206   1.223   1_554 S
O632   H489    1.014   1_655 S
O634   C635    1.418   .     S
C635   H636    1.111   .     S
C635   H637    1.115   .     S
C635   C638    1.534   .     S
C638   H639    1.109   .     S
C638   H640    1.111   .     S
C638   C641    1.526   .     S
C641   H644    1.111   .     S
C641   H642    1.111   .     S
C641   H643    1.110   .     S
C645   O646    1.223   .     D
C645   O647    1.399   .     S
O647   H648    1.014   .     S
C649   C665    1.449   .     S
C649   O695    1.291   .     A
C649   O694    1.291   .     A
C650   C651    1.410   .     A
C650   C4      1.425   1_556 S
C650   C28     1.415   1_556 S
C651   C658    1.424   .     A
C651   C655    1.418   .     A
C652   C656    1.408   .     A
C653   C654    1.400   .     A
C653   C4      1.424   1_556 S
C653   C24     1.417   1_556 S
C654   C655    1.395   .     A
C654   H687    1.082   .     S
C655   C717    1.488   .     S
C656   O706    1.387   .     S
C656   C673    1.410   .     A
C657   C672    1.401   .     A
C657   C673    1.397   .     A
C657   H679    1.084   .     S
C658   C674    1.402   .     A
C658   C660    1.481   .     S
C659   H691    1.083   .     S
C659   C665    1.401   .     A
C659   C877    1.383   .     S
C660   O696    1.305   .     A
C660   O697    1.291   .     A
C661   C662    1.401   .     A
C661   H680    1.083   .     S
C661   C1091   1.383   1_545 S
C662   C663    1.401   .     A
C662   C670    1.449   .     S
C663   H681    1.083   .     S
C663   C1096   1.383   1_545 S
C664   C665    1.401   .     A
C664   H682    1.083   .     S
C664   C879    1.383   .     S
C666   H683    1.082   .     S
C666   N693    1.367   .     A
C666   C739    1.416   .     S
C667   H684    1.082   .     S
C667   N692    1.367   .     A
C667   C810    1.416   1_455 S
C668   H685    1.082   .     S
C668   N692    1.367   .     A
C668   C813    1.416   1_455 S
C669   N693    1.367   .     A
C669   H686    1.082   .     S
C669   C740    1.416   .     S
C670   O698    1.291   .     A
C670   O699    1.291   .     A
C671   O700    1.291   .     A
C671   O701    1.300   .     A
C671   C673    1.470   .     S
C674   C675    1.392   .     A
C674   H688    1.083   .     S
C675   C28     1.393   1_556 S
C675   H42     1.083   1_556 S
C676   H689    1.078   .     S
Cu677  O694    1.964   .     S
Cu677  Cu678   2.676   .     S
Cu677  O698    1.964   .     S
Cu677  N692    2.011   .     S
Cu677  O696    1.952   .     S
Cu677  O700    1.948   .     S
Cu678  O699    1.964   .     S
Cu678  N693    2.011   .     S
Cu678  O697    1.948   .     S
Cu678  O701    1.952   .     S
Cu678  O695    1.964   .     S
C702   O704    1.399   .     S
C702   C24     1.492   1_556 S
C702   O127    1.223   1_556 S
O703   C198    1.223   1_455 S
O704   H777    1.014   .     S
H705   O848    1.014   1_455 S
O706   C707    1.418   .     S
C707   H708    1.111   .     S
C707   H709    1.115   .     S
C707   C710    1.534   .     S
C710   H711    1.109   .     S
C710   H712    1.111   .     S
C710   C713    1.526   .     S
C713   H716    1.111   .     S
C713   H714    1.111   .     S
C713   H715    1.110   .     S
C717   O718    1.223   .     D
C717   O719    1.399   .     S
O719   H720    1.014   .     S
C721   C737    1.449   .     S
C721   O767    1.291   .     A
C721   O766    1.291   .     A
C722   C723    1.410   .     A
C722   C76     1.425   1_556 S
C722   C100    1.415   1_556 S
C723   C730    1.424   .     A
C723   C727    1.418   .     A
C724   C728    1.408   .     A
C725   C726    1.400   .     A
C725   C76     1.424   1_556 S
C725   C96     1.417   1_556 S
C726   C727    1.395   .     A
C726   H759    1.082   .     S
C727   C789    1.488   .     S
C728   O778    1.387   .     S
C728   C745    1.410   .     A
C729   C744    1.401   .     A
C729   C745    1.397   .     A
C729   H751    1.084   .     S
C730   C746    1.402   .     A
C730   C732    1.481   .     S
C731   H763    1.083   .     S
C731   C737    1.401   .     A
C731   C949    1.383   .     S
C732   O768    1.305   .     A
C732   O769    1.291   .     A
C733   C734    1.401   .     A
C733   H752    1.083   .     S
C733   C1163   1.383   1_545 S
C734   C735    1.401   .     A
C734   C742    1.449   .     S
C735   H753    1.083   .     S
C735   C1168   1.383   1_545 S
C736   C737    1.401   .     A
C736   H754    1.083   .     S
C736   C951    1.383   .     S
C738   H755    1.082   .     S
C738   N765    1.367   .     A
C738   C811    1.416   .     S
C739   H756    1.082   .     S
C739   N764    1.367   .     A
C740   H757    1.082   .     S
C740   N764    1.367   .     A
C741   N765    1.367   .     A
C741   H758    1.082   .     S
C741   C812    1.416   .     S
C742   O770    1.291   .     A
C742   O771    1.291   .     A
C743   O772    1.291   .     A
C743   O773    1.300   .     A
C743   C745    1.470   .     S
C746   C747    1.392   .     A
C746   H760    1.083   .     S
C747   C100    1.393   1_556 S
C747   H114    1.083   1_556 S
C748   H761    1.078   .     S
Cu749  O766    1.964   .     S
Cu749  Cu750   2.676   .     S
Cu749  O770    1.964   .     S
Cu749  N764    2.011   .     S
Cu749  O768    1.952   .     S
Cu749  O772    1.948   .     S
Cu750  O771    1.964   .     S
Cu750  N765    2.011   .     S
Cu750  O769    1.948   .     S
Cu750  O773    1.952   .     S
Cu750  O767    1.964   .     S
C774   O776    1.399   .     S
C774   C96     1.492   1_556 S
C774   O199    1.223   1_556 S
O776   H849    1.014   .     S
O778   C779    1.418   .     S
C779   H780    1.111   .     S
C779   H781    1.115   .     S
C779   C782    1.534   .     S
C782   H783    1.109   .     S
C782   H784    1.111   .     S
C782   C785    1.526   .     S
C785   H788    1.111   .     S
C785   H786    1.111   .     S
C785   H787    1.110   .     S
C789   O790    1.223   .     D
C789   O791    1.399   .     S
O791   H792    1.014   .     S
C793   C809    1.449   .     S
C793   O839    1.291   .     A
C793   O838    1.291   .     A
C794   C795    1.410   .     A
C794   C148    1.425   1_556 S
C794   C172    1.415   1_556 S
C795   C802    1.424   .     A
C795   C799    1.418   .     A
C796   C800    1.408   .     A
C797   C798    1.400   .     A
C797   C148    1.424   1_556 S
C797   C168    1.417   1_556 S
C798   C799    1.395   .     A
C798   H831    1.082   .     S
C799   C861    1.488   .     S
C800   O850    1.387   .     S
C800   C817    1.410   .     A
C801   C816    1.401   .     A
C801   C817    1.397   .     A
C801   H823    1.084   .     S
C802   C818    1.402   .     A
C802   C804    1.481   .     S
C803   H835    1.083   .     S
C803   C809    1.401   .     A
C803   C1021   1.383   .     S
C804   O840    1.305   .     A
C804   O841    1.291   .     A
C805   C806    1.401   .     A
C805   H824    1.083   .     S
C805   C1235   1.383   1_545 S
C806   C807    1.401   .     A
C806   C814    1.449   .     S
C807   H825    1.083   .     S
C807   C1240   1.383   1_545 S
C808   C809    1.401   .     A
C808   H826    1.083   .     S
C808   C1023   1.383   .     S
C810   H827    1.082   .     S
C810   N837    1.367   .     A
C810   C667    1.416   1_655 S
C811   H828    1.082   .     S
C811   N836    1.367   .     A
C812   H829    1.082   .     S
C812   N836    1.367   .     A
C813   N837    1.367   .     A
C813   H830    1.082   .     S
C813   C668    1.416   1_655 S
C814   O842    1.291   .     A
C814   O843    1.291   .     A
C815   O844    1.291   .     A
C815   O845    1.300   .     A
C815   C817    1.470   .     S
C818   C819    1.392   .     A
C818   H832    1.083   .     S
C819   C172    1.393   1_556 S
C819   H186    1.083   1_556 S
C820   H833    1.078   .     S
Cu821  O838    1.964   .     S
Cu821  Cu822   2.676   .     S
Cu821  O842    1.964   .     S
Cu821  N836    2.011   .     S
Cu821  O840    1.952   .     S
Cu821  O844    1.948   .     S
Cu822  O843    1.964   .     S
Cu822  N837    2.011   .     S
Cu822  O841    1.948   .     S
Cu822  O845    1.952   .     S
Cu822  O839    1.964   .     S
C846   O848    1.399   .     S
C846   C168    1.492   1_556 S
C846   O55     1.223   1_656 S
O848   H705    1.014   1_655 S
O850   C851    1.418   .     S
C851   H852    1.111   .     S
C851   H853    1.115   .     S
C851   C854    1.534   .     S
C854   H855    1.109   .     S
C854   H856    1.111   .     S
C854   C857    1.526   .     S
C857   H860    1.111   .     S
C857   H858    1.111   .     S
C857   H859    1.110   .     S
C861   O862    1.223   .     D
C861   O863    1.399   .     S
O863   H864    1.014   .     S
C865   C881    1.449   .     S
C865   O911    1.291   .     A
C865   O910    1.291   .     A
C866   C867    1.410   .     A
C866   C220    1.425   1_556 S
C866   C244    1.415   1_556 S
C867   C874    1.424   .     A
C867   C871    1.418   .     A
C868   C872    1.408   .     A
C869   C870    1.400   .     A
C869   C220    1.424   1_556 S
C869   C240    1.417   1_556 S
C870   C871    1.395   .     A
C870   H903    1.082   .     S
C871   C933    1.488   .     S
C872   O922    1.387   .     S
C872   C889    1.410   .     A
C873   C888    1.401   .     A
C873   C889    1.397   .     A
C873   H895    1.084   .     S
C874   C890    1.402   .     A
C874   C876    1.481   .     S
C875   H907    1.083   .     S
C875   C881    1.401   .     A
C875   C1093   1.383   .     S
C876   O912    1.305   .     A
C876   O913    1.291   .     A
C877   C878    1.401   .     A
C877   H896    1.083   .     S
C878   C879    1.401   .     A
C878   C886    1.449   .     S
C879   H897    1.083   .     S
C880   C881    1.401   .     A
C880   H898    1.083   .     S
C880   C1095   1.383   .     S
C882   H899    1.082   .     S
C882   N909    1.367   .     A
C882   C955    1.416   .     S
C883   H900    1.082   .     S
C883   N908    1.367   .     A
C883   C1026   1.416   1_455 S
C884   H901    1.082   .     S
C884   N908    1.367   .     A
C884   C1029   1.416   1_455 S
C885   N909    1.367   .     A
C885   H902    1.082   .     S
C885   C956    1.416   .     S
C886   O914    1.291   .     A
C886   O915    1.291   .     A
C887   O916    1.291   .     A
C887   O917    1.300   .     A
C887   C889    1.470   .     S
C890   C891    1.392   .     A
C890   H904    1.083   .     S
C891   C244    1.393   1_556 S
C891   H258    1.083   1_556 S
C892   H905    1.078   .     S
Cu893  O910    1.964   .     S
Cu893  Cu894   2.676   .     S
Cu893  O914    1.964   .     S
Cu893  N908    2.011   .     S
Cu893  O912    1.952   .     S
Cu893  O916    1.948   .     S
Cu894  O915    1.964   .     S
Cu894  N909    2.011   .     S
Cu894  O913    1.948   .     S
Cu894  O917    1.952   .     S
Cu894  O911    1.964   .     S
C918   O920    1.399   .     S
C918   C240    1.492   1_556 S
C918   O343    1.223   1_556 S
O919   C414    1.223   1_455 S
O920   H993    1.014   .     S
H921   O1064   1.014   1_455 S
O922   C923    1.418   .     S
C923   H924    1.111   .     S
C923   H925    1.115   .     S
C923   C926    1.534   .     S
C926   H927    1.109   .     S
C926   H928    1.111   .     S
C926   C929    1.526   .     S
C929   H932    1.111   .     S
C929   H930    1.111   .     S
C929   H931    1.110   .     S
C933   O934    1.223   .     D
C933   O935    1.399   .     S
O935   H936    1.014   .     S
C937   C953    1.449   .     S
C937   O983    1.291   .     A
C937   O982    1.291   .     A
C938   C939    1.410   .     A
C938   C292    1.425   1_556 S
C938   C316    1.415   1_556 S
C939   C946    1.424   .     A
C939   C943    1.418   .     A
C940   C944    1.408   .     A
C941   C942    1.400   .     A
C941   C292    1.424   1_556 S
C941   C312    1.417   1_556 S
C942   C943    1.395   .     A
C942   H975    1.082   .     S
C943   C1005   1.488   .     S
C944   O994    1.387   .     S
C944   C961    1.410   .     A
C945   C960    1.401   .     A
C945   C961    1.397   .     A
C945   H967    1.084   .     S
C946   C962    1.402   .     A
C946   C948    1.481   .     S
C947   H979    1.083   .     S
C947   C953    1.401   .     A
C947   C1165   1.383   .     S
C948   O984    1.305   .     A
C948   O985    1.291   .     A
C949   C950    1.401   .     A
C949   H968    1.083   .     S
C950   C951    1.401   .     A
C950   C958    1.449   .     S
C951   H969    1.083   .     S
C952   C953    1.401   .     A
C952   H970    1.083   .     S
C952   C1167   1.383   .     S
C954   H971    1.082   .     S
C954   N981    1.367   .     A
C954   C1027   1.416   .     S
C955   H972    1.082   .     S
C955   N980    1.367   .     A
C956   H973    1.082   .     S
C956   N980    1.367   .     A
C957   N981    1.367   .     A
C957   H974    1.082   .     S
C957   C1028   1.416   .     S
C958   O986    1.291   .     A
C958   O987    1.291   .     A
C959   O988    1.291   .     A
C959   O989    1.300   .     A
C959   C961    1.470   .     S
C962   C963    1.392   .     A
C962   H976    1.083   .     S
C963   C316    1.393   1_556 S
C963   H330    1.083   1_556 S
C964   H977    1.078   .     S
Cu965  O982    1.964   .     S
Cu965  Cu966   2.676   .     S
Cu965  O986    1.964   .     S
Cu965  N980    2.011   .     S
Cu965  O984    1.952   .     S
Cu965  O988    1.948   .     S
Cu966  O987    1.964   .     S
Cu966  N981    2.011   .     S
Cu966  O985    1.948   .     S
Cu966  O989    1.952   .     S
Cu966  O983    1.964   .     S
C990   O992    1.399   .     S
C990   C312    1.492   1_556 S
C990   O415    1.223   1_556 S
O992   H1065   1.014   .     S
O994   C995    1.418   .     S
C995   H996    1.111   .     S
C995   H997    1.115   .     S
C995   C998    1.534   .     S
C998   H999    1.109   .     S
C998   H1000   1.111   .     S
C998   C1001   1.526   .     S
C1001  H1004   1.111   .     S
C1001  H1002   1.111   .     S
C1001  H1003   1.110   .     S
C1005  O1006   1.223   .     D
C1005  O1007   1.399   .     S
O1007  H1008   1.014   .     S
C1009  C1025   1.449   .     S
C1009  O1055   1.291   .     A
C1009  O1054   1.291   .     A
C1010  C1011   1.410   .     A
C1010  C364    1.425   1_556 S
C1010  C388    1.415   1_556 S
C1011  C1018   1.424   .     A
C1011  C1015   1.418   .     A
C1012  C1016   1.408   .     A
C1013  C1014   1.400   .     A
C1013  C364    1.424   1_556 S
C1013  C384    1.417   1_556 S
C1014  C1015   1.395   .     A
C1014  H1047   1.082   .     S
C1015  C1077   1.488   .     S
C1016  O1066   1.387   .     S
C1016  C1033   1.410   .     A
C1017  C1032   1.401   .     A
C1017  C1033   1.397   .     A
C1017  H1039   1.084   .     S
C1018  C1034   1.402   .     A
C1018  C1020   1.481   .     S
C1019  H1051   1.083   .     S
C1019  C1025   1.401   .     A
C1019  C1237   1.383   .     S
C1020  O1056   1.305   .     A
C1020  O1057   1.291   .     A
C1021  C1022   1.401   .     A
C1021  H1040   1.083   .     S
C1022  C1023   1.401   .     A
C1022  C1030   1.449   .     S
C1023  H1041   1.083   .     S
C1024  C1025   1.401   .     A
C1024  H1042   1.083   .     S
C1024  C1239   1.383   .     S
C1026  H1043   1.082   .     S
C1026  N1053   1.367   .     A
C1026  C883    1.416   1_655 S
C1027  H1044   1.082   .     S
C1027  N1052   1.367   .     A
C1028  H1045   1.082   .     S
C1028  N1052   1.367   .     A
C1029  N1053   1.367   .     A
C1029  H1046   1.082   .     S
C1029  C884    1.416   1_655 S
C1030  O1058   1.291   .     A
C1030  O1059   1.291   .     A
C1031  O1060   1.291   .     A
C1031  O1061   1.300   .     A
C1031  C1033   1.470   .     S
C1034  C1035   1.392   .     A
C1034  H1048   1.083   .     S
C1035  C388    1.393   1_556 S
C1035  H402    1.083   1_556 S
C1036  H1049   1.078   .     S
Cu1037 O1054   1.964   .     S
Cu1037 Cu1038  2.676   .     S
Cu1037 O1058   1.964   .     S
Cu1037 N1052   2.011   .     S
Cu1037 O1056   1.952   .     S
Cu1037 O1060   1.948   .     S
Cu1038 O1059   1.964   .     S
Cu1038 N1053   2.011   .     S
Cu1038 O1057   1.948   .     S
Cu1038 O1061   1.952   .     S
Cu1038 O1055   1.964   .     S
C1062  O1064   1.399   .     S
C1062  C384    1.492   1_556 S
C1062  O271    1.223   1_656 S
O1064  H921    1.014   1_655 S
O1066  C1067   1.418   .     S
C1067  H1068   1.111   .     S
C1067  H1069   1.115   .     S
C1067  C1070   1.534   .     S
C1070  H1071   1.109   .     S
C1070  H1072   1.111   .     S
C1070  C1073   1.526   .     S
C1073  H1076   1.111   .     S
C1073  H1074   1.111   .     S
C1073  H1075   1.110   .     S
C1077  O1078   1.223   .     D
C1077  O1079   1.399   .     S
O1079  H1080   1.014   .     S
C1081  C1097   1.449   .     S
C1081  O1127   1.291   .     A
C1081  O1126   1.291   .     A
C1082  C1083   1.410   .     A
C1082  C436    1.425   1_556 S
C1082  C460    1.415   1_556 S
C1083  C1090   1.424   .     A
C1083  C1087   1.418   .     A
C1084  C1088   1.408   .     A
C1085  C1086   1.400   .     A
C1085  C436    1.424   1_556 S
C1085  C456    1.417   1_556 S
C1086  C1087   1.395   .     A
C1086  H1119   1.082   .     S
C1087  C1149   1.488   .     S
C1088  O1138   1.387   .     S
C1088  C1105   1.410   .     A
C1089  C1104   1.401   .     A
C1089  C1105   1.397   .     A
C1089  H1111   1.084   .     S
C1090  C1106   1.402   .     A
C1090  C1092   1.481   .     S
C1091  H1123   1.083   .     S
C1091  C1097   1.401   .     A
C1091  C661    1.383   1_565 S
C1092  O1128   1.305   .     A
C1092  O1129   1.291   .     A
C1093  C1094   1.401   .     A
C1093  H1112   1.083   .     S
C1094  C1095   1.401   .     A
C1094  C1102   1.449   .     S
C1095  H1113   1.083   .     S
C1096  C1097   1.401   .     A
C1096  H1114   1.083   .     S
C1096  C663    1.383   1_565 S
C1098  H1115   1.082   .     S
C1098  N1125   1.367   .     A
C1098  C1171   1.416   .     S
C1099  H1116   1.082   .     S
C1099  N1124   1.367   .     A
C1099  C1242   1.416   1_455 S
C1100  H1117   1.082   .     S
C1100  N1124   1.367   .     A
C1100  C1245   1.416   1_455 S
C1101  N1125   1.367   .     A
C1101  H1118   1.082   .     S
C1101  C1172   1.416   .     S
C1102  O1130   1.291   .     A
C1102  O1131   1.291   .     A
C1103  O1132   1.291   .     A
C1103  O1133   1.300   .     A
C1103  C1105   1.470   .     S
C1106  C1107   1.392   .     A
C1106  H1120   1.083   .     S
C1107  C460    1.393   1_556 S
C1107  H474    1.083   1_556 S
C1108  H1121   1.078   .     S
Cu1109 O1126   1.964   .     S
Cu1109 Cu1110  2.676   .     S
Cu1109 O1130   1.964   .     S
Cu1109 N1124   2.011   .     S
Cu1109 O1128   1.952   .     S
Cu1109 O1132   1.948   .     S
Cu1110 O1131   1.964   .     S
Cu1110 N1125   2.011   .     S
Cu1110 O1129   1.948   .     S
Cu1110 O1133   1.952   .     S
Cu1110 O1127   1.964   .     S
C1134  O1136   1.399   .     S
C1134  C456    1.492   1_556 S
C1134  O559    1.223   1_556 S
O1135  C630    1.223   1_455 S
O1136  H1209   1.014   .     S
H1137  O1280   1.014   1_455 S
O1138  C1139   1.418   .     S
C1139  H1140   1.111   .     S
C1139  H1141   1.115   .     S
C1139  C1142   1.534   .     S
C1142  H1143   1.109   .     S
C1142  H1144   1.111   .     S
C1142  C1145   1.526   .     S
C1145  H1148   1.111   .     S
C1145  H1146   1.111   .     S
C1145  H1147   1.110   .     S
C1149  O1150   1.223   .     D
C1149  O1151   1.399   .     S
O1151  H1152   1.014   .     S
C1153  C1169   1.449   .     S
C1153  O1199   1.291   .     A
C1153  O1198   1.291   .     A
C1154  C1155   1.410   .     A
C1154  C508    1.425   1_556 S
C1154  C532    1.415   1_556 S
C1155  C1162   1.424   .     A
C1155  C1159   1.418   .     A
C1156  C1160   1.408   .     A
C1157  C1158   1.400   .     A
C1157  C508    1.424   1_556 S
C1157  C528    1.417   1_556 S
C1158  C1159   1.395   .     A
C1158  H1191   1.082   .     S
C1159  C1221   1.488   .     S
C1160  O1210   1.387   .     S
C1160  C1177   1.410   .     A
C1161  C1176   1.401   .     A
C1161  C1177   1.397   .     A
C1161  H1183   1.084   .     S
C1162  C1178   1.402   .     A
C1162  C1164   1.481   .     S
C1163  H1195   1.083   .     S
C1163  C1169   1.401   .     A
C1163  C733    1.383   1_565 S
C1164  O1200   1.305   .     A
C1164  O1201   1.291   .     A
C1165  C1166   1.401   .     A
C1165  H1184   1.083   .     S
C1166  C1167   1.401   .     A
C1166  C1174   1.449   .     S
C1167  H1185   1.083   .     S
C1168  C1169   1.401   .     A
C1168  H1186   1.083   .     S
C1168  C735    1.383   1_565 S
C1170  H1187   1.082   .     S
C1170  N1197   1.367   .     A
C1170  C1243   1.416   .     S
C1171  H1188   1.082   .     S
C1171  N1196   1.367   .     A
C1172  H1189   1.082   .     S
C1172  N1196   1.367   .     A
C1173  N1197   1.367   .     A
C1173  H1190   1.082   .     S
C1173  C1244   1.416   .     S
C1174  O1202   1.291   .     A
C1174  O1203   1.291   .     A
C1175  O1204   1.291   .     A
C1175  O1205   1.300   .     A
C1175  C1177   1.470   .     S
C1178  C1179   1.392   .     A
C1178  H1192   1.083   .     S
C1179  C532    1.393   1_556 S
C1179  H546    1.083   1_556 S
C1180  H1193   1.078   .     S
Cu1181 O1198   1.964   .     S
Cu1181 Cu1182  2.676   .     S
Cu1181 O1202   1.964   .     S
Cu1181 N1196   2.011   .     S
Cu1181 O1200   1.952   .     S
Cu1181 O1204   1.948   .     S
Cu1182 O1203   1.964   .     S
Cu1182 N1197   2.011   .     S
Cu1182 O1201   1.948   .     S
Cu1182 O1205   1.952   .     S
Cu1182 O1199   1.964   .     S
C1206  O1208   1.399   .     S
C1206  C528    1.492   1_556 S
C1206  O631    1.223   1_556 S
O1208  H1281   1.014   .     S
O1210  C1211   1.418   .     S
C1211  H1212   1.111   .     S
C1211  H1213   1.115   .     S
C1211  C1214   1.534   .     S
C1214  H1215   1.109   .     S
C1214  H1216   1.111   .     S
C1214  C1217   1.526   .     S
C1217  H1220   1.111   .     S
C1217  H1218   1.111   .     S
C1217  H1219   1.110   .     S
C1221  O1222   1.223   .     D
C1221  O1223   1.399   .     S
O1223  H1224   1.014   .     S
C1225  C1241   1.449   .     S
C1225  O1271   1.291   .     A
C1225  O1270   1.291   .     A
C1226  C1227   1.410   .     A
C1226  C580    1.425   1_556 S
C1226  C604    1.415   1_556 S
C1227  C1234   1.424   .     A
C1227  C1231   1.418   .     A
C1228  C1232   1.408   .     A
C1229  C1230   1.400   .     A
C1229  C580    1.424   1_556 S
C1229  C600    1.417   1_556 S
C1230  C1231   1.395   .     A
C1230  H1263   1.082   .     S
C1231  C1293   1.488   .     S
C1232  O1282   1.387   .     S
C1232  C1249   1.410   .     A
C1233  C1248   1.401   .     A
C1233  C1249   1.397   .     A
C1233  H1255   1.084   .     S
C1234  C1250   1.402   .     A
C1234  C1236   1.481   .     S
C1235  H1267   1.083   .     S
C1235  C1241   1.401   .     A
C1235  C805    1.383   1_565 S
C1236  O1272   1.305   .     A
C1236  O1273   1.291   .     A
C1237  C1238   1.401   .     A
C1237  H1256   1.083   .     S
C1238  C1239   1.401   .     A
C1238  C1246   1.449   .     S
C1239  H1257   1.083   .     S
C1240  C1241   1.401   .     A
C1240  H1258   1.083   .     S
C1240  C807    1.383   1_565 S
C1242  H1259   1.082   .     S
C1242  N1269   1.367   .     A
C1242  C1099   1.416   1_655 S
C1243  H1260   1.082   .     S
C1243  N1268   1.367   .     A
C1244  H1261   1.082   .     S
C1244  N1268   1.367   .     A
C1245  N1269   1.367   .     A
C1245  H1262   1.082   .     S
C1245  C1100   1.416   1_655 S
C1246  O1274   1.291   .     A
C1246  O1275   1.291   .     A
C1247  O1276   1.291   .     A
C1247  O1277   1.300   .     A
C1247  C1249   1.470   .     S
C1250  C1251   1.392   .     A
C1250  H1264   1.083   .     S
C1251  C604    1.393   1_556 S
C1251  H618    1.083   1_556 S
C1252  H1265   1.078   .     S
Cu1253 O1270   1.964   .     S
Cu1253 Cu1254  2.676   .     S
Cu1253 O1274   1.964   .     S
Cu1253 N1268   2.011   .     S
Cu1253 O1272   1.952   .     S
Cu1253 O1276   1.948   .     S
Cu1254 O1275   1.964   .     S
Cu1254 N1269   2.011   .     S
Cu1254 O1273   1.948   .     S
Cu1254 O1277   1.952   .     S
Cu1254 O1271   1.964   .     S
C1278  O1280   1.399   .     S
C1278  C600    1.492   1_556 S
C1278  O487    1.223   1_656 S
O1280  H1137   1.014   1_655 S
O1282  C1283   1.418   .     S
C1283  H1284   1.111   .     S
C1283  H1285   1.115   .     S
C1283  C1286   1.534   .     S
C1286  H1287   1.109   .     S
C1286  H1288   1.111   .     S
C1286  C1289   1.526   .     S
C1289  H1292   1.111   .     S
C1289  H1290   1.111   .     S
C1289  H1291   1.110   .     S
C1293  O1294   1.223   .     D
C1293  O1295   1.399   .     S
O1295  H1296   1.014   .     S
