data_str_m2_o1_o17_pcu_sym.75
_audit_creation_date              2020-01-03
_audit_creation_method            'Materials Studio'
_symmetry_space_group_name_H-M    'P1'
_symmetry_Int_Tables_number       1
_symmetry_cell_setting            triclinic
loop_
_symmetry_equiv_pos_as_xyz
  x,y,z
_cell_length_a                    32.4226
_cell_length_b                    28.5342
_cell_length_c                    30.1617
_cell_angle_alpha                 90.0424
_cell_angle_beta                  90.2690
_cell_angle_gamma                 90.0861
loop_
_atom_site_label
_atom_site_type_symbol
_atom_site_fract_x
_atom_site_fract_y
_atom_site_fract_z
_atom_site_U_iso_or_equiv
_atom_site_adp_type
_atom_site_occupancy
O1     O     0.10655   0.20625   0.25000   0.00000  Uiso   1.00
O2     O     0.22679   0.12709   0.25001   0.00000  Uiso   1.00
O3     O     0.22679   0.20625   0.25001   0.00000  Uiso   1.00
O4     O     0.10655   0.12709   0.25000   0.00000  Uiso   1.00
C5     C     0.08745   0.16661   0.24979   0.00000  Uiso   1.00
C6     C     0.24588   0.16672   0.25021   0.00000  Uiso   1.00
O7     O     0.16666   0.20627   0.18513   0.00000  Uiso   1.00
O8     O     0.16668   0.12707   0.31487   0.00000  Uiso   1.00
O9     O     0.16668   0.20627   0.31487   0.00000  Uiso   1.00
O10    O     0.16666   0.12707   0.18513   0.00000  Uiso   1.00
C11    C     0.16666   0.16665   0.16427   0.00000  Uiso   1.00
C12    C     0.16667   0.16668   0.33574   0.00000  Uiso   1.00
Cu13   Cu    0.16667   0.21355   0.25000   0.00000  Uiso   1.00
Cu14   Cu    0.16667   0.11978   0.25000   0.00000  Uiso   1.00
C15    C     0.16678   0.20932   0.40739   0.00000  Uiso   1.00
C16    C     0.16655   0.12402   0.09261   0.00000  Uiso   1.00
C17    C     0.16671   0.16669   0.38417   0.00000  Uiso   1.00
C18    C     0.16663   0.16665   0.11583   0.00000  Uiso   1.00
C19    C     0.16666   0.12405   0.40732   0.00000  Uiso   1.00
C20    C     0.16668   0.20929   0.09268   0.00000  Uiso   1.00
C21    C     0.16664   0.12374   0.45351   0.00000  Uiso   1.00
C22    C     0.16670   0.20960   0.04649   0.00000  Uiso   1.00
C23    C     0.16668   0.16667   0.47676   0.00000  Uiso   1.00
C24    C     0.16665   0.16666   0.02324   0.00000  Uiso   1.00
C25    C     0.16676   0.20961   0.45358   0.00000  Uiso   1.00
C26    C     0.16657   0.12372   0.04642   0.00000  Uiso   1.00
C27    C     0.16656   0.08125   0.47681   0.00000  Uiso   1.00
C28    C     0.16677   0.25209   0.02319   0.00000  Uiso   1.00
C29    C     0.16653   0.08124   0.02304   0.00000  Uiso   1.00
C30    C     0.16681   0.25209   0.47696   0.00000  Uiso   1.00
H31    H     0.16685   0.24232   0.38960   0.00000  Uiso   1.00
H32    H     0.16649   0.09101   0.11040   0.00000  Uiso   1.00
H33    H     0.16662   0.09105   0.38947   0.00000  Uiso   1.00
H34    H     0.16671   0.24229   0.11053   0.00000  Uiso   1.00
H35    H     0.16653   0.04807   0.45930   0.00000  Uiso   1.00
H36    H     0.16681   0.28526   0.04070   0.00000  Uiso   1.00
H37    H     0.16647   0.04806   0.04049   0.00000  Uiso   1.00
H38    H     0.16687   0.28528   0.45951   0.00000  Uiso   1.00
C39    C     0.02171   0.13688   0.27915   0.00000  Uiso   1.00
C40    C     0.31162   0.19645   0.22085   0.00000  Uiso   1.00
C41    C     0.31201   0.13721   0.27980   0.00000  Uiso   1.00
C42    C     0.02132   0.19612   0.22020   0.00000  Uiso   1.00
C43    C     0.29051   0.16691   0.25047   0.00000  Uiso   1.00
C44    C     0.04282   0.16642   0.24953   0.00000  Uiso   1.00
C45    C     0.14225   0.02475   0.22111   0.00000  Uiso   1.00
C46    C     0.19108   0.30858   0.27889   0.00000  Uiso   1.00
C47    C     0.19106   0.02488   0.27892   0.00000  Uiso   1.00
C48    C     0.14228   0.30845   0.22108   0.00000  Uiso   1.00
H49    H     0.12268   0.04341   0.19798   0.00000  Uiso   1.00
H50    H     0.21065   0.28992   0.30202   0.00000  Uiso   1.00
H51    H     0.21053   0.04365   0.30211   0.00000  Uiso   1.00
H52    H     0.12280   0.28968   0.19789   0.00000  Uiso   1.00
N53    N     0.16667   0.28402   0.25000   0.00000  Uiso   1.00
N54    N     0.16667   0.04931   0.25000   0.00000  Uiso   1.00
N55    N     0.04399   0.10925   0.31091   0.00000  Uiso   1.00
O56    O     0.06434   0.12972   0.34278   0.00000  Uiso   1.00
O57    O     0.04833   0.06442   0.30465   0.00000  Uiso   1.00
N58    N     0.28934   0.22408   0.18909   0.00000  Uiso   1.00
O59    O     0.26902   0.20361   0.15720   0.00000  Uiso   1.00
O60    O     0.28497   0.26891   0.19538   0.00000  Uiso   1.00
N61    N     0.29034   0.10980   0.31220   0.00000  Uiso   1.00
O62    O     0.29610   0.06477   0.31473   0.00000  Uiso   1.00
O63    O     0.26492   0.12990   0.33950   0.00000  Uiso   1.00
N64    N     0.04300   0.22353   0.18779   0.00000  Uiso   1.00
O65    O     0.03720   0.26855   0.18523   0.00000  Uiso   1.00
O66    O     0.06844   0.20344   0.16052   0.00000  Uiso   1.00
O67    O     0.43988   0.20625   0.25000   0.00000  Uiso   1.00
O68    O     0.56012   0.12709   0.25001   0.00000  Uiso   1.00
O69    O     0.56012   0.20625   0.25001   0.00000  Uiso   1.00
O70    O     0.43988   0.12709   0.25000   0.00000  Uiso   1.00
C71    C     0.42079   0.16661   0.24979   0.00000  Uiso   1.00
C72    C     0.57921   0.16672   0.25021   0.00000  Uiso   1.00
O73    O     0.49999   0.20627   0.18513   0.00000  Uiso   1.00
O74    O     0.50001   0.12707   0.31487   0.00000  Uiso   1.00
O75    O     0.50001   0.20627   0.31487   0.00000  Uiso   1.00
O76    O     0.49999   0.12707   0.18513   0.00000  Uiso   1.00
C77    C     0.49999   0.16665   0.16427   0.00000  Uiso   1.00
C78    C     0.50001   0.16668   0.33574   0.00000  Uiso   1.00
Cu79   Cu    0.50000   0.21355   0.25000   0.00000  Uiso   1.00
Cu80   Cu    0.50000   0.11978   0.25000   0.00000  Uiso   1.00
C81    C     0.50011   0.20932   0.40739   0.00000  Uiso   1.00
C82    C     0.49989   0.12402   0.09261   0.00000  Uiso   1.00
C83    C     0.50004   0.16669   0.38417   0.00000  Uiso   1.00
C84    C     0.49996   0.16665   0.11583   0.00000  Uiso   1.00
C85    C     0.49999   0.12405   0.40732   0.00000  Uiso   1.00
C86    C     0.50001   0.20929   0.09268   0.00000  Uiso   1.00
C87    C     0.49997   0.12374   0.45351   0.00000  Uiso   1.00
C88    C     0.50003   0.20960   0.04649   0.00000  Uiso   1.00
C89    C     0.50002   0.16667   0.47676   0.00000  Uiso   1.00
C90    C     0.49999   0.16666   0.02324   0.00000  Uiso   1.00
C91    C     0.50010   0.20961   0.45358   0.00000  Uiso   1.00
C92    C     0.49991   0.12372   0.04642   0.00000  Uiso   1.00
C93    C     0.49990   0.08125   0.47681   0.00000  Uiso   1.00
C94    C     0.50011   0.25209   0.02319   0.00000  Uiso   1.00
C95    C     0.49986   0.08124   0.02304   0.00000  Uiso   1.00
C96    C     0.50014   0.25209   0.47696   0.00000  Uiso   1.00
H97    H     0.50018   0.24232   0.38960   0.00000  Uiso   1.00
H98    H     0.49982   0.09101   0.11040   0.00000  Uiso   1.00
H99    H     0.49996   0.09105   0.38947   0.00000  Uiso   1.00
H100   H     0.50005   0.24229   0.11053   0.00000  Uiso   1.00
H101   H     0.49986   0.04807   0.45930   0.00000  Uiso   1.00
H102   H     0.50014   0.28526   0.04070   0.00000  Uiso   1.00
H103   H     0.49980   0.04806   0.04049   0.00000  Uiso   1.00
H104   H     0.50020   0.28528   0.45951   0.00000  Uiso   1.00
C105   C     0.35505   0.13688   0.27915   0.00000  Uiso   1.00
C106   C     0.64495   0.19645   0.22085   0.00000  Uiso   1.00
C107   C     0.64534   0.13721   0.27980   0.00000  Uiso   1.00
C108   C     0.35466   0.19612   0.22020   0.00000  Uiso   1.00
C109   C     0.62385   0.16691   0.25047   0.00000  Uiso   1.00
C110   C     0.37615   0.16642   0.24953   0.00000  Uiso   1.00
C111   C     0.47558   0.02475   0.22111   0.00000  Uiso   1.00
C112   C     0.52442   0.30858   0.27889   0.00000  Uiso   1.00
C113   C     0.52439   0.02488   0.27892   0.00000  Uiso   1.00
C114   C     0.47561   0.30845   0.22108   0.00000  Uiso   1.00
H115   H     0.45601   0.04341   0.19798   0.00000  Uiso   1.00
H116   H     0.54399   0.28992   0.30202   0.00000  Uiso   1.00
H117   H     0.54387   0.04365   0.30211   0.00000  Uiso   1.00
H118   H     0.45613   0.28968   0.19789   0.00000  Uiso   1.00
N119   N     0.50000   0.28402   0.25000   0.00000  Uiso   1.00
N120   N     0.50000   0.04931   0.25000   0.00000  Uiso   1.00
N121   N     0.37732   0.10925   0.31091   0.00000  Uiso   1.00
O122   O     0.39767   0.12972   0.34278   0.00000  Uiso   1.00
O123   O     0.38166   0.06442   0.30465   0.00000  Uiso   1.00
N124   N     0.62268   0.22408   0.18909   0.00000  Uiso   1.00
O125   O     0.60235   0.20361   0.15720   0.00000  Uiso   1.00
O126   O     0.61830   0.26891   0.19538   0.00000  Uiso   1.00
N127   N     0.62367   0.10980   0.31220   0.00000  Uiso   1.00
O128   O     0.62944   0.06477   0.31473   0.00000  Uiso   1.00
O129   O     0.59825   0.12990   0.33950   0.00000  Uiso   1.00
N130   N     0.37633   0.22353   0.18779   0.00000  Uiso   1.00
O131   O     0.37053   0.26855   0.18523   0.00000  Uiso   1.00
O132   O     0.40177   0.20344   0.16052   0.00000  Uiso   1.00
O133   O     0.77321   0.20625   0.25000   0.00000  Uiso   1.00
O134   O     0.89345   0.12709   0.25001   0.00000  Uiso   1.00
O135   O     0.89345   0.20625   0.25001   0.00000  Uiso   1.00
O136   O     0.77321   0.12709   0.25000   0.00000  Uiso   1.00
C137   C     0.75412   0.16661   0.24979   0.00000  Uiso   1.00
C138   C     0.91255   0.16672   0.25021   0.00000  Uiso   1.00
O139   O     0.83332   0.20627   0.18513   0.00000  Uiso   1.00
O140   O     0.83334   0.12707   0.31487   0.00000  Uiso   1.00
O141   O     0.83334   0.20627   0.31487   0.00000  Uiso   1.00
O142   O     0.83332   0.12707   0.18513   0.00000  Uiso   1.00
C143   C     0.83333   0.16665   0.16427   0.00000  Uiso   1.00
C144   C     0.83334   0.16668   0.33574   0.00000  Uiso   1.00
Cu145  Cu    0.83333   0.21355   0.25000   0.00000  Uiso   1.00
Cu146  Cu    0.83333   0.11978   0.25000   0.00000  Uiso   1.00
C147   C     0.83345   0.20932   0.40739   0.00000  Uiso   1.00
C148   C     0.83322   0.12402   0.09261   0.00000  Uiso   1.00
C149   C     0.83337   0.16669   0.38417   0.00000  Uiso   1.00
C150   C     0.83330   0.16665   0.11583   0.00000  Uiso   1.00
C151   C     0.83332   0.12405   0.40732   0.00000  Uiso   1.00
C152   C     0.83335   0.20929   0.09268   0.00000  Uiso   1.00
C153   C     0.83330   0.12374   0.45351   0.00000  Uiso   1.00
C154   C     0.83337   0.20960   0.04649   0.00000  Uiso   1.00
C155   C     0.83335   0.16667   0.47676   0.00000  Uiso   1.00
C156   C     0.83332   0.16666   0.02324   0.00000  Uiso   1.00
C157   C     0.83343   0.20961   0.45358   0.00000  Uiso   1.00
C158   C     0.83324   0.12372   0.04642   0.00000  Uiso   1.00
C159   C     0.83323   0.08125   0.47681   0.00000  Uiso   1.00
C160   C     0.83344   0.25209   0.02319   0.00000  Uiso   1.00
C161   C     0.83319   0.08124   0.02304   0.00000  Uiso   1.00
C162   C     0.83348   0.25209   0.47696   0.00000  Uiso   1.00
H163   H     0.83351   0.24232   0.38960   0.00000  Uiso   1.00
H164   H     0.83315   0.09101   0.11040   0.00000  Uiso   1.00
H165   H     0.83329   0.09105   0.38947   0.00000  Uiso   1.00
H166   H     0.83338   0.24229   0.11053   0.00000  Uiso   1.00
H167   H     0.83319   0.04807   0.45930   0.00000  Uiso   1.00
H168   H     0.83348   0.28526   0.04070   0.00000  Uiso   1.00
H169   H     0.83313   0.04806   0.04049   0.00000  Uiso   1.00
H170   H     0.83354   0.28528   0.45951   0.00000  Uiso   1.00
C171   C     0.68838   0.13688   0.27915   0.00000  Uiso   1.00
C172   C     0.97829   0.19645   0.22085   0.00000  Uiso   1.00
C173   C     0.97868   0.13721   0.27980   0.00000  Uiso   1.00
C174   C     0.68799   0.19612   0.22020   0.00000  Uiso   1.00
C175   C     0.95718   0.16691   0.25047   0.00000  Uiso   1.00
C176   C     0.70949   0.16642   0.24953   0.00000  Uiso   1.00
C177   C     0.80892   0.02475   0.22111   0.00000  Uiso   1.00
C178   C     0.85775   0.30858   0.27889   0.00000  Uiso   1.00
C179   C     0.85772   0.02488   0.27892   0.00000  Uiso   1.00
C180   C     0.80894   0.30845   0.22108   0.00000  Uiso   1.00
H181   H     0.78935   0.04341   0.19798   0.00000  Uiso   1.00
H182   H     0.87732   0.28992   0.30202   0.00000  Uiso   1.00
H183   H     0.87720   0.04365   0.30211   0.00000  Uiso   1.00
H184   H     0.78947   0.28968   0.19789   0.00000  Uiso   1.00
N185   N     0.83333   0.28402   0.25000   0.00000  Uiso   1.00
N186   N     0.83333   0.04931   0.25000   0.00000  Uiso   1.00
N187   N     0.71066   0.10925   0.31091   0.00000  Uiso   1.00
O188   O     0.73100   0.12972   0.34278   0.00000  Uiso   1.00
O189   O     0.71500   0.06442   0.30465   0.00000  Uiso   1.00
N190   N     0.95601   0.22408   0.18909   0.00000  Uiso   1.00
O191   O     0.93568   0.20361   0.15720   0.00000  Uiso   1.00
O192   O     0.95164   0.26891   0.19538   0.00000  Uiso   1.00
N193   N     0.95700   0.10980   0.31220   0.00000  Uiso   1.00
O194   O     0.96277   0.06477   0.31473   0.00000  Uiso   1.00
O195   O     0.93158   0.12990   0.33950   0.00000  Uiso   1.00
N196   N     0.70966   0.22353   0.18779   0.00000  Uiso   1.00
O197   O     0.70387   0.26855   0.18523   0.00000  Uiso   1.00
O198   O     0.73511   0.20344   0.16052   0.00000  Uiso   1.00
O199   O     0.10655   0.53958   0.25000   0.00000  Uiso   1.00
O200   O     0.22679   0.46042   0.25001   0.00000  Uiso   1.00
O201   O     0.22679   0.53958   0.25001   0.00000  Uiso   1.00
O202   O     0.10655   0.46042   0.25000   0.00000  Uiso   1.00
C203   C     0.08745   0.49995   0.24979   0.00000  Uiso   1.00
C204   C     0.24588   0.50005   0.25021   0.00000  Uiso   1.00
O205   O     0.16666   0.53960   0.18513   0.00000  Uiso   1.00
O206   O     0.16668   0.46040   0.31487   0.00000  Uiso   1.00
O207   O     0.16668   0.53960   0.31487   0.00000  Uiso   1.00
O208   O     0.16666   0.46040   0.18513   0.00000  Uiso   1.00
C209   C     0.16666   0.49999   0.16427   0.00000  Uiso   1.00
C210   C     0.16667   0.50001   0.33574   0.00000  Uiso   1.00
Cu211  Cu    0.16667   0.54689   0.25000   0.00000  Uiso   1.00
Cu212  Cu    0.16667   0.45311   0.25000   0.00000  Uiso   1.00
C213   C     0.16678   0.54265   0.40739   0.00000  Uiso   1.00
C214   C     0.16655   0.45735   0.09261   0.00000  Uiso   1.00
C215   C     0.16671   0.50002   0.38417   0.00000  Uiso   1.00
C216   C     0.16663   0.49998   0.11583   0.00000  Uiso   1.00
C217   C     0.16666   0.45738   0.40732   0.00000  Uiso   1.00
C218   C     0.16668   0.54262   0.09268   0.00000  Uiso   1.00
C219   C     0.16664   0.45707   0.45351   0.00000  Uiso   1.00
C220   C     0.16670   0.54293   0.04649   0.00000  Uiso   1.00
C221   C     0.16668   0.50000   0.47676   0.00000  Uiso   1.00
C222   C     0.16665   0.50000   0.02324   0.00000  Uiso   1.00
C223   C     0.16676   0.54294   0.45358   0.00000  Uiso   1.00
C224   C     0.16657   0.45706   0.04642   0.00000  Uiso   1.00
C225   C     0.16656   0.41458   0.47681   0.00000  Uiso   1.00
C226   C     0.16677   0.58542   0.02319   0.00000  Uiso   1.00
C227   C     0.16653   0.41457   0.02304   0.00000  Uiso   1.00
C228   C     0.16681   0.58543   0.47696   0.00000  Uiso   1.00
H229   H     0.16685   0.57566   0.38960   0.00000  Uiso   1.00
H230   H     0.16649   0.42434   0.11040   0.00000  Uiso   1.00
H231   H     0.16662   0.42438   0.38947   0.00000  Uiso   1.00
H232   H     0.16671   0.57562   0.11053   0.00000  Uiso   1.00
H233   H     0.16653   0.38140   0.45930   0.00000  Uiso   1.00
H234   H     0.16681   0.61860   0.04070   0.00000  Uiso   1.00
H235   H     0.16647   0.38139   0.04049   0.00000  Uiso   1.00
H236   H     0.16687   0.61861   0.45951   0.00000  Uiso   1.00
C237   C     0.02171   0.47022   0.27915   0.00000  Uiso   1.00
C238   C     0.31162   0.52978   0.22085   0.00000  Uiso   1.00
C239   C     0.31201   0.47054   0.27980   0.00000  Uiso   1.00
C240   C     0.02132   0.52946   0.22020   0.00000  Uiso   1.00
C241   C     0.29051   0.50025   0.25047   0.00000  Uiso   1.00
C242   C     0.04282   0.49975   0.24953   0.00000  Uiso   1.00
C243   C     0.14225   0.35808   0.22111   0.00000  Uiso   1.00
C244   C     0.19108   0.64192   0.27889   0.00000  Uiso   1.00
C245   C     0.19106   0.35821   0.27892   0.00000  Uiso   1.00
C246   C     0.14228   0.64179   0.22108   0.00000  Uiso   1.00
H247   H     0.12268   0.37675   0.19798   0.00000  Uiso   1.00
H248   H     0.21065   0.62325   0.30202   0.00000  Uiso   1.00
H249   H     0.21053   0.37699   0.30211   0.00000  Uiso   1.00
H250   H     0.12280   0.62301   0.19789   0.00000  Uiso   1.00
N251   N     0.16667   0.61736   0.25000   0.00000  Uiso   1.00
N252   N     0.16667   0.38264   0.25000   0.00000  Uiso   1.00
N253   N     0.04399   0.44259   0.31091   0.00000  Uiso   1.00
O254   O     0.06434   0.46306   0.34278   0.00000  Uiso   1.00
O255   O     0.04833   0.39775   0.30465   0.00000  Uiso   1.00
N256   N     0.28934   0.55742   0.18909   0.00000  Uiso   1.00
O257   O     0.26902   0.53694   0.15720   0.00000  Uiso   1.00
O258   O     0.28497   0.60224   0.19538   0.00000  Uiso   1.00
N259   N     0.29034   0.44313   0.31220   0.00000  Uiso   1.00
O260   O     0.29610   0.39810   0.31473   0.00000  Uiso   1.00
O261   O     0.26492   0.46323   0.33950   0.00000  Uiso   1.00
N262   N     0.04300   0.55686   0.18779   0.00000  Uiso   1.00
O263   O     0.03720   0.60189   0.18523   0.00000  Uiso   1.00
O264   O     0.06844   0.53677   0.16052   0.00000  Uiso   1.00
O265   O     0.43988   0.53958   0.25000   0.00000  Uiso   1.00
O266   O     0.56012   0.46042   0.25001   0.00000  Uiso   1.00
O267   O     0.56012   0.53958   0.25001   0.00000  Uiso   1.00
O268   O     0.43988   0.46042   0.25000   0.00000  Uiso   1.00
C269   C     0.42079   0.49995   0.24979   0.00000  Uiso   1.00
C270   C     0.57921   0.50005   0.25021   0.00000  Uiso   1.00
O271   O     0.49999   0.53960   0.18513   0.00000  Uiso   1.00
O272   O     0.50001   0.46040   0.31487   0.00000  Uiso   1.00
O273   O     0.50001   0.53960   0.31487   0.00000  Uiso   1.00
O274   O     0.49999   0.46040   0.18513   0.00000  Uiso   1.00
C275   C     0.49999   0.49999   0.16427   0.00000  Uiso   1.00
C276   C     0.50001   0.50001   0.33574   0.00000  Uiso   1.00
Cu277  Cu    0.50000   0.54689   0.25000   0.00000  Uiso   1.00
Cu278  Cu    0.50000   0.45311   0.25000   0.00000  Uiso   1.00
C279   C     0.50011   0.54265   0.40739   0.00000  Uiso   1.00
C280   C     0.49989   0.45735   0.09261   0.00000  Uiso   1.00
C281   C     0.50004   0.50002   0.38417   0.00000  Uiso   1.00
C282   C     0.49996   0.49998   0.11583   0.00000  Uiso   1.00
C283   C     0.49999   0.45738   0.40732   0.00000  Uiso   1.00
C284   C     0.50001   0.54262   0.09268   0.00000  Uiso   1.00
C285   C     0.49997   0.45707   0.45351   0.00000  Uiso   1.00
C286   C     0.50003   0.54293   0.04649   0.00000  Uiso   1.00
C287   C     0.50002   0.50000   0.47676   0.00000  Uiso   1.00
C288   C     0.49999   0.50000   0.02324   0.00000  Uiso   1.00
C289   C     0.50010   0.54294   0.45358   0.00000  Uiso   1.00
C290   C     0.49991   0.45706   0.04642   0.00000  Uiso   1.00
C291   C     0.49990   0.41458   0.47681   0.00000  Uiso   1.00
C292   C     0.50011   0.58542   0.02319   0.00000  Uiso   1.00
C293   C     0.49986   0.41457   0.02304   0.00000  Uiso   1.00
C294   C     0.50014   0.58543   0.47696   0.00000  Uiso   1.00
H295   H     0.50018   0.57566   0.38960   0.00000  Uiso   1.00
H296   H     0.49982   0.42434   0.11040   0.00000  Uiso   1.00
H297   H     0.49996   0.42438   0.38947   0.00000  Uiso   1.00
H298   H     0.50005   0.57562   0.11053   0.00000  Uiso   1.00
H299   H     0.49986   0.38140   0.45930   0.00000  Uiso   1.00
H300   H     0.50014   0.61860   0.04070   0.00000  Uiso   1.00
H301   H     0.49980   0.38139   0.04049   0.00000  Uiso   1.00
H302   H     0.50020   0.61861   0.45951   0.00000  Uiso   1.00
C303   C     0.35505   0.47022   0.27915   0.00000  Uiso   1.00
C304   C     0.64495   0.52978   0.22085   0.00000  Uiso   1.00
C305   C     0.64534   0.47054   0.27980   0.00000  Uiso   1.00
C306   C     0.35466   0.52946   0.22020   0.00000  Uiso   1.00
C307   C     0.62385   0.50025   0.25047   0.00000  Uiso   1.00
C308   C     0.37615   0.49975   0.24953   0.00000  Uiso   1.00
C309   C     0.47558   0.35808   0.22111   0.00000  Uiso   1.00
C310   C     0.52442   0.64192   0.27889   0.00000  Uiso   1.00
C311   C     0.52439   0.35821   0.27892   0.00000  Uiso   1.00
C312   C     0.47561   0.64179   0.22108   0.00000  Uiso   1.00
H313   H     0.45601   0.37675   0.19798   0.00000  Uiso   1.00
H314   H     0.54399   0.62325   0.30202   0.00000  Uiso   1.00
H315   H     0.54387   0.37699   0.30211   0.00000  Uiso   1.00
H316   H     0.45613   0.62301   0.19789   0.00000  Uiso   1.00
N317   N     0.50000   0.61736   0.25000   0.00000  Uiso   1.00
N318   N     0.50000   0.38264   0.25000   0.00000  Uiso   1.00
N319   N     0.37732   0.44259   0.31091   0.00000  Uiso   1.00
O320   O     0.39767   0.46306   0.34278   0.00000  Uiso   1.00
O321   O     0.38166   0.39775   0.30465   0.00000  Uiso   1.00
N322   N     0.62268   0.55742   0.18909   0.00000  Uiso   1.00
O323   O     0.60235   0.53694   0.15720   0.00000  Uiso   1.00
O324   O     0.61830   0.60224   0.19538   0.00000  Uiso   1.00
N325   N     0.62367   0.44313   0.31220   0.00000  Uiso   1.00
O326   O     0.62944   0.39810   0.31473   0.00000  Uiso   1.00
O327   O     0.59825   0.46323   0.33950   0.00000  Uiso   1.00
N328   N     0.37633   0.55686   0.18779   0.00000  Uiso   1.00
O329   O     0.37053   0.60189   0.18523   0.00000  Uiso   1.00
O330   O     0.40177   0.53677   0.16052   0.00000  Uiso   1.00
O331   O     0.77321   0.53958   0.25000   0.00000  Uiso   1.00
O332   O     0.89345   0.46042   0.25001   0.00000  Uiso   1.00
O333   O     0.89345   0.53958   0.25001   0.00000  Uiso   1.00
O334   O     0.77321   0.46042   0.25000   0.00000  Uiso   1.00
C335   C     0.75412   0.49995   0.24979   0.00000  Uiso   1.00
C336   C     0.91255   0.50005   0.25021   0.00000  Uiso   1.00
O337   O     0.83332   0.53960   0.18513   0.00000  Uiso   1.00
O338   O     0.83334   0.46040   0.31487   0.00000  Uiso   1.00
O339   O     0.83334   0.53960   0.31487   0.00000  Uiso   1.00
O340   O     0.83332   0.46040   0.18513   0.00000  Uiso   1.00
C341   C     0.83333   0.49999   0.16427   0.00000  Uiso   1.00
C342   C     0.83334   0.50001   0.33574   0.00000  Uiso   1.00
Cu343  Cu    0.83333   0.54689   0.25000   0.00000  Uiso   1.00
Cu344  Cu    0.83333   0.45311   0.25000   0.00000  Uiso   1.00
C345   C     0.83345   0.54265   0.40739   0.00000  Uiso   1.00
C346   C     0.83322   0.45735   0.09261   0.00000  Uiso   1.00
C347   C     0.83337   0.50002   0.38417   0.00000  Uiso   1.00
C348   C     0.83330   0.49998   0.11583   0.00000  Uiso   1.00
C349   C     0.83332   0.45738   0.40732   0.00000  Uiso   1.00
C350   C     0.83335   0.54262   0.09268   0.00000  Uiso   1.00
C351   C     0.83330   0.45707   0.45351   0.00000  Uiso   1.00
C352   C     0.83337   0.54293   0.04649   0.00000  Uiso   1.00
C353   C     0.83335   0.50000   0.47676   0.00000  Uiso   1.00
C354   C     0.83332   0.50000   0.02324   0.00000  Uiso   1.00
C355   C     0.83343   0.54294   0.45358   0.00000  Uiso   1.00
C356   C     0.83324   0.45706   0.04642   0.00000  Uiso   1.00
C357   C     0.83323   0.41458   0.47681   0.00000  Uiso   1.00
C358   C     0.83344   0.58542   0.02319   0.00000  Uiso   1.00
C359   C     0.83319   0.41457   0.02304   0.00000  Uiso   1.00
C360   C     0.83348   0.58543   0.47696   0.00000  Uiso   1.00
H361   H     0.83351   0.57566   0.38960   0.00000  Uiso   1.00
H362   H     0.83315   0.42434   0.11040   0.00000  Uiso   1.00
H363   H     0.83329   0.42438   0.38947   0.00000  Uiso   1.00
H364   H     0.83338   0.57562   0.11053   0.00000  Uiso   1.00
H365   H     0.83319   0.38140   0.45930   0.00000  Uiso   1.00
H366   H     0.83348   0.61860   0.04070   0.00000  Uiso   1.00
H367   H     0.83313   0.38139   0.04049   0.00000  Uiso   1.00
H368   H     0.83354   0.61861   0.45951   0.00000  Uiso   1.00
C369   C     0.68838   0.47022   0.27915   0.00000  Uiso   1.00
C370   C     0.97829   0.52978   0.22085   0.00000  Uiso   1.00
C371   C     0.97868   0.47054   0.27980   0.00000  Uiso   1.00
C372   C     0.68799   0.52946   0.22020   0.00000  Uiso   1.00
C373   C     0.95718   0.50025   0.25047   0.00000  Uiso   1.00
C374   C     0.70949   0.49975   0.24953   0.00000  Uiso   1.00
C375   C     0.80892   0.35808   0.22111   0.00000  Uiso   1.00
C376   C     0.85775   0.64192   0.27889   0.00000  Uiso   1.00
C377   C     0.85772   0.35821   0.27892   0.00000  Uiso   1.00
C378   C     0.80894   0.64179   0.22108   0.00000  Uiso   1.00
H379   H     0.78935   0.37675   0.19798   0.00000  Uiso   1.00
H380   H     0.87732   0.62325   0.30202   0.00000  Uiso   1.00
H381   H     0.87720   0.37699   0.30211   0.00000  Uiso   1.00
H382   H     0.78947   0.62301   0.19789   0.00000  Uiso   1.00
N383   N     0.83333   0.61736   0.25000   0.00000  Uiso   1.00
N384   N     0.83333   0.38264   0.25000   0.00000  Uiso   1.00
N385   N     0.71066   0.44259   0.31091   0.00000  Uiso   1.00
O386   O     0.73100   0.46306   0.34278   0.00000  Uiso   1.00
O387   O     0.71500   0.39775   0.30465   0.00000  Uiso   1.00
N388   N     0.95601   0.55742   0.18909   0.00000  Uiso   1.00
O389   O     0.93568   0.53694   0.15720   0.00000  Uiso   1.00
O390   O     0.95164   0.60224   0.19538   0.00000  Uiso   1.00
N391   N     0.95700   0.44313   0.31220   0.00000  Uiso   1.00
O392   O     0.96277   0.39810   0.31473   0.00000  Uiso   1.00
O393   O     0.93158   0.46323   0.33950   0.00000  Uiso   1.00
N394   N     0.70966   0.55686   0.18779   0.00000  Uiso   1.00
O395   O     0.70387   0.60189   0.18523   0.00000  Uiso   1.00
O396   O     0.73511   0.53677   0.16052   0.00000  Uiso   1.00
O397   O     0.10655   0.87291   0.25000   0.00000  Uiso   1.00
O398   O     0.22679   0.79375   0.25001   0.00000  Uiso   1.00
O399   O     0.22679   0.87291   0.25001   0.00000  Uiso   1.00
O400   O     0.10655   0.79375   0.25000   0.00000  Uiso   1.00
C401   C     0.08745   0.83328   0.24979   0.00000  Uiso   1.00
C402   C     0.24588   0.83338   0.25021   0.00000  Uiso   1.00
O403   O     0.16666   0.87293   0.18513   0.00000  Uiso   1.00
O404   O     0.16668   0.79373   0.31487   0.00000  Uiso   1.00
O405   O     0.16668   0.87293   0.31487   0.00000  Uiso   1.00
O406   O     0.16666   0.79373   0.18513   0.00000  Uiso   1.00
C407   C     0.16666   0.83332   0.16427   0.00000  Uiso   1.00
C408   C     0.16667   0.83335   0.33574   0.00000  Uiso   1.00
Cu409  Cu    0.16667   0.88022   0.25000   0.00000  Uiso   1.00
Cu410  Cu    0.16667   0.78645   0.25000   0.00000  Uiso   1.00
C411   C     0.16678   0.87598   0.40739   0.00000  Uiso   1.00
C412   C     0.16655   0.79068   0.09261   0.00000  Uiso   1.00
C413   C     0.16671   0.83335   0.38417   0.00000  Uiso   1.00
C414   C     0.16663   0.83331   0.11583   0.00000  Uiso   1.00
C415   C     0.16666   0.79071   0.40732   0.00000  Uiso   1.00
C416   C     0.16668   0.87595   0.09268   0.00000  Uiso   1.00
C417   C     0.16664   0.79040   0.45351   0.00000  Uiso   1.00
C418   C     0.16670   0.87626   0.04649   0.00000  Uiso   1.00
C419   C     0.16668   0.83334   0.47676   0.00000  Uiso   1.00
C420   C     0.16665   0.83333   0.02324   0.00000  Uiso   1.00
C421   C     0.16676   0.87628   0.45358   0.00000  Uiso   1.00
C422   C     0.16657   0.79039   0.04642   0.00000  Uiso   1.00
C423   C     0.16656   0.74791   0.47681   0.00000  Uiso   1.00
C424   C     0.16677   0.91875   0.02319   0.00000  Uiso   1.00
C425   C     0.16653   0.74791   0.02304   0.00000  Uiso   1.00
C426   C     0.16681   0.91876   0.47696   0.00000  Uiso   1.00
H427   H     0.16685   0.90899   0.38960   0.00000  Uiso   1.00
H428   H     0.16649   0.75768   0.11040   0.00000  Uiso   1.00
H429   H     0.16662   0.75771   0.38947   0.00000  Uiso   1.00
H430   H     0.16671   0.90895   0.11053   0.00000  Uiso   1.00
H431   H     0.16653   0.71474   0.45930   0.00000  Uiso   1.00
H432   H     0.16681   0.95193   0.04070   0.00000  Uiso   1.00
H433   H     0.16647   0.71472   0.04049   0.00000  Uiso   1.00
H434   H     0.16687   0.95194   0.45951   0.00000  Uiso   1.00
C435   C     0.02171   0.80355   0.27915   0.00000  Uiso   1.00
C436   C     0.31162   0.86312   0.22085   0.00000  Uiso   1.00
C437   C     0.31201   0.80387   0.27980   0.00000  Uiso   1.00
C438   C     0.02132   0.86279   0.22020   0.00000  Uiso   1.00
C439   C     0.29051   0.83358   0.25047   0.00000  Uiso   1.00
C440   C     0.04282   0.83309   0.24953   0.00000  Uiso   1.00
C441   C     0.14225   0.69142   0.22111   0.00000  Uiso   1.00
C442   C     0.19108   0.97525   0.27889   0.00000  Uiso   1.00
C443   C     0.19106   0.69155   0.27892   0.00000  Uiso   1.00
C444   C     0.14228   0.97512   0.22108   0.00000  Uiso   1.00
H445   H     0.12268   0.71008   0.19798   0.00000  Uiso   1.00
H446   H     0.21065   0.95658   0.30202   0.00000  Uiso   1.00
H447   H     0.21053   0.71032   0.30211   0.00000  Uiso   1.00
H448   H     0.12280   0.95635   0.19789   0.00000  Uiso   1.00
N449   N     0.16667   0.95069   0.25000   0.00000  Uiso   1.00
N450   N     0.16667   0.71598   0.25000   0.00000  Uiso   1.00
N451   N     0.04399   0.77592   0.31091   0.00000  Uiso   1.00
O452   O     0.06434   0.79639   0.34278   0.00000  Uiso   1.00
O453   O     0.04833   0.73109   0.30465   0.00000  Uiso   1.00
N454   N     0.28934   0.89075   0.18909   0.00000  Uiso   1.00
O455   O     0.26902   0.87028   0.15720   0.00000  Uiso   1.00
O456   O     0.28497   0.93557   0.19538   0.00000  Uiso   1.00
N457   N     0.29034   0.77647   0.31220   0.00000  Uiso   1.00
O458   O     0.29610   0.73144   0.31473   0.00000  Uiso   1.00
O459   O     0.26492   0.79656   0.33950   0.00000  Uiso   1.00
N460   N     0.04300   0.89020   0.18779   0.00000  Uiso   1.00
O461   O     0.03720   0.93522   0.18523   0.00000  Uiso   1.00
O462   O     0.06844   0.87010   0.16052   0.00000  Uiso   1.00
O463   O     0.43988   0.87291   0.25000   0.00000  Uiso   1.00
O464   O     0.56012   0.79375   0.25001   0.00000  Uiso   1.00
O465   O     0.56012   0.87291   0.25001   0.00000  Uiso   1.00
O466   O     0.43988   0.79375   0.25000   0.00000  Uiso   1.00
C467   C     0.42079   0.83328   0.24979   0.00000  Uiso   1.00
C468   C     0.57921   0.83338   0.25021   0.00000  Uiso   1.00
O469   O     0.49999   0.87293   0.18513   0.00000  Uiso   1.00
O470   O     0.50001   0.79373   0.31487   0.00000  Uiso   1.00
O471   O     0.50001   0.87293   0.31487   0.00000  Uiso   1.00
O472   O     0.49999   0.79373   0.18513   0.00000  Uiso   1.00
C473   C     0.49999   0.83332   0.16427   0.00000  Uiso   1.00
C474   C     0.50001   0.83335   0.33574   0.00000  Uiso   1.00
Cu475  Cu    0.50000   0.88022   0.25000   0.00000  Uiso   1.00
Cu476  Cu    0.50000   0.78645   0.25000   0.00000  Uiso   1.00
C477   C     0.50011   0.87598   0.40739   0.00000  Uiso   1.00
C478   C     0.49989   0.79068   0.09261   0.00000  Uiso   1.00
C479   C     0.50004   0.83335   0.38417   0.00000  Uiso   1.00
C480   C     0.49996   0.83331   0.11583   0.00000  Uiso   1.00
C481   C     0.49999   0.79071   0.40732   0.00000  Uiso   1.00
C482   C     0.50001   0.87595   0.09268   0.00000  Uiso   1.00
C483   C     0.49997   0.79040   0.45351   0.00000  Uiso   1.00
C484   C     0.50003   0.87626   0.04649   0.00000  Uiso   1.00
C485   C     0.50002   0.83334   0.47676   0.00000  Uiso   1.00
C486   C     0.49999   0.83333   0.02324   0.00000  Uiso   1.00
C487   C     0.50010   0.87628   0.45358   0.00000  Uiso   1.00
C488   C     0.49991   0.79039   0.04642   0.00000  Uiso   1.00
C489   C     0.49990   0.74791   0.47681   0.00000  Uiso   1.00
C490   C     0.50011   0.91875   0.02319   0.00000  Uiso   1.00
C491   C     0.49986   0.74791   0.02304   0.00000  Uiso   1.00
C492   C     0.50014   0.91876   0.47696   0.00000  Uiso   1.00
H493   H     0.50018   0.90899   0.38960   0.00000  Uiso   1.00
H494   H     0.49982   0.75768   0.11040   0.00000  Uiso   1.00
H495   H     0.49996   0.75771   0.38947   0.00000  Uiso   1.00
H496   H     0.50005   0.90895   0.11053   0.00000  Uiso   1.00
H497   H     0.49986   0.71474   0.45930   0.00000  Uiso   1.00
H498   H     0.50014   0.95193   0.04070   0.00000  Uiso   1.00
H499   H     0.49980   0.71472   0.04049   0.00000  Uiso   1.00
H500   H     0.50020   0.95194   0.45951   0.00000  Uiso   1.00
C501   C     0.35505   0.80355   0.27915   0.00000  Uiso   1.00
C502   C     0.64495   0.86312   0.22085   0.00000  Uiso   1.00
C503   C     0.64534   0.80387   0.27980   0.00000  Uiso   1.00
C504   C     0.35466   0.86279   0.22020   0.00000  Uiso   1.00
C505   C     0.62385   0.83358   0.25047   0.00000  Uiso   1.00
C506   C     0.37615   0.83309   0.24953   0.00000  Uiso   1.00
C507   C     0.47558   0.69142   0.22111   0.00000  Uiso   1.00
C508   C     0.52442   0.97525   0.27889   0.00000  Uiso   1.00
C509   C     0.52439   0.69155   0.27892   0.00000  Uiso   1.00
C510   C     0.47561   0.97512   0.22108   0.00000  Uiso   1.00
H511   H     0.45601   0.71008   0.19798   0.00000  Uiso   1.00
H512   H     0.54399   0.95658   0.30202   0.00000  Uiso   1.00
H513   H     0.54387   0.71032   0.30211   0.00000  Uiso   1.00
H514   H     0.45613   0.95635   0.19789   0.00000  Uiso   1.00
N515   N     0.50000   0.95069   0.25000   0.00000  Uiso   1.00
N516   N     0.50000   0.71598   0.25000   0.00000  Uiso   1.00
N517   N     0.37732   0.77592   0.31091   0.00000  Uiso   1.00
O518   O     0.39767   0.79639   0.34278   0.00000  Uiso   1.00
O519   O     0.38166   0.73109   0.30465   0.00000  Uiso   1.00
N520   N     0.62268   0.89075   0.18909   0.00000  Uiso   1.00
O521   O     0.60235   0.87028   0.15720   0.00000  Uiso   1.00
O522   O     0.61830   0.93557   0.19538   0.00000  Uiso   1.00
N523   N     0.62367   0.77647   0.31220   0.00000  Uiso   1.00
O524   O     0.62944   0.73144   0.31473   0.00000  Uiso   1.00
O525   O     0.59825   0.79656   0.33950   0.00000  Uiso   1.00
N526   N     0.37633   0.89020   0.18779   0.00000  Uiso   1.00
O527   O     0.37053   0.93522   0.18523   0.00000  Uiso   1.00
O528   O     0.40177   0.87010   0.16052   0.00000  Uiso   1.00
O529   O     0.77321   0.87291   0.25000   0.00000  Uiso   1.00
O530   O     0.89345   0.79375   0.25001   0.00000  Uiso   1.00
O531   O     0.89345   0.87291   0.25001   0.00000  Uiso   1.00
O532   O     0.77321   0.79375   0.25000   0.00000  Uiso   1.00
C533   C     0.75412   0.83328   0.24979   0.00000  Uiso   1.00
C534   C     0.91255   0.83338   0.25021   0.00000  Uiso   1.00
O535   O     0.83332   0.87293   0.18513   0.00000  Uiso   1.00
O536   O     0.83334   0.79373   0.31487   0.00000  Uiso   1.00
O537   O     0.83334   0.87293   0.31487   0.00000  Uiso   1.00
O538   O     0.83332   0.79373   0.18513   0.00000  Uiso   1.00
C539   C     0.83333   0.83332   0.16427   0.00000  Uiso   1.00
C540   C     0.83334   0.83335   0.33574   0.00000  Uiso   1.00
Cu541  Cu    0.83333   0.88022   0.25000   0.00000  Uiso   1.00
Cu542  Cu    0.83333   0.78645   0.25000   0.00000  Uiso   1.00
C543   C     0.83345   0.87598   0.40739   0.00000  Uiso   1.00
C544   C     0.83322   0.79068   0.09261   0.00000  Uiso   1.00
C545   C     0.83337   0.83335   0.38417   0.00000  Uiso   1.00
C546   C     0.83330   0.83331   0.11583   0.00000  Uiso   1.00
C547   C     0.83332   0.79071   0.40732   0.00000  Uiso   1.00
C548   C     0.83335   0.87595   0.09268   0.00000  Uiso   1.00
C549   C     0.83330   0.79040   0.45351   0.00000  Uiso   1.00
C550   C     0.83337   0.87626   0.04649   0.00000  Uiso   1.00
C551   C     0.83335   0.83334   0.47676   0.00000  Uiso   1.00
C552   C     0.83332   0.83333   0.02324   0.00000  Uiso   1.00
C553   C     0.83343   0.87628   0.45358   0.00000  Uiso   1.00
C554   C     0.83324   0.79039   0.04642   0.00000  Uiso   1.00
C555   C     0.83323   0.74791   0.47681   0.00000  Uiso   1.00
C556   C     0.83344   0.91875   0.02319   0.00000  Uiso   1.00
C557   C     0.83319   0.74791   0.02304   0.00000  Uiso   1.00
C558   C     0.83348   0.91876   0.47696   0.00000  Uiso   1.00
H559   H     0.83351   0.90899   0.38960   0.00000  Uiso   1.00
H560   H     0.83315   0.75768   0.11040   0.00000  Uiso   1.00
H561   H     0.83329   0.75771   0.38947   0.00000  Uiso   1.00
H562   H     0.83338   0.90895   0.11053   0.00000  Uiso   1.00
H563   H     0.83319   0.71474   0.45930   0.00000  Uiso   1.00
H564   H     0.83348   0.95193   0.04070   0.00000  Uiso   1.00
H565   H     0.83313   0.71472   0.04049   0.00000  Uiso   1.00
H566   H     0.83354   0.95194   0.45951   0.00000  Uiso   1.00
C567   C     0.68838   0.80355   0.27915   0.00000  Uiso   1.00
C568   C     0.97829   0.86312   0.22085   0.00000  Uiso   1.00
C569   C     0.97868   0.80387   0.27980   0.00000  Uiso   1.00
C570   C     0.68799   0.86279   0.22020   0.00000  Uiso   1.00
C571   C     0.95718   0.83358   0.25047   0.00000  Uiso   1.00
C572   C     0.70949   0.83309   0.24953   0.00000  Uiso   1.00
C573   C     0.80892   0.69142   0.22111   0.00000  Uiso   1.00
C574   C     0.85775   0.97525   0.27889   0.00000  Uiso   1.00
C575   C     0.85772   0.69155   0.27892   0.00000  Uiso   1.00
C576   C     0.80894   0.97512   0.22108   0.00000  Uiso   1.00
H577   H     0.78935   0.71008   0.19798   0.00000  Uiso   1.00
H578   H     0.87732   0.95658   0.30202   0.00000  Uiso   1.00
H579   H     0.87720   0.71032   0.30211   0.00000  Uiso   1.00
H580   H     0.78947   0.95635   0.19789   0.00000  Uiso   1.00
N581   N     0.83333   0.95069   0.25000   0.00000  Uiso   1.00
N582   N     0.83333   0.71598   0.25000   0.00000  Uiso   1.00
N583   N     0.71066   0.77592   0.31091   0.00000  Uiso   1.00
O584   O     0.73100   0.79639   0.34278   0.00000  Uiso   1.00
O585   O     0.71500   0.73109   0.30465   0.00000  Uiso   1.00
N586   N     0.95601   0.89075   0.18909   0.00000  Uiso   1.00
O587   O     0.93568   0.87028   0.15720   0.00000  Uiso   1.00
O588   O     0.95164   0.93557   0.19538   0.00000  Uiso   1.00
N589   N     0.95700   0.77647   0.31220   0.00000  Uiso   1.00
O590   O     0.96277   0.73144   0.31473   0.00000  Uiso   1.00
O591   O     0.93158   0.79656   0.33950   0.00000  Uiso   1.00
N592   N     0.70966   0.89020   0.18779   0.00000  Uiso   1.00
O593   O     0.70387   0.93522   0.18523   0.00000  Uiso   1.00
O594   O     0.73511   0.87010   0.16052   0.00000  Uiso   1.00
O595   O     0.10655   0.20625   0.75000   0.00000  Uiso   1.00
O596   O     0.22679   0.12709   0.75001   0.00000  Uiso   1.00
O597   O     0.22679   0.20625   0.75001   0.00000  Uiso   1.00
O598   O     0.10655   0.12709   0.75000   0.00000  Uiso   1.00
C599   C     0.08745   0.16661   0.74979   0.00000  Uiso   1.00
C600   C     0.24588   0.16672   0.75021   0.00000  Uiso   1.00
O601   O     0.16666   0.20627   0.68513   0.00000  Uiso   1.00
O602   O     0.16668   0.12707   0.81487   0.00000  Uiso   1.00
O603   O     0.16668   0.20627   0.81487   0.00000  Uiso   1.00
O604   O     0.16666   0.12707   0.68513   0.00000  Uiso   1.00
C605   C     0.16666   0.16665   0.66427   0.00000  Uiso   1.00
C606   C     0.16667   0.16668   0.83574   0.00000  Uiso   1.00
Cu607  Cu    0.16667   0.21355   0.75000   0.00000  Uiso   1.00
Cu608  Cu    0.16667   0.11978   0.75000   0.00000  Uiso   1.00
C609   C     0.16678   0.20932   0.90739   0.00000  Uiso   1.00
C610   C     0.16655   0.12402   0.59261   0.00000  Uiso   1.00
C611   C     0.16671   0.16669   0.88417   0.00000  Uiso   1.00
C612   C     0.16663   0.16665   0.61583   0.00000  Uiso   1.00
C613   C     0.16666   0.12405   0.90732   0.00000  Uiso   1.00
C614   C     0.16668   0.20929   0.59268   0.00000  Uiso   1.00
C615   C     0.16664   0.12374   0.95351   0.00000  Uiso   1.00
C616   C     0.16670   0.20960   0.54649   0.00000  Uiso   1.00
C617   C     0.16668   0.16667   0.97676   0.00000  Uiso   1.00
C618   C     0.16665   0.16666   0.52324   0.00000  Uiso   1.00
C619   C     0.16676   0.20961   0.95358   0.00000  Uiso   1.00
C620   C     0.16657   0.12372   0.54642   0.00000  Uiso   1.00
C621   C     0.16656   0.08125   0.97681   0.00000  Uiso   1.00
C622   C     0.16677   0.25209   0.52319   0.00000  Uiso   1.00
C623   C     0.16653   0.08124   0.52304   0.00000  Uiso   1.00
C624   C     0.16681   0.25209   0.97696   0.00000  Uiso   1.00
H625   H     0.16685   0.24232   0.88960   0.00000  Uiso   1.00
H626   H     0.16649   0.09101   0.61040   0.00000  Uiso   1.00
H627   H     0.16662   0.09105   0.88947   0.00000  Uiso   1.00
H628   H     0.16671   0.24229   0.61053   0.00000  Uiso   1.00
H629   H     0.16653   0.04807   0.95930   0.00000  Uiso   1.00
H630   H     0.16681   0.28526   0.54070   0.00000  Uiso   1.00
H631   H     0.16647   0.04806   0.54049   0.00000  Uiso   1.00
H632   H     0.16687   0.28528   0.95951   0.00000  Uiso   1.00
C633   C     0.02171   0.13688   0.77915   0.00000  Uiso   1.00
C634   C     0.31162   0.19645   0.72085   0.00000  Uiso   1.00
C635   C     0.31201   0.13721   0.77980   0.00000  Uiso   1.00
C636   C     0.02132   0.19612   0.72020   0.00000  Uiso   1.00
C637   C     0.29051   0.16691   0.75047   0.00000  Uiso   1.00
C638   C     0.04282   0.16642   0.74953   0.00000  Uiso   1.00
C639   C     0.14225   0.02475   0.72111   0.00000  Uiso   1.00
C640   C     0.19108   0.30858   0.77889   0.00000  Uiso   1.00
C641   C     0.19106   0.02488   0.77892   0.00000  Uiso   1.00
C642   C     0.14228   0.30845   0.72108   0.00000  Uiso   1.00
H643   H     0.12268   0.04341   0.69798   0.00000  Uiso   1.00
H644   H     0.21065   0.28992   0.80202   0.00000  Uiso   1.00
H645   H     0.21053   0.04365   0.80211   0.00000  Uiso   1.00
H646   H     0.12280   0.28968   0.69789   0.00000  Uiso   1.00
N647   N     0.16667   0.28402   0.75000   0.00000  Uiso   1.00
N648   N     0.16667   0.04931   0.75000   0.00000  Uiso   1.00
N649   N     0.04399   0.10925   0.81091   0.00000  Uiso   1.00
O650   O     0.06434   0.12972   0.84278   0.00000  Uiso   1.00
O651   O     0.04833   0.06442   0.80465   0.00000  Uiso   1.00
N652   N     0.28934   0.22408   0.68909   0.00000  Uiso   1.00
O653   O     0.26902   0.20361   0.65720   0.00000  Uiso   1.00
O654   O     0.28497   0.26891   0.69538   0.00000  Uiso   1.00
N655   N     0.29034   0.10980   0.81220   0.00000  Uiso   1.00
O656   O     0.29610   0.06477   0.81473   0.00000  Uiso   1.00
O657   O     0.26492   0.12990   0.83950   0.00000  Uiso   1.00
N658   N     0.04300   0.22353   0.68779   0.00000  Uiso   1.00
O659   O     0.03720   0.26855   0.68523   0.00000  Uiso   1.00
O660   O     0.06844   0.20344   0.66052   0.00000  Uiso   1.00
O661   O     0.43988   0.20625   0.75000   0.00000  Uiso   1.00
O662   O     0.56012   0.12709   0.75001   0.00000  Uiso   1.00
O663   O     0.56012   0.20625   0.75001   0.00000  Uiso   1.00
O664   O     0.43988   0.12709   0.75000   0.00000  Uiso   1.00
C665   C     0.42079   0.16661   0.74979   0.00000  Uiso   1.00
C666   C     0.57921   0.16672   0.75021   0.00000  Uiso   1.00
O667   O     0.49999   0.20627   0.68513   0.00000  Uiso   1.00
O668   O     0.50001   0.12707   0.81487   0.00000  Uiso   1.00
O669   O     0.50001   0.20627   0.81487   0.00000  Uiso   1.00
O670   O     0.49999   0.12707   0.68513   0.00000  Uiso   1.00
C671   C     0.49999   0.16665   0.66427   0.00000  Uiso   1.00
C672   C     0.50001   0.16668   0.83574   0.00000  Uiso   1.00
Cu673  Cu    0.50000   0.21355   0.75000   0.00000  Uiso   1.00
Cu674  Cu    0.50000   0.11978   0.75000   0.00000  Uiso   1.00
C675   C     0.50011   0.20932   0.90739   0.00000  Uiso   1.00
C676   C     0.49989   0.12402   0.59261   0.00000  Uiso   1.00
C677   C     0.50004   0.16669   0.88417   0.00000  Uiso   1.00
C678   C     0.49996   0.16665   0.61583   0.00000  Uiso   1.00
C679   C     0.49999   0.12405   0.90732   0.00000  Uiso   1.00
C680   C     0.50001   0.20929   0.59268   0.00000  Uiso   1.00
C681   C     0.49997   0.12374   0.95351   0.00000  Uiso   1.00
C682   C     0.50003   0.20960   0.54649   0.00000  Uiso   1.00
C683   C     0.50002   0.16667   0.97676   0.00000  Uiso   1.00
C684   C     0.49999   0.16666   0.52324   0.00000  Uiso   1.00
C685   C     0.50010   0.20961   0.95358   0.00000  Uiso   1.00
C686   C     0.49991   0.12372   0.54642   0.00000  Uiso   1.00
C687   C     0.49990   0.08125   0.97681   0.00000  Uiso   1.00
C688   C     0.50011   0.25209   0.52319   0.00000  Uiso   1.00
C689   C     0.49986   0.08124   0.52304   0.00000  Uiso   1.00
C690   C     0.50014   0.25209   0.97696   0.00000  Uiso   1.00
H691   H     0.50018   0.24232   0.88960   0.00000  Uiso   1.00
H692   H     0.49982   0.09101   0.61040   0.00000  Uiso   1.00
H693   H     0.49996   0.09105   0.88947   0.00000  Uiso   1.00
H694   H     0.50005   0.24229   0.61053   0.00000  Uiso   1.00
H695   H     0.49986   0.04807   0.95930   0.00000  Uiso   1.00
H696   H     0.50014   0.28526   0.54070   0.00000  Uiso   1.00
H697   H     0.49980   0.04806   0.54049   0.00000  Uiso   1.00
H698   H     0.50020   0.28528   0.95951   0.00000  Uiso   1.00
C699   C     0.35505   0.13688   0.77915   0.00000  Uiso   1.00
C700   C     0.64495   0.19645   0.72085   0.00000  Uiso   1.00
C701   C     0.64534   0.13721   0.77980   0.00000  Uiso   1.00
C702   C     0.35466   0.19612   0.72020   0.00000  Uiso   1.00
C703   C     0.62385   0.16691   0.75047   0.00000  Uiso   1.00
C704   C     0.37615   0.16642   0.74953   0.00000  Uiso   1.00
C705   C     0.47558   0.02475   0.72111   0.00000  Uiso   1.00
C706   C     0.52442   0.30858   0.77889   0.00000  Uiso   1.00
C707   C     0.52439   0.02488   0.77892   0.00000  Uiso   1.00
C708   C     0.47561   0.30845   0.72108   0.00000  Uiso   1.00
H709   H     0.45601   0.04341   0.69798   0.00000  Uiso   1.00
H710   H     0.54399   0.28992   0.80202   0.00000  Uiso   1.00
H711   H     0.54387   0.04365   0.80211   0.00000  Uiso   1.00
H712   H     0.45613   0.28968   0.69789   0.00000  Uiso   1.00
N713   N     0.50000   0.28402   0.75000   0.00000  Uiso   1.00
N714   N     0.50000   0.04931   0.75000   0.00000  Uiso   1.00
N715   N     0.37732   0.10925   0.81091   0.00000  Uiso   1.00
O716   O     0.39767   0.12972   0.84278   0.00000  Uiso   1.00
O717   O     0.38166   0.06442   0.80465   0.00000  Uiso   1.00
N718   N     0.62268   0.22408   0.68909   0.00000  Uiso   1.00
O719   O     0.60235   0.20361   0.65720   0.00000  Uiso   1.00
O720   O     0.61830   0.26891   0.69538   0.00000  Uiso   1.00
N721   N     0.62367   0.10980   0.81220   0.00000  Uiso   1.00
O722   O     0.62944   0.06477   0.81473   0.00000  Uiso   1.00
O723   O     0.59825   0.12990   0.83950   0.00000  Uiso   1.00
N724   N     0.37633   0.22353   0.68779   0.00000  Uiso   1.00
O725   O     0.37053   0.26855   0.68523   0.00000  Uiso   1.00
O726   O     0.40177   0.20344   0.66052   0.00000  Uiso   1.00
O727   O     0.77321   0.20625   0.75000   0.00000  Uiso   1.00
O728   O     0.89345   0.12709   0.75001   0.00000  Uiso   1.00
O729   O     0.89345   0.20625   0.75001   0.00000  Uiso   1.00
O730   O     0.77321   0.12709   0.75000   0.00000  Uiso   1.00
C731   C     0.75412   0.16661   0.74979   0.00000  Uiso   1.00
C732   C     0.91255   0.16672   0.75021   0.00000  Uiso   1.00
O733   O     0.83332   0.20627   0.68513   0.00000  Uiso   1.00
O734   O     0.83334   0.12707   0.81487   0.00000  Uiso   1.00
O735   O     0.83334   0.20627   0.81487   0.00000  Uiso   1.00
O736   O     0.83332   0.12707   0.68513   0.00000  Uiso   1.00
C737   C     0.83333   0.16665   0.66427   0.00000  Uiso   1.00
C738   C     0.83334   0.16668   0.83574   0.00000  Uiso   1.00
Cu739  Cu    0.83333   0.21355   0.75000   0.00000  Uiso   1.00
Cu740  Cu    0.83333   0.11978   0.75000   0.00000  Uiso   1.00
C741   C     0.83345   0.20932   0.90739   0.00000  Uiso   1.00
C742   C     0.83322   0.12402   0.59261   0.00000  Uiso   1.00
C743   C     0.83337   0.16669   0.88417   0.00000  Uiso   1.00
C744   C     0.83330   0.16665   0.61583   0.00000  Uiso   1.00
C745   C     0.83332   0.12405   0.90732   0.00000  Uiso   1.00
C746   C     0.83335   0.20929   0.59268   0.00000  Uiso   1.00
C747   C     0.83330   0.12374   0.95351   0.00000  Uiso   1.00
C748   C     0.83337   0.20960   0.54649   0.00000  Uiso   1.00
C749   C     0.83335   0.16667   0.97676   0.00000  Uiso   1.00
C750   C     0.83332   0.16666   0.52324   0.00000  Uiso   1.00
C751   C     0.83343   0.20961   0.95358   0.00000  Uiso   1.00
C752   C     0.83324   0.12372   0.54642   0.00000  Uiso   1.00
C753   C     0.83323   0.08125   0.97681   0.00000  Uiso   1.00
C754   C     0.83344   0.25209   0.52319   0.00000  Uiso   1.00
C755   C     0.83319   0.08124   0.52304   0.00000  Uiso   1.00
C756   C     0.83348   0.25209   0.97696   0.00000  Uiso   1.00
H757   H     0.83351   0.24232   0.88960   0.00000  Uiso   1.00
H758   H     0.83315   0.09101   0.61040   0.00000  Uiso   1.00
H759   H     0.83329   0.09105   0.88947   0.00000  Uiso   1.00
H760   H     0.83338   0.24229   0.61053   0.00000  Uiso   1.00
H761   H     0.83319   0.04807   0.95930   0.00000  Uiso   1.00
H762   H     0.83348   0.28526   0.54070   0.00000  Uiso   1.00
H763   H     0.83313   0.04806   0.54049   0.00000  Uiso   1.00
H764   H     0.83354   0.28528   0.95951   0.00000  Uiso   1.00
C765   C     0.68838   0.13688   0.77915   0.00000  Uiso   1.00
C766   C     0.97829   0.19645   0.72085   0.00000  Uiso   1.00
C767   C     0.97868   0.13721   0.77980   0.00000  Uiso   1.00
C768   C     0.68799   0.19612   0.72020   0.00000  Uiso   1.00
C769   C     0.95718   0.16691   0.75047   0.00000  Uiso   1.00
C770   C     0.70949   0.16642   0.74953   0.00000  Uiso   1.00
C771   C     0.80892   0.02475   0.72111   0.00000  Uiso   1.00
C772   C     0.85775   0.30858   0.77889   0.00000  Uiso   1.00
C773   C     0.85772   0.02488   0.77892   0.00000  Uiso   1.00
C774   C     0.80894   0.30845   0.72108   0.00000  Uiso   1.00
H775   H     0.78935   0.04341   0.69798   0.00000  Uiso   1.00
H776   H     0.87732   0.28992   0.80202   0.00000  Uiso   1.00
H777   H     0.87720   0.04365   0.80211   0.00000  Uiso   1.00
H778   H     0.78947   0.28968   0.69789   0.00000  Uiso   1.00
N779   N     0.83333   0.28402   0.75000   0.00000  Uiso   1.00
N780   N     0.83333   0.04931   0.75000   0.00000  Uiso   1.00
N781   N     0.71066   0.10925   0.81091   0.00000  Uiso   1.00
O782   O     0.73100   0.12972   0.84278   0.00000  Uiso   1.00
O783   O     0.71500   0.06442   0.80465   0.00000  Uiso   1.00
N784   N     0.95601   0.22408   0.68909   0.00000  Uiso   1.00
O785   O     0.93568   0.20361   0.65720   0.00000  Uiso   1.00
O786   O     0.95164   0.26891   0.69538   0.00000  Uiso   1.00
N787   N     0.95700   0.10980   0.81220   0.00000  Uiso   1.00
O788   O     0.96277   0.06477   0.81473   0.00000  Uiso   1.00
O789   O     0.93158   0.12990   0.83950   0.00000  Uiso   1.00
N790   N     0.70966   0.22353   0.68779   0.00000  Uiso   1.00
O791   O     0.70387   0.26855   0.68523   0.00000  Uiso   1.00
O792   O     0.73511   0.20344   0.66052   0.00000  Uiso   1.00
O793   O     0.10655   0.53958   0.75000   0.00000  Uiso   1.00
O794   O     0.22679   0.46042   0.75001   0.00000  Uiso   1.00
O795   O     0.22679   0.53958   0.75001   0.00000  Uiso   1.00
O796   O     0.10655   0.46042   0.75000   0.00000  Uiso   1.00
C797   C     0.08745   0.49995   0.74979   0.00000  Uiso   1.00
C798   C     0.24588   0.50005   0.75021   0.00000  Uiso   1.00
O799   O     0.16666   0.53960   0.68513   0.00000  Uiso   1.00
O800   O     0.16668   0.46040   0.81487   0.00000  Uiso   1.00
O801   O     0.16668   0.53960   0.81487   0.00000  Uiso   1.00
O802   O     0.16666   0.46040   0.68513   0.00000  Uiso   1.00
C803   C     0.16666   0.49999   0.66427   0.00000  Uiso   1.00
C804   C     0.16667   0.50001   0.83574   0.00000  Uiso   1.00
Cu805  Cu    0.16667   0.54689   0.75000   0.00000  Uiso   1.00
Cu806  Cu    0.16667   0.45311   0.75000   0.00000  Uiso   1.00
C807   C     0.16678   0.54265   0.90739   0.00000  Uiso   1.00
C808   C     0.16655   0.45735   0.59261   0.00000  Uiso   1.00
C809   C     0.16671   0.50002   0.88417   0.00000  Uiso   1.00
C810   C     0.16663   0.49998   0.61583   0.00000  Uiso   1.00
C811   C     0.16666   0.45738   0.90732   0.00000  Uiso   1.00
C812   C     0.16668   0.54262   0.59268   0.00000  Uiso   1.00
C813   C     0.16664   0.45707   0.95351   0.00000  Uiso   1.00
C814   C     0.16670   0.54293   0.54649   0.00000  Uiso   1.00
C815   C     0.16668   0.50000   0.97676   0.00000  Uiso   1.00
C816   C     0.16665   0.50000   0.52324   0.00000  Uiso   1.00
C817   C     0.16676   0.54294   0.95358   0.00000  Uiso   1.00
C818   C     0.16657   0.45706   0.54642   0.00000  Uiso   1.00
C819   C     0.16656   0.41458   0.97681   0.00000  Uiso   1.00
C820   C     0.16677   0.58542   0.52319   0.00000  Uiso   1.00
C821   C     0.16653   0.41457   0.52304   0.00000  Uiso   1.00
C822   C     0.16681   0.58543   0.97696   0.00000  Uiso   1.00
H823   H     0.16685   0.57566   0.88960   0.00000  Uiso   1.00
H824   H     0.16649   0.42434   0.61040   0.00000  Uiso   1.00
H825   H     0.16662   0.42438   0.88947   0.00000  Uiso   1.00
H826   H     0.16671   0.57562   0.61053   0.00000  Uiso   1.00
H827   H     0.16653   0.38140   0.95930   0.00000  Uiso   1.00
H828   H     0.16681   0.61860   0.54070   0.00000  Uiso   1.00
H829   H     0.16647   0.38139   0.54049   0.00000  Uiso   1.00
H830   H     0.16687   0.61861   0.95951   0.00000  Uiso   1.00
C831   C     0.02171   0.47022   0.77915   0.00000  Uiso   1.00
C832   C     0.31162   0.52978   0.72085   0.00000  Uiso   1.00
C833   C     0.31201   0.47054   0.77980   0.00000  Uiso   1.00
C834   C     0.02132   0.52946   0.72020   0.00000  Uiso   1.00
C835   C     0.29051   0.50025   0.75047   0.00000  Uiso   1.00
C836   C     0.04282   0.49975   0.74953   0.00000  Uiso   1.00
C837   C     0.14225   0.35808   0.72111   0.00000  Uiso   1.00
C838   C     0.19108   0.64192   0.77889   0.00000  Uiso   1.00
C839   C     0.19106   0.35821   0.77892   0.00000  Uiso   1.00
C840   C     0.14228   0.64179   0.72108   0.00000  Uiso   1.00
H841   H     0.12268   0.37675   0.69798   0.00000  Uiso   1.00
H842   H     0.21065   0.62325   0.80202   0.00000  Uiso   1.00
H843   H     0.21053   0.37699   0.80211   0.00000  Uiso   1.00
H844   H     0.12280   0.62301   0.69789   0.00000  Uiso   1.00
N845   N     0.16667   0.61736   0.75000   0.00000  Uiso   1.00
N846   N     0.16667   0.38264   0.75000   0.00000  Uiso   1.00
N847   N     0.04399   0.44259   0.81091   0.00000  Uiso   1.00
O848   O     0.06434   0.46306   0.84278   0.00000  Uiso   1.00
O849   O     0.04833   0.39775   0.80465   0.00000  Uiso   1.00
N850   N     0.28934   0.55742   0.68909   0.00000  Uiso   1.00
O851   O     0.26902   0.53694   0.65720   0.00000  Uiso   1.00
O852   O     0.28497   0.60224   0.69538   0.00000  Uiso   1.00
N853   N     0.29034   0.44313   0.81220   0.00000  Uiso   1.00
O854   O     0.29610   0.39810   0.81473   0.00000  Uiso   1.00
O855   O     0.26492   0.46323   0.83950   0.00000  Uiso   1.00
N856   N     0.04300   0.55686   0.68779   0.00000  Uiso   1.00
O857   O     0.03720   0.60189   0.68523   0.00000  Uiso   1.00
O858   O     0.06844   0.53677   0.66052   0.00000  Uiso   1.00
O859   O     0.43988   0.53958   0.75000   0.00000  Uiso   1.00
O860   O     0.56012   0.46042   0.75001   0.00000  Uiso   1.00
O861   O     0.56012   0.53958   0.75001   0.00000  Uiso   1.00
O862   O     0.43988   0.46042   0.75000   0.00000  Uiso   1.00
C863   C     0.42079   0.49995   0.74979   0.00000  Uiso   1.00
C864   C     0.57921   0.50005   0.75021   0.00000  Uiso   1.00
O865   O     0.49999   0.53960   0.68513   0.00000  Uiso   1.00
O866   O     0.50001   0.46040   0.81487   0.00000  Uiso   1.00
O867   O     0.50001   0.53960   0.81487   0.00000  Uiso   1.00
O868   O     0.49999   0.46040   0.68513   0.00000  Uiso   1.00
C869   C     0.49999   0.49999   0.66427   0.00000  Uiso   1.00
C870   C     0.50001   0.50001   0.83574   0.00000  Uiso   1.00
Cu871  Cu    0.50000   0.54689   0.75000   0.00000  Uiso   1.00
Cu872  Cu    0.50000   0.45311   0.75000   0.00000  Uiso   1.00
C873   C     0.50011   0.54265   0.90739   0.00000  Uiso   1.00
C874   C     0.49989   0.45735   0.59261   0.00000  Uiso   1.00
C875   C     0.50004   0.50002   0.88417   0.00000  Uiso   1.00
C876   C     0.49996   0.49998   0.61583   0.00000  Uiso   1.00
C877   C     0.49999   0.45738   0.90732   0.00000  Uiso   1.00
C878   C     0.50001   0.54262   0.59268   0.00000  Uiso   1.00
C879   C     0.49997   0.45707   0.95351   0.00000  Uiso   1.00
C880   C     0.50003   0.54293   0.54649   0.00000  Uiso   1.00
C881   C     0.50002   0.50000   0.97676   0.00000  Uiso   1.00
C882   C     0.49999   0.50000   0.52324   0.00000  Uiso   1.00
C883   C     0.50010   0.54294   0.95358   0.00000  Uiso   1.00
C884   C     0.49991   0.45706   0.54642   0.00000  Uiso   1.00
C885   C     0.49990   0.41458   0.97681   0.00000  Uiso   1.00
C886   C     0.50011   0.58542   0.52319   0.00000  Uiso   1.00
C887   C     0.49986   0.41457   0.52304   0.00000  Uiso   1.00
C888   C     0.50014   0.58543   0.97696   0.00000  Uiso   1.00
H889   H     0.50018   0.57566   0.88960   0.00000  Uiso   1.00
H890   H     0.49982   0.42434   0.61040   0.00000  Uiso   1.00
H891   H     0.49996   0.42438   0.88947   0.00000  Uiso   1.00
H892   H     0.50005   0.57562   0.61053   0.00000  Uiso   1.00
H893   H     0.49986   0.38140   0.95930   0.00000  Uiso   1.00
H894   H     0.50014   0.61860   0.54070   0.00000  Uiso   1.00
H895   H     0.49980   0.38139   0.54049   0.00000  Uiso   1.00
H896   H     0.50020   0.61861   0.95951   0.00000  Uiso   1.00
C897   C     0.35505   0.47022   0.77915   0.00000  Uiso   1.00
C898   C     0.64495   0.52978   0.72085   0.00000  Uiso   1.00
C899   C     0.64534   0.47054   0.77980   0.00000  Uiso   1.00
C900   C     0.35466   0.52946   0.72020   0.00000  Uiso   1.00
C901   C     0.62385   0.50025   0.75047   0.00000  Uiso   1.00
C902   C     0.37615   0.49975   0.74953   0.00000  Uiso   1.00
C903   C     0.47558   0.35808   0.72111   0.00000  Uiso   1.00
C904   C     0.52442   0.64192   0.77889   0.00000  Uiso   1.00
C905   C     0.52439   0.35821   0.77892   0.00000  Uiso   1.00
C906   C     0.47561   0.64179   0.72108   0.00000  Uiso   1.00
H907   H     0.45601   0.37675   0.69798   0.00000  Uiso   1.00
H908   H     0.54399   0.62325   0.80202   0.00000  Uiso   1.00
H909   H     0.54387   0.37699   0.80211   0.00000  Uiso   1.00
H910   H     0.45613   0.62301   0.69789   0.00000  Uiso   1.00
N911   N     0.50000   0.61736   0.75000   0.00000  Uiso   1.00
N912   N     0.50000   0.38264   0.75000   0.00000  Uiso   1.00
N913   N     0.37732   0.44259   0.81091   0.00000  Uiso   1.00
O914   O     0.39767   0.46306   0.84278   0.00000  Uiso   1.00
O915   O     0.38166   0.39775   0.80465   0.00000  Uiso   1.00
N916   N     0.62268   0.55742   0.68909   0.00000  Uiso   1.00
O917   O     0.60235   0.53694   0.65720   0.00000  Uiso   1.00
O918   O     0.61830   0.60224   0.69538   0.00000  Uiso   1.00
N919   N     0.62367   0.44313   0.81220   0.00000  Uiso   1.00
O920   O     0.62944   0.39810   0.81473   0.00000  Uiso   1.00
O921   O     0.59825   0.46323   0.83950   0.00000  Uiso   1.00
N922   N     0.37633   0.55686   0.68779   0.00000  Uiso   1.00
O923   O     0.37053   0.60189   0.68523   0.00000  Uiso   1.00
O924   O     0.40177   0.53677   0.66052   0.00000  Uiso   1.00
O925   O     0.77321   0.53958   0.75000   0.00000  Uiso   1.00
O926   O     0.89345   0.46042   0.75001   0.00000  Uiso   1.00
O927   O     0.89345   0.53958   0.75001   0.00000  Uiso   1.00
O928   O     0.77321   0.46042   0.75000   0.00000  Uiso   1.00
C929   C     0.75412   0.49995   0.74979   0.00000  Uiso   1.00
C930   C     0.91255   0.50005   0.75021   0.00000  Uiso   1.00
O931   O     0.83332   0.53960   0.68513   0.00000  Uiso   1.00
O932   O     0.83334   0.46040   0.81487   0.00000  Uiso   1.00
O933   O     0.83334   0.53960   0.81487   0.00000  Uiso   1.00
O934   O     0.83332   0.46040   0.68513   0.00000  Uiso   1.00
C935   C     0.83333   0.49999   0.66427   0.00000  Uiso   1.00
C936   C     0.83334   0.50001   0.83574   0.00000  Uiso   1.00
Cu937  Cu    0.83333   0.54689   0.75000   0.00000  Uiso   1.00
Cu938  Cu    0.83333   0.45311   0.75000   0.00000  Uiso   1.00
C939   C     0.83345   0.54265   0.90739   0.00000  Uiso   1.00
C940   C     0.83322   0.45735   0.59261   0.00000  Uiso   1.00
C941   C     0.83337   0.50002   0.88417   0.00000  Uiso   1.00
C942   C     0.83330   0.49998   0.61583   0.00000  Uiso   1.00
C943   C     0.83332   0.45738   0.90732   0.00000  Uiso   1.00
C944   C     0.83335   0.54262   0.59268   0.00000  Uiso   1.00
C945   C     0.83330   0.45707   0.95351   0.00000  Uiso   1.00
C946   C     0.83337   0.54293   0.54649   0.00000  Uiso   1.00
C947   C     0.83335   0.50000   0.97676   0.00000  Uiso   1.00
C948   C     0.83332   0.50000   0.52324   0.00000  Uiso   1.00
C949   C     0.83343   0.54294   0.95358   0.00000  Uiso   1.00
C950   C     0.83324   0.45706   0.54642   0.00000  Uiso   1.00
C951   C     0.83323   0.41458   0.97681   0.00000  Uiso   1.00
C952   C     0.83344   0.58542   0.52319   0.00000  Uiso   1.00
C953   C     0.83319   0.41457   0.52304   0.00000  Uiso   1.00
C954   C     0.83348   0.58543   0.97696   0.00000  Uiso   1.00
H955   H     0.83351   0.57566   0.88960   0.00000  Uiso   1.00
H956   H     0.83315   0.42434   0.61040   0.00000  Uiso   1.00
H957   H     0.83329   0.42438   0.88947   0.00000  Uiso   1.00
H958   H     0.83338   0.57562   0.61053   0.00000  Uiso   1.00
H959   H     0.83319   0.38140   0.95930   0.00000  Uiso   1.00
H960   H     0.83348   0.61860   0.54070   0.00000  Uiso   1.00
H961   H     0.83313   0.38139   0.54049   0.00000  Uiso   1.00
H962   H     0.83354   0.61861   0.95951   0.00000  Uiso   1.00
C963   C     0.68838   0.47022   0.77915   0.00000  Uiso   1.00
C964   C     0.97829   0.52978   0.72085   0.00000  Uiso   1.00
C965   C     0.97868   0.47054   0.77980   0.00000  Uiso   1.00
C966   C     0.68799   0.52946   0.72020   0.00000  Uiso   1.00
C967   C     0.95718   0.50025   0.75047   0.00000  Uiso   1.00
C968   C     0.70949   0.49975   0.74953   0.00000  Uiso   1.00
C969   C     0.80892   0.35808   0.72111   0.00000  Uiso   1.00
C970   C     0.85775   0.64192   0.77889   0.00000  Uiso   1.00
C971   C     0.85772   0.35821   0.77892   0.00000  Uiso   1.00
C972   C     0.80894   0.64179   0.72108   0.00000  Uiso   1.00
H973   H     0.78935   0.37675   0.69798   0.00000  Uiso   1.00
H974   H     0.87732   0.62325   0.80202   0.00000  Uiso   1.00
H975   H     0.87720   0.37699   0.80211   0.00000  Uiso   1.00
H976   H     0.78947   0.62301   0.69789   0.00000  Uiso   1.00
N977   N     0.83333   0.61736   0.75000   0.00000  Uiso   1.00
N978   N     0.83333   0.38264   0.75000   0.00000  Uiso   1.00
N979   N     0.71066   0.44259   0.81091   0.00000  Uiso   1.00
O980   O     0.73100   0.46306   0.84278   0.00000  Uiso   1.00
O981   O     0.71500   0.39775   0.80465   0.00000  Uiso   1.00
N982   N     0.95601   0.55742   0.68909   0.00000  Uiso   1.00
O983   O     0.93568   0.53694   0.65720   0.00000  Uiso   1.00
O984   O     0.95164   0.60224   0.69538   0.00000  Uiso   1.00
N985   N     0.95700   0.44313   0.81220   0.00000  Uiso   1.00
O986   O     0.96277   0.39810   0.81473   0.00000  Uiso   1.00
O987   O     0.93158   0.46323   0.83950   0.00000  Uiso   1.00
N988   N     0.70966   0.55686   0.68779   0.00000  Uiso   1.00
O989   O     0.70387   0.60189   0.68523   0.00000  Uiso   1.00
O990   O     0.73511   0.53677   0.66052   0.00000  Uiso   1.00
O991   O     0.10655   0.87291   0.75000   0.00000  Uiso   1.00
O992   O     0.22679   0.79375   0.75001   0.00000  Uiso   1.00
O993   O     0.22679   0.87291   0.75001   0.00000  Uiso   1.00
O994   O     0.10655   0.79375   0.75000   0.00000  Uiso   1.00
C995   C     0.08745   0.83328   0.74979   0.00000  Uiso   1.00
C996   C     0.24588   0.83338   0.75021   0.00000  Uiso   1.00
O997   O     0.16666   0.87293   0.68513   0.00000  Uiso   1.00
O998   O     0.16668   0.79373   0.81487   0.00000  Uiso   1.00
O999   O     0.16668   0.87293   0.81487   0.00000  Uiso   1.00
O1000  O     0.16666   0.79373   0.68513   0.00000  Uiso   1.00
C1001  C     0.16666   0.83332   0.66427   0.00000  Uiso   1.00
C1002  C     0.16667   0.83335   0.83574   0.00000  Uiso   1.00
Cu1003 Cu    0.16667   0.88022   0.75000   0.00000  Uiso   1.00
Cu1004 Cu    0.16667   0.78645   0.75000   0.00000  Uiso   1.00
C1005  C     0.16678   0.87598   0.90739   0.00000  Uiso   1.00
C1006  C     0.16655   0.79068   0.59261   0.00000  Uiso   1.00
C1007  C     0.16671   0.83335   0.88417   0.00000  Uiso   1.00
C1008  C     0.16663   0.83331   0.61583   0.00000  Uiso   1.00
C1009  C     0.16666   0.79071   0.90732   0.00000  Uiso   1.00
C1010  C     0.16668   0.87595   0.59268   0.00000  Uiso   1.00
C1011  C     0.16664   0.79040   0.95351   0.00000  Uiso   1.00
C1012  C     0.16670   0.87626   0.54649   0.00000  Uiso   1.00
C1013  C     0.16668   0.83334   0.97676   0.00000  Uiso   1.00
C1014  C     0.16665   0.83333   0.52324   0.00000  Uiso   1.00
C1015  C     0.16676   0.87628   0.95358   0.00000  Uiso   1.00
C1016  C     0.16657   0.79039   0.54642   0.00000  Uiso   1.00
C1017  C     0.16656   0.74791   0.97681   0.00000  Uiso   1.00
C1018  C     0.16677   0.91875   0.52319   0.00000  Uiso   1.00
C1019  C     0.16653   0.74791   0.52304   0.00000  Uiso   1.00
C1020  C     0.16681   0.91876   0.97696   0.00000  Uiso   1.00
H1021  H     0.16685   0.90899   0.88960   0.00000  Uiso   1.00
H1022  H     0.16649   0.75768   0.61040   0.00000  Uiso   1.00
H1023  H     0.16662   0.75771   0.88947   0.00000  Uiso   1.00
H1024  H     0.16671   0.90895   0.61053   0.00000  Uiso   1.00
H1025  H     0.16653   0.71474   0.95930   0.00000  Uiso   1.00
H1026  H     0.16681   0.95193   0.54070   0.00000  Uiso   1.00
H1027  H     0.16647   0.71472   0.54049   0.00000  Uiso   1.00
H1028  H     0.16687   0.95194   0.95951   0.00000  Uiso   1.00
C1029  C     0.02171   0.80355   0.77915   0.00000  Uiso   1.00
C1030  C     0.31162   0.86312   0.72085   0.00000  Uiso   1.00
C1031  C     0.31201   0.80387   0.77980   0.00000  Uiso   1.00
C1032  C     0.02132   0.86279   0.72020   0.00000  Uiso   1.00
C1033  C     0.29051   0.83358   0.75047   0.00000  Uiso   1.00
C1034  C     0.04282   0.83309   0.74953   0.00000  Uiso   1.00
C1035  C     0.14225   0.69142   0.72111   0.00000  Uiso   1.00
C1036  C     0.19108   0.97525   0.77889   0.00000  Uiso   1.00
C1037  C     0.19106   0.69155   0.77892   0.00000  Uiso   1.00
C1038  C     0.14228   0.97512   0.72108   0.00000  Uiso   1.00
H1039  H     0.12268   0.71008   0.69798   0.00000  Uiso   1.00
H1040  H     0.21065   0.95658   0.80202   0.00000  Uiso   1.00
H1041  H     0.21053   0.71032   0.80211   0.00000  Uiso   1.00
H1042  H     0.12280   0.95635   0.69789   0.00000  Uiso   1.00
N1043  N     0.16667   0.95069   0.75000   0.00000  Uiso   1.00
N1044  N     0.16667   0.71598   0.75000   0.00000  Uiso   1.00
N1045  N     0.04399   0.77592   0.81091   0.00000  Uiso   1.00
O1046  O     0.06434   0.79639   0.84278   0.00000  Uiso   1.00
O1047  O     0.04833   0.73109   0.80465   0.00000  Uiso   1.00
N1048  N     0.28934   0.89075   0.68909   0.00000  Uiso   1.00
O1049  O     0.26902   0.87028   0.65720   0.00000  Uiso   1.00
O1050  O     0.28497   0.93557   0.69538   0.00000  Uiso   1.00
N1051  N     0.29034   0.77647   0.81220   0.00000  Uiso   1.00
O1052  O     0.29610   0.73144   0.81473   0.00000  Uiso   1.00
O1053  O     0.26492   0.79656   0.83950   0.00000  Uiso   1.00
N1054  N     0.04300   0.89020   0.68779   0.00000  Uiso   1.00
O1055  O     0.03720   0.93522   0.68523   0.00000  Uiso   1.00
O1056  O     0.06844   0.87010   0.66052   0.00000  Uiso   1.00
O1057  O     0.43988   0.87291   0.75000   0.00000  Uiso   1.00
O1058  O     0.56012   0.79375   0.75001   0.00000  Uiso   1.00
O1059  O     0.56012   0.87291   0.75001   0.00000  Uiso   1.00
O1060  O     0.43988   0.79375   0.75000   0.00000  Uiso   1.00
C1061  C     0.42079   0.83328   0.74979   0.00000  Uiso   1.00
C1062  C     0.57921   0.83338   0.75021   0.00000  Uiso   1.00
O1063  O     0.49999   0.87293   0.68513   0.00000  Uiso   1.00
O1064  O     0.50001   0.79373   0.81487   0.00000  Uiso   1.00
O1065  O     0.50001   0.87293   0.81487   0.00000  Uiso   1.00
O1066  O     0.49999   0.79373   0.68513   0.00000  Uiso   1.00
C1067  C     0.49999   0.83332   0.66427   0.00000  Uiso   1.00
C1068  C     0.50001   0.83335   0.83574   0.00000  Uiso   1.00
Cu1069 Cu    0.50000   0.88022   0.75000   0.00000  Uiso   1.00
Cu1070 Cu    0.50000   0.78645   0.75000   0.00000  Uiso   1.00
C1071  C     0.50011   0.87598   0.90739   0.00000  Uiso   1.00
C1072  C     0.49989   0.79068   0.59261   0.00000  Uiso   1.00
C1073  C     0.50004   0.83335   0.88417   0.00000  Uiso   1.00
C1074  C     0.49996   0.83331   0.61583   0.00000  Uiso   1.00
C1075  C     0.49999   0.79071   0.90732   0.00000  Uiso   1.00
C1076  C     0.50001   0.87595   0.59268   0.00000  Uiso   1.00
C1077  C     0.49997   0.79040   0.95351   0.00000  Uiso   1.00
C1078  C     0.50003   0.87626   0.54649   0.00000  Uiso   1.00
C1079  C     0.50002   0.83334   0.97676   0.00000  Uiso   1.00
C1080  C     0.49999   0.83333   0.52324   0.00000  Uiso   1.00
C1081  C     0.50010   0.87628   0.95358   0.00000  Uiso   1.00
C1082  C     0.49991   0.79039   0.54642   0.00000  Uiso   1.00
C1083  C     0.49990   0.74791   0.97681   0.00000  Uiso   1.00
C1084  C     0.50011   0.91875   0.52319   0.00000  Uiso   1.00
C1085  C     0.49986   0.74791   0.52304   0.00000  Uiso   1.00
C1086  C     0.50014   0.91876   0.97696   0.00000  Uiso   1.00
H1087  H     0.50018   0.90899   0.88960   0.00000  Uiso   1.00
H1088  H     0.49982   0.75768   0.61040   0.00000  Uiso   1.00
H1089  H     0.49996   0.75771   0.88947   0.00000  Uiso   1.00
H1090  H     0.50005   0.90895   0.61053   0.00000  Uiso   1.00
H1091  H     0.49986   0.71474   0.95930   0.00000  Uiso   1.00
H1092  H     0.50014   0.95193   0.54070   0.00000  Uiso   1.00
H1093  H     0.49980   0.71472   0.54049   0.00000  Uiso   1.00
H1094  H     0.50020   0.95194   0.95951   0.00000  Uiso   1.00
C1095  C     0.35505   0.80355   0.77915   0.00000  Uiso   1.00
C1096  C     0.64495   0.86312   0.72085   0.00000  Uiso   1.00
C1097  C     0.64534   0.80387   0.77980   0.00000  Uiso   1.00
C1098  C     0.35466   0.86279   0.72020   0.00000  Uiso   1.00
C1099  C     0.62385   0.83358   0.75047   0.00000  Uiso   1.00
C1100  C     0.37615   0.83309   0.74953   0.00000  Uiso   1.00
C1101  C     0.47558   0.69142   0.72111   0.00000  Uiso   1.00
C1102  C     0.52442   0.97525   0.77889   0.00000  Uiso   1.00
C1103  C     0.52439   0.69155   0.77892   0.00000  Uiso   1.00
C1104  C     0.47561   0.97512   0.72108   0.00000  Uiso   1.00
H1105  H     0.45601   0.71008   0.69798   0.00000  Uiso   1.00
H1106  H     0.54399   0.95658   0.80202   0.00000  Uiso   1.00
H1107  H     0.54387   0.71032   0.80211   0.00000  Uiso   1.00
H1108  H     0.45613   0.95635   0.69789   0.00000  Uiso   1.00
N1109  N     0.50000   0.95069   0.75000   0.00000  Uiso   1.00
N1110  N     0.50000   0.71598   0.75000   0.00000  Uiso   1.00
N1111  N     0.37732   0.77592   0.81091   0.00000  Uiso   1.00
O1112  O     0.39767   0.79639   0.84278   0.00000  Uiso   1.00
O1113  O     0.38166   0.73109   0.80465   0.00000  Uiso   1.00
N1114  N     0.62268   0.89075   0.68909   0.00000  Uiso   1.00
O1115  O     0.60235   0.87028   0.65720   0.00000  Uiso   1.00
O1116  O     0.61830   0.93557   0.69538   0.00000  Uiso   1.00
N1117  N     0.62367   0.77647   0.81220   0.00000  Uiso   1.00
O1118  O     0.62944   0.73144   0.81473   0.00000  Uiso   1.00
O1119  O     0.59825   0.79656   0.83950   0.00000  Uiso   1.00
N1120  N     0.37633   0.89020   0.68779   0.00000  Uiso   1.00
O1121  O     0.37053   0.93522   0.68523   0.00000  Uiso   1.00
O1122  O     0.40177   0.87010   0.66052   0.00000  Uiso   1.00
O1123  O     0.77321   0.87291   0.75000   0.00000  Uiso   1.00
O1124  O     0.89345   0.79375   0.75001   0.00000  Uiso   1.00
O1125  O     0.89345   0.87291   0.75001   0.00000  Uiso   1.00
O1126  O     0.77321   0.79375   0.75000   0.00000  Uiso   1.00
C1127  C     0.75412   0.83328   0.74979   0.00000  Uiso   1.00
C1128  C     0.91255   0.83338   0.75021   0.00000  Uiso   1.00
O1129  O     0.83332   0.87293   0.68513   0.00000  Uiso   1.00
O1130  O     0.83334   0.79373   0.81487   0.00000  Uiso   1.00
O1131  O     0.83334   0.87293   0.81487   0.00000  Uiso   1.00
O1132  O     0.83332   0.79373   0.68513   0.00000  Uiso   1.00
C1133  C     0.83333   0.83332   0.66427   0.00000  Uiso   1.00
C1134  C     0.83334   0.83335   0.83574   0.00000  Uiso   1.00
Cu1135 Cu    0.83333   0.88022   0.75000   0.00000  Uiso   1.00
Cu1136 Cu    0.83333   0.78645   0.75000   0.00000  Uiso   1.00
C1137  C     0.83345   0.87598   0.90739   0.00000  Uiso   1.00
C1138  C     0.83322   0.79068   0.59261   0.00000  Uiso   1.00
C1139  C     0.83337   0.83335   0.88417   0.00000  Uiso   1.00
C1140  C     0.83330   0.83331   0.61583   0.00000  Uiso   1.00
C1141  C     0.83332   0.79071   0.90732   0.00000  Uiso   1.00
C1142  C     0.83335   0.87595   0.59268   0.00000  Uiso   1.00
C1143  C     0.83330   0.79040   0.95351   0.00000  Uiso   1.00
C1144  C     0.83337   0.87626   0.54649   0.00000  Uiso   1.00
C1145  C     0.83335   0.83334   0.97676   0.00000  Uiso   1.00
C1146  C     0.83332   0.83333   0.52324   0.00000  Uiso   1.00
C1147  C     0.83343   0.87628   0.95358   0.00000  Uiso   1.00
C1148  C     0.83324   0.79039   0.54642   0.00000  Uiso   1.00
C1149  C     0.83323   0.74791   0.97681   0.00000  Uiso   1.00
C1150  C     0.83344   0.91875   0.52319   0.00000  Uiso   1.00
C1151  C     0.83319   0.74791   0.52304   0.00000  Uiso   1.00
C1152  C     0.83348   0.91876   0.97696   0.00000  Uiso   1.00
H1153  H     0.83351   0.90899   0.88960   0.00000  Uiso   1.00
H1154  H     0.83315   0.75768   0.61040   0.00000  Uiso   1.00
H1155  H     0.83329   0.75771   0.88947   0.00000  Uiso   1.00
H1156  H     0.83338   0.90895   0.61053   0.00000  Uiso   1.00
H1157  H     0.83319   0.71474   0.95930   0.00000  Uiso   1.00
H1158  H     0.83348   0.95193   0.54070   0.00000  Uiso   1.00
H1159  H     0.83313   0.71472   0.54049   0.00000  Uiso   1.00
H1160  H     0.83354   0.95194   0.95951   0.00000  Uiso   1.00
C1161  C     0.68838   0.80355   0.77915   0.00000  Uiso   1.00
C1162  C     0.97829   0.86312   0.72085   0.00000  Uiso   1.00
C1163  C     0.97868   0.80387   0.77980   0.00000  Uiso   1.00
C1164  C     0.68799   0.86279   0.72020   0.00000  Uiso   1.00
C1165  C     0.95718   0.83358   0.75047   0.00000  Uiso   1.00
C1166  C     0.70949   0.83309   0.74953   0.00000  Uiso   1.00
C1167  C     0.80892   0.69142   0.72111   0.00000  Uiso   1.00
C1168  C     0.85775   0.97525   0.77889   0.00000  Uiso   1.00
C1169  C     0.85772   0.69155   0.77892   0.00000  Uiso   1.00
C1170  C     0.80894   0.97512   0.72108   0.00000  Uiso   1.00
H1171  H     0.78935   0.71008   0.69798   0.00000  Uiso   1.00
H1172  H     0.87732   0.95658   0.80202   0.00000  Uiso   1.00
H1173  H     0.87720   0.71032   0.80211   0.00000  Uiso   1.00
H1174  H     0.78947   0.95635   0.69789   0.00000  Uiso   1.00
N1175  N     0.83333   0.95069   0.75000   0.00000  Uiso   1.00
N1176  N     0.83333   0.71598   0.75000   0.00000  Uiso   1.00
N1177  N     0.71066   0.77592   0.81091   0.00000  Uiso   1.00
O1178  O     0.73100   0.79639   0.84278   0.00000  Uiso   1.00
O1179  O     0.71500   0.73109   0.80465   0.00000  Uiso   1.00
N1180  N     0.95601   0.89075   0.68909   0.00000  Uiso   1.00
O1181  O     0.93568   0.87028   0.65720   0.00000  Uiso   1.00
O1182  O     0.95164   0.93557   0.69538   0.00000  Uiso   1.00
N1183  N     0.95700   0.77647   0.81220   0.00000  Uiso   1.00
O1184  O     0.96277   0.73144   0.81473   0.00000  Uiso   1.00
O1185  O     0.93158   0.79656   0.83950   0.00000  Uiso   1.00
N1186  N     0.70966   0.89020   0.68779   0.00000  Uiso   1.00
O1187  O     0.70387   0.93522   0.68523   0.00000  Uiso   1.00
O1188  O     0.73511   0.87010   0.66052   0.00000  Uiso   1.00
loop_
_geom_bond_atom_site_label_1
_geom_bond_atom_site_label_2
_geom_bond_distance
_geom_bond_site_symmetry_2
_ccdc_geom_bond_type
O1     C5      1.288   .     A
O1     Cu13    1.960   .     S
O2     C6      1.288   .     A
O2     Cu14    1.960   .     S
O3     Cu13    1.961   .     S
O3     C6      1.287   .     A
O4     Cu14    1.961   .     S
O4     C5      1.287   .     A
C5     C44     1.447   .     S
C6     C43     1.447   .     S
O7     Cu13    1.967   .     S
O7     C11     1.293   .     A
O8     Cu14    1.967   .     S
O8     C12     1.293   .     A
O9     C12     1.293   .     A
O9     Cu13    1.968   .     S
O10    C11     1.293   .     A
O10    Cu14    1.968   .     S
C11    C18     1.461   .     S
C12    C17     1.461   .     S
Cu13   Cu14    2.676   .     S
Cu13   N53     2.011   .     S
Cu14   N54     2.011   .     S
C15    C17     1.403   .     A
C15    C25     1.393   .     A
C15    H31     1.084   .     S
C16    H32     1.084   .     S
C16    C18     1.403   .     A
C16    C26     1.393   .     A
C17    C19     1.403   .     A
C18    C20     1.403   .     A
C19    H33     1.084   .     S
C19    C21     1.393   .     A
C20    H34     1.084   .     S
C20    C22     1.393   .     A
C21    C27     1.402   .     A
C21    C23     1.411   .     A
C22    C28     1.402   .     A
C22    C24     1.411   .     A
C23    C25     1.411   .     A
C23    C618    1.402   .     S
C24    C26     1.411   .     A
C24    C617    1.402   1_554 S
C25    C30     1.402   .     A
C26    C29     1.402   .     A
C27    H35     1.084   .     S
C27    C623    1.394   .     S
C28    H36     1.084   .     S
C28    C624    1.394   1_554 S
C29    H37     1.084   .     S
C29    C621    1.394   1_554 S
C30    H38     1.084   .     S
C30    C622    1.394   .     S
C39    C44     1.408   .     A
C39    N55     1.434   .     S
C39    C173    1.396   1_455 S
C40    N58     1.434   .     S
C40    C43     1.408   .     A
C40    C108    1.396   .     S
C41    N61     1.438   .     S
C41    C43     1.409   .     A
C41    C105    1.396   .     S
C42    C44     1.409   .     A
C42    N64     1.438   .     S
C42    C172    1.396   1_455 S
C45    H49     1.082   .     S
C45    N54     1.367   .     A
C45    C444    1.416   1_545 S
C46    H50     1.082   .     S
C46    N53     1.367   .     A
C46    C245    1.416   .     S
C47    N54     1.367   .     A
C47    H51     1.081   .     S
C47    C442    1.416   1_545 S
C48    N53     1.367   .     A
C48    H52     1.081   .     S
C48    C243    1.416   .     S
N55    O56     1.301   .     A
N55    O57     1.301   .     A
N58    O60     1.301   .     A
N58    O59     1.301   .     A
N61    O62     1.301   .     A
N61    O63     1.301   .     A
N64    O65     1.301   .     A
N64    O66     1.301   .     A
O67    C71     1.288   .     A
O67    Cu79    1.960   .     S
O68    C72     1.288   .     A
O68    Cu80    1.960   .     S
O69    Cu79    1.961   .     S
O69    C72     1.287   .     A
O70    Cu80    1.961   .     S
O70    C71     1.287   .     A
C71    C110    1.447   .     S
C72    C109    1.447   .     S
O73    Cu79    1.967   .     S
O73    C77     1.293   .     A
O74    Cu80    1.967   .     S
O74    C78     1.293   .     A
O75    C78     1.293   .     A
O75    Cu79    1.968   .     S
O76    C77     1.293   .     A
O76    Cu80    1.968   .     S
C77    C84     1.461   .     S
C78    C83     1.461   .     S
Cu79   Cu80    2.676   .     S
Cu79   N119    2.011   .     S
Cu80   N120    2.011   .     S
C81    C83     1.403   .     A
C81    C91     1.393   .     A
C81    H97     1.084   .     S
C82    H98     1.084   .     S
C82    C84     1.403   .     A
C82    C92     1.393   .     A
C83    C85     1.403   .     A
C84    C86     1.403   .     A
C85    H99     1.084   .     S
C85    C87     1.393   .     A
C86    H100    1.084   .     S
C86    C88     1.393   .     A
C87    C93     1.402   .     A
C87    C89     1.411   .     A
C88    C94     1.402   .     A
C88    C90     1.411   .     A
C89    C91     1.411   .     A
C89    C684    1.402   .     S
C90    C92     1.411   .     A
C90    C683    1.402   1_554 S
C91    C96     1.402   .     A
C92    C95     1.402   .     A
C93    H101    1.084   .     S
C93    C689    1.394   .     S
C94    H102    1.084   .     S
C94    C690    1.394   1_554 S
C95    H103    1.084   .     S
C95    C687    1.394   1_554 S
C96    H104    1.084   .     S
C96    C688    1.394   .     S
C105   C110    1.408   .     A
C105   N121    1.434   .     S
C106   N124    1.434   .     S
C106   C109    1.408   .     A
C106   C174    1.396   .     S
C107   N127    1.438   .     S
C107   C109    1.409   .     A
C107   C171    1.396   .     S
C108   C110    1.409   .     A
C108   N130    1.438   .     S
C111   H115    1.082   .     S
C111   N120    1.367   .     A
C111   C510    1.416   1_545 S
C112   H116    1.082   .     S
C112   N119    1.367   .     A
C112   C311    1.416   .     S
C113   N120    1.367   .     A
C113   H117    1.081   .     S
C113   C508    1.416   1_545 S
C114   N119    1.367   .     A
C114   H118    1.081   .     S
C114   C309    1.416   .     S
N121   O122    1.301   .     A
N121   O123    1.301   .     A
N124   O126    1.301   .     A
N124   O125    1.301   .     A
N127   O128    1.301   .     A
N127   O129    1.301   .     A
N130   O131    1.301   .     A
N130   O132    1.301   .     A
O133   C137    1.288   .     A
O133   Cu145   1.960   .     S
O134   C138    1.288   .     A
O134   Cu146   1.960   .     S
O135   Cu145   1.961   .     S
O135   C138    1.287   .     A
O136   Cu146   1.961   .     S
O136   C137    1.287   .     A
C137   C176    1.447   .     S
C138   C175    1.447   .     S
O139   Cu145   1.967   .     S
O139   C143    1.293   .     A
O140   Cu146   1.967   .     S
O140   C144    1.293   .     A
O141   C144    1.293   .     A
O141   Cu145   1.968   .     S
O142   C143    1.293   .     A
O142   Cu146   1.968   .     S
C143   C150    1.461   .     S
C144   C149    1.461   .     S
Cu145  Cu146   2.676   .     S
Cu145  N185    2.011   .     S
Cu146  N186    2.011   .     S
C147   C149    1.403   .     A
C147   C157    1.393   .     A
C147   H163    1.084   .     S
C148   H164    1.084   .     S
C148   C150    1.403   .     A
C148   C158    1.393   .     A
C149   C151    1.403   .     A
C150   C152    1.403   .     A
C151   H165    1.084   .     S
C151   C153    1.393   .     A
C152   H166    1.084   .     S
C152   C154    1.393   .     A
C153   C159    1.402   .     A
C153   C155    1.411   .     A
C154   C160    1.402   .     A
C154   C156    1.411   .     A
C155   C157    1.411   .     A
C155   C750    1.402   .     S
C156   C158    1.411   .     A
C156   C749    1.402   1_554 S
C157   C162    1.402   .     A
C158   C161    1.402   .     A
C159   H167    1.084   .     S
C159   C755    1.394   .     S
C160   H168    1.084   .     S
C160   C756    1.394   1_554 S
C161   H169    1.084   .     S
C161   C753    1.394   1_554 S
C162   H170    1.084   .     S
C162   C754    1.394   .     S
C171   C176    1.408   .     A
C171   N187    1.434   .     S
C172   N190    1.434   .     S
C172   C175    1.408   .     A
C172   C42     1.396   1_655 S
C173   N193    1.438   .     S
C173   C175    1.409   .     A
C173   C39     1.396   1_655 S
C174   C176    1.409   .     A
C174   N196    1.438   .     S
C177   H181    1.082   .     S
C177   N186    1.367   .     A
C177   C576    1.416   1_545 S
C178   H182    1.082   .     S
C178   N185    1.367   .     A
C178   C377    1.416   .     S
C179   N186    1.367   .     A
C179   H183    1.081   .     S
C179   C574    1.416   1_545 S
C180   N185    1.367   .     A
C180   H184    1.081   .     S
C180   C375    1.416   .     S
N187   O188    1.301   .     A
N187   O189    1.301   .     A
N190   O192    1.301   .     A
N190   O191    1.301   .     A
N193   O194    1.301   .     A
N193   O195    1.301   .     A
N196   O197    1.301   .     A
N196   O198    1.301   .     A
O199   C203    1.288   .     A
O199   Cu211   1.960   .     S
O200   C204    1.288   .     A
O200   Cu212   1.960   .     S
O201   Cu211   1.961   .     S
O201   C204    1.287   .     A
O202   Cu212   1.961   .     S
O202   C203    1.287   .     A
C203   C242    1.447   .     S
C204   C241    1.447   .     S
O205   Cu211   1.967   .     S
O205   C209    1.293   .     A
O206   Cu212   1.967   .     S
O206   C210    1.293   .     A
O207   C210    1.293   .     A
O207   Cu211   1.968   .     S
O208   C209    1.293   .     A
O208   Cu212   1.968   .     S
C209   C216    1.461   .     S
C210   C215    1.461   .     S
Cu211  Cu212   2.676   .     S
Cu211  N251    2.011   .     S
Cu212  N252    2.011   .     S
C213   C215    1.403   .     A
C213   C223    1.393   .     A
C213   H229    1.084   .     S
C214   H230    1.084   .     S
C214   C216    1.403   .     A
C214   C224    1.393   .     A
C215   C217    1.403   .     A
C216   C218    1.403   .     A
C217   H231    1.084   .     S
C217   C219    1.393   .     A
C218   H232    1.084   .     S
C218   C220    1.393   .     A
C219   C225    1.402   .     A
C219   C221    1.411   .     A
C220   C226    1.402   .     A
C220   C222    1.411   .     A
C221   C223    1.411   .     A
C221   C816    1.402   .     S
C222   C224    1.411   .     A
C222   C815    1.402   1_554 S
C223   C228    1.402   .     A
C224   C227    1.402   .     A
C225   H233    1.084   .     S
C225   C821    1.394   .     S
C226   H234    1.084   .     S
C226   C822    1.394   1_554 S
C227   H235    1.084   .     S
C227   C819    1.394   1_554 S
C228   H236    1.084   .     S
C228   C820    1.394   .     S
C237   C242    1.408   .     A
C237   N253    1.434   .     S
C237   C371    1.396   1_455 S
C238   N256    1.434   .     S
C238   C241    1.408   .     A
C238   C306    1.396   .     S
C239   N259    1.438   .     S
C239   C241    1.409   .     A
C239   C303    1.396   .     S
C240   C242    1.409   .     A
C240   N262    1.438   .     S
C240   C370    1.396   1_455 S
C243   H247    1.082   .     S
C243   N252    1.367   .     A
C244   H248    1.082   .     S
C244   N251    1.367   .     A
C244   C443    1.416   .     S
C245   N252    1.367   .     A
C245   H249    1.081   .     S
C246   N251    1.367   .     A
C246   H250    1.081   .     S
C246   C441    1.416   .     S
N253   O254    1.301   .     A
N253   O255    1.301   .     A
N256   O258    1.301   .     A
N256   O257    1.301   .     A
N259   O260    1.301   .     A
N259   O261    1.301   .     A
N262   O263    1.301   .     A
N262   O264    1.301   .     A
O265   C269    1.288   .     A
O265   Cu277   1.960   .     S
O266   C270    1.288   .     A
O266   Cu278   1.960   .     S
O267   Cu277   1.961   .     S
O267   C270    1.287   .     A
O268   Cu278   1.961   .     S
O268   C269    1.287   .     A
C269   C308    1.447   .     S
C270   C307    1.447   .     S
O271   Cu277   1.967   .     S
O271   C275    1.293   .     A
O272   Cu278   1.967   .     S
O272   C276    1.293   .     A
O273   C276    1.293   .     A
O273   Cu277   1.968   .     S
O274   C275    1.293   .     A
O274   Cu278   1.968   .     S
C275   C282    1.461   .     S
C276   C281    1.461   .     S
Cu277  Cu278   2.676   .     S
Cu277  N317    2.011   .     S
Cu278  N318    2.011   .     S
C279   C281    1.403   .     A
C279   C289    1.393   .     A
C279   H295    1.084   .     S
C280   H296    1.084   .     S
C280   C282    1.403   .     A
C280   C290    1.393   .     A
C281   C283    1.403   .     A
C282   C284    1.403   .     A
C283   H297    1.084   .     S
C283   C285    1.393   .     A
C284   H298    1.084   .     S
C284   C286    1.393   .     A
C285   C291    1.402   .     A
C285   C287    1.411   .     A
C286   C292    1.402   .     A
C286   C288    1.411   .     A
C287   C289    1.411   .     A
C287   C882    1.402   .     S
C288   C290    1.411   .     A
C288   C881    1.402   1_554 S
C289   C294    1.402   .     A
C290   C293    1.402   .     A
C291   H299    1.084   .     S
C291   C887    1.394   .     S
C292   H300    1.084   .     S
C292   C888    1.394   1_554 S
C293   H301    1.084   .     S
C293   C885    1.394   1_554 S
C294   H302    1.084   .     S
C294   C886    1.394   .     S
C303   C308    1.408   .     A
C303   N319    1.434   .     S
C304   N322    1.434   .     S
C304   C307    1.408   .     A
C304   C372    1.396   .     S
C305   N325    1.438   .     S
C305   C307    1.409   .     A
C305   C369    1.396   .     S
C306   C308    1.409   .     A
C306   N328    1.438   .     S
C309   H313    1.082   .     S
C309   N318    1.367   .     A
C310   H314    1.082   .     S
C310   N317    1.367   .     A
C310   C509    1.416   .     S
C311   N318    1.367   .     A
C311   H315    1.081   .     S
C312   N317    1.367   .     A
C312   H316    1.081   .     S
C312   C507    1.416   .     S
N319   O320    1.301   .     A
N319   O321    1.301   .     A
N322   O324    1.301   .     A
N322   O323    1.301   .     A
N325   O326    1.301   .     A
N325   O327    1.301   .     A
N328   O329    1.301   .     A
N328   O330    1.301   .     A
O331   C335    1.288   .     A
O331   Cu343   1.960   .     S
O332   C336    1.288   .     A
O332   Cu344   1.960   .     S
O333   Cu343   1.961   .     S
O333   C336    1.287   .     A
O334   Cu344   1.961   .     S
O334   C335    1.287   .     A
C335   C374    1.447   .     S
C336   C373    1.447   .     S
O337   Cu343   1.967   .     S
O337   C341    1.293   .     A
O338   Cu344   1.967   .     S
O338   C342    1.293   .     A
O339   C342    1.293   .     A
O339   Cu343   1.968   .     S
O340   C341    1.293   .     A
O340   Cu344   1.968   .     S
C341   C348    1.461   .     S
C342   C347    1.461   .     S
Cu343  Cu344   2.676   .     S
Cu343  N383    2.011   .     S
Cu344  N384    2.011   .     S
C345   C347    1.403   .     A
C345   C355    1.393   .     A
C345   H361    1.084   .     S
C346   H362    1.084   .     S
C346   C348    1.403   .     A
C346   C356    1.393   .     A
C347   C349    1.403   .     A
C348   C350    1.403   .     A
C349   H363    1.084   .     S
C349   C351    1.393   .     A
C350   H364    1.084   .     S
C350   C352    1.393   .     A
C351   C357    1.402   .     A
C351   C353    1.411   .     A
C352   C358    1.402   .     A
C352   C354    1.411   .     A
C353   C355    1.411   .     A
C353   C948    1.402   .     S
C354   C356    1.411   .     A
C354   C947    1.402   1_554 S
C355   C360    1.402   .     A
C356   C359    1.402   .     A
C357   H365    1.084   .     S
C357   C953    1.394   .     S
C358   H366    1.084   .     S
C358   C954    1.394   1_554 S
C359   H367    1.084   .     S
C359   C951    1.394   1_554 S
C360   H368    1.084   .     S
C360   C952    1.394   .     S
C369   C374    1.408   .     A
C369   N385    1.434   .     S
C370   N388    1.434   .     S
C370   C373    1.408   .     A
C370   C240    1.396   1_655 S
C371   N391    1.438   .     S
C371   C373    1.409   .     A
C371   C237    1.396   1_655 S
C372   C374    1.409   .     A
C372   N394    1.438   .     S
C375   H379    1.082   .     S
C375   N384    1.367   .     A
C376   H380    1.082   .     S
C376   N383    1.367   .     A
C376   C575    1.416   .     S
C377   N384    1.367   .     A
C377   H381    1.081   .     S
C378   N383    1.367   .     A
C378   H382    1.081   .     S
C378   C573    1.416   .     S
N385   O386    1.301   .     A
N385   O387    1.301   .     A
N388   O390    1.301   .     A
N388   O389    1.301   .     A
N391   O392    1.301   .     A
N391   O393    1.301   .     A
N394   O395    1.301   .     A
N394   O396    1.301   .     A
O397   C401    1.288   .     A
O397   Cu409   1.960   .     S
O398   C402    1.288   .     A
O398   Cu410   1.960   .     S
O399   Cu409   1.961   .     S
O399   C402    1.287   .     A
O400   Cu410   1.961   .     S
O400   C401    1.287   .     A
C401   C440    1.447   .     S
C402   C439    1.447   .     S
O403   Cu409   1.967   .     S
O403   C407    1.293   .     A
O404   Cu410   1.967   .     S
O404   C408    1.293   .     A
O405   C408    1.293   .     A
O405   Cu409   1.968   .     S
O406   C407    1.293   .     A
O406   Cu410   1.968   .     S
C407   C414    1.461   .     S
C408   C413    1.461   .     S
Cu409  Cu410   2.676   .     S
Cu409  N449    2.011   .     S
Cu410  N450    2.011   .     S
C411   C413    1.403   .     A
C411   C421    1.393   .     A
C411   H427    1.084   .     S
C412   H428    1.084   .     S
C412   C414    1.403   .     A
C412   C422    1.393   .     A
C413   C415    1.403   .     A
C414   C416    1.403   .     A
C415   H429    1.084   .     S
C415   C417    1.393   .     A
C416   H430    1.084   .     S
C416   C418    1.393   .     A
C417   C423    1.402   .     A
C417   C419    1.411   .     A
C418   C424    1.402   .     A
C418   C420    1.411   .     A
C419   C421    1.411   .     A
C419   C1014   1.402   .     S
C420   C422    1.411   .     A
C420   C1013   1.402   1_554 S
C421   C426    1.402   .     A
C422   C425    1.402   .     A
C423   H431    1.084   .     S
C423   C1019   1.394   .     S
C424   H432    1.084   .     S
C424   C1020   1.394   1_554 S
C425   H433    1.084   .     S
C425   C1017   1.394   1_554 S
C426   H434    1.084   .     S
C426   C1018   1.394   .     S
C435   C440    1.408   .     A
C435   N451    1.434   .     S
C435   C569    1.396   1_455 S
C436   N454    1.434   .     S
C436   C439    1.408   .     A
C436   C504    1.396   .     S
C437   N457    1.438   .     S
C437   C439    1.409   .     A
C437   C501    1.396   .     S
C438   C440    1.409   .     A
C438   N460    1.438   .     S
C438   C568    1.396   1_455 S
C441   H445    1.082   .     S
C441   N450    1.367   .     A
C442   H446    1.082   .     S
C442   N449    1.367   .     A
C442   C47     1.416   1_565 S
C443   N450    1.367   .     A
C443   H447    1.081   .     S
C444   N449    1.367   .     A
C444   H448    1.081   .     S
C444   C45     1.416   1_565 S
N451   O452    1.301   .     A
N451   O453    1.301   .     A
N454   O456    1.301   .     A
N454   O455    1.301   .     A
N457   O458    1.301   .     A
N457   O459    1.301   .     A
N460   O461    1.301   .     A
N460   O462    1.301   .     A
O463   C467    1.288   .     A
O463   Cu475   1.960   .     S
O464   C468    1.288   .     A
O464   Cu476   1.960   .     S
O465   Cu475   1.961   .     S
O465   C468    1.287   .     A
O466   Cu476   1.961   .     S
O466   C467    1.287   .     A
C467   C506    1.447   .     S
C468   C505    1.447   .     S
O469   Cu475   1.967   .     S
O469   C473    1.293   .     A
O470   Cu476   1.967   .     S
O470   C474    1.293   .     A
O471   C474    1.293   .     A
O471   Cu475   1.968   .     S
O472   C473    1.293   .     A
O472   Cu476   1.968   .     S
C473   C480    1.461   .     S
C474   C479    1.461   .     S
Cu475  Cu476   2.676   .     S
Cu475  N515    2.011   .     S
Cu476  N516    2.011   .     S
C477   C479    1.403   .     A
C477   C487    1.393   .     A
C477   H493    1.084   .     S
C478   H494    1.084   .     S
C478   C480    1.403   .     A
C478   C488    1.393   .     A
C479   C481    1.403   .     A
C480   C482    1.403   .     A
C481   H495    1.084   .     S
C481   C483    1.393   .     A
C482   H496    1.084   .     S
C482   C484    1.393   .     A
C483   C489    1.402   .     A
C483   C485    1.411   .     A
C484   C490    1.402   .     A
C484   C486    1.411   .     A
C485   C487    1.411   .     A
C485   C1080   1.402   .     S
C486   C488    1.411   .     A
C486   C1079   1.402   1_554 S
C487   C492    1.402   .     A
C488   C491    1.402   .     A
C489   H497    1.084   .     S
C489   C1085   1.394   .     S
C490   H498    1.084   .     S
C490   C1086   1.394   1_554 S
C491   H499    1.084   .     S
C491   C1083   1.394   1_554 S
C492   H500    1.084   .     S
C492   C1084   1.394   .     S
C501   C506    1.408   .     A
C501   N517    1.434   .     S
C502   N520    1.434   .     S
C502   C505    1.408   .     A
C502   C570    1.396   .     S
C503   N523    1.438   .     S
C503   C505    1.409   .     A
C503   C567    1.396   .     S
C504   C506    1.409   .     A
C504   N526    1.438   .     S
C507   H511    1.082   .     S
C507   N516    1.367   .     A
C508   H512    1.082   .     S
C508   N515    1.367   .     A
C508   C113    1.416   1_565 S
C509   N516    1.367   .     A
C509   H513    1.081   .     S
C510   N515    1.367   .     A
C510   H514    1.081   .     S
C510   C111    1.416   1_565 S
N517   O518    1.301   .     A
N517   O519    1.301   .     A
N520   O522    1.301   .     A
N520   O521    1.301   .     A
N523   O524    1.301   .     A
N523   O525    1.301   .     A
N526   O527    1.301   .     A
N526   O528    1.301   .     A
O529   C533    1.288   .     A
O529   Cu541   1.960   .     S
O530   C534    1.288   .     A
O530   Cu542   1.960   .     S
O531   Cu541   1.961   .     S
O531   C534    1.287   .     A
O532   Cu542   1.961   .     S
O532   C533    1.287   .     A
C533   C572    1.447   .     S
C534   C571    1.447   .     S
O535   Cu541   1.967   .     S
O535   C539    1.293   .     A
O536   Cu542   1.967   .     S
O536   C540    1.293   .     A
O537   C540    1.293   .     A
O537   Cu541   1.968   .     S
O538   C539    1.293   .     A
O538   Cu542   1.968   .     S
C539   C546    1.461   .     S
C540   C545    1.461   .     S
Cu541  Cu542   2.676   .     S
Cu541  N581    2.011   .     S
Cu542  N582    2.011   .     S
C543   C545    1.403   .     A
C543   C553    1.393   .     A
C543   H559    1.084   .     S
C544   H560    1.084   .     S
C544   C546    1.403   .     A
C544   C554    1.393   .     A
C545   C547    1.403   .     A
C546   C548    1.403   .     A
C547   H561    1.084   .     S
C547   C549    1.393   .     A
C548   H562    1.084   .     S
C548   C550    1.393   .     A
C549   C555    1.402   .     A
C549   C551    1.411   .     A
C550   C556    1.402   .     A
C550   C552    1.411   .     A
C551   C553    1.411   .     A
C551   C1146   1.402   .     S
C552   C554    1.411   .     A
C552   C1145   1.402   1_554 S
C553   C558    1.402   .     A
C554   C557    1.402   .     A
C555   H563    1.084   .     S
C555   C1151   1.394   .     S
C556   H564    1.084   .     S
C556   C1152   1.394   1_554 S
C557   H565    1.084   .     S
C557   C1149   1.394   1_554 S
C558   H566    1.084   .     S
C558   C1150   1.394   .     S
C567   C572    1.408   .     A
C567   N583    1.434   .     S
C568   N586    1.434   .     S
C568   C571    1.408   .     A
C568   C438    1.396   1_655 S
C569   N589    1.438   .     S
C569   C571    1.409   .     A
C569   C435    1.396   1_655 S
C570   C572    1.409   .     A
C570   N592    1.438   .     S
C573   H577    1.082   .     S
C573   N582    1.367   .     A
C574   H578    1.082   .     S
C574   N581    1.367   .     A
C574   C179    1.416   1_565 S
C575   N582    1.367   .     A
C575   H579    1.081   .     S
C576   N581    1.367   .     A
C576   H580    1.081   .     S
C576   C177    1.416   1_565 S
N583   O584    1.301   .     A
N583   O585    1.301   .     A
N586   O588    1.301   .     A
N586   O587    1.301   .     A
N589   O590    1.301   .     A
N589   O591    1.301   .     A
N592   O593    1.301   .     A
N592   O594    1.301   .     A
O595   C599    1.288   .     A
O595   Cu607   1.960   .     S
O596   C600    1.288   .     A
O596   Cu608   1.960   .     S
O597   Cu607   1.961   .     S
O597   C600    1.287   .     A
O598   Cu608   1.961   .     S
O598   C599    1.287   .     A
C599   C638    1.447   .     S
C600   C637    1.447   .     S
O601   Cu607   1.967   .     S
O601   C605    1.293   .     A
O602   Cu608   1.967   .     S
O602   C606    1.293   .     A
O603   C606    1.293   .     A
O603   Cu607   1.968   .     S
O604   C605    1.293   .     A
O604   Cu608   1.968   .     S
C605   C612    1.461   .     S
C606   C611    1.461   .     S
Cu607  Cu608   2.676   .     S
Cu607  N647    2.011   .     S
Cu608  N648    2.011   .     S
C609   C611    1.403   .     A
C609   C619    1.393   .     A
C609   H625    1.084   .     S
C610   H626    1.084   .     S
C610   C612    1.403   .     A
C610   C620    1.393   .     A
C611   C613    1.403   .     A
C612   C614    1.403   .     A
C613   H627    1.084   .     S
C613   C615    1.393   .     A
C614   H628    1.084   .     S
C614   C616    1.393   .     A
C615   C621    1.402   .     A
C615   C617    1.411   .     A
C616   C622    1.402   .     A
C616   C618    1.411   .     A
C617   C619    1.411   .     A
C617   C24     1.402   1_556 S
C618   C620    1.411   .     A
C619   C624    1.402   .     A
C620   C623    1.402   .     A
C621   H629    1.084   .     S
C621   C29     1.394   1_556 S
C622   H630    1.084   .     S
C623   H631    1.084   .     S
C624   H632    1.084   .     S
C624   C28     1.394   1_556 S
C633   C638    1.408   .     A
C633   N649    1.434   .     S
C633   C767    1.396   1_455 S
C634   N652    1.434   .     S
C634   C637    1.408   .     A
C634   C702    1.396   .     S
C635   N655    1.438   .     S
C635   C637    1.409   .     A
C635   C699    1.396   .     S
C636   C638    1.409   .     A
C636   N658    1.438   .     S
C636   C766    1.396   1_455 S
C639   H643    1.082   .     S
C639   N648    1.367   .     A
C639   C1038   1.416   1_545 S
C640   H644    1.082   .     S
C640   N647    1.367   .     A
C640   C839    1.416   .     S
C641   N648    1.367   .     A
C641   H645    1.081   .     S
C641   C1036   1.416   1_545 S
C642   N647    1.367   .     A
C642   H646    1.081   .     S
C642   C837    1.416   .     S
N649   O650    1.301   .     A
N649   O651    1.301   .     A
N652   O654    1.301   .     A
N652   O653    1.301   .     A
N655   O656    1.301   .     A
N655   O657    1.301   .     A
N658   O659    1.301   .     A
N658   O660    1.301   .     A
O661   C665    1.288   .     A
O661   Cu673   1.960   .     S
O662   C666    1.288   .     A
O662   Cu674   1.960   .     S
O663   Cu673   1.961   .     S
O663   C666    1.287   .     A
O664   Cu674   1.961   .     S
O664   C665    1.287   .     A
C665   C704    1.447   .     S
C666   C703    1.447   .     S
O667   Cu673   1.967   .     S
O667   C671    1.293   .     A
O668   Cu674   1.967   .     S
O668   C672    1.293   .     A
O669   C672    1.293   .     A
O669   Cu673   1.968   .     S
O670   C671    1.293   .     A
O670   Cu674   1.968   .     S
C671   C678    1.461   .     S
C672   C677    1.461   .     S
Cu673  Cu674   2.676   .     S
Cu673  N713    2.011   .     S
Cu674  N714    2.011   .     S
C675   C677    1.403   .     A
C675   C685    1.393   .     A
C675   H691    1.084   .     S
C676   H692    1.084   .     S
C676   C678    1.403   .     A
C676   C686    1.393   .     A
C677   C679    1.403   .     A
C678   C680    1.403   .     A
C679   H693    1.084   .     S
C679   C681    1.393   .     A
C680   H694    1.084   .     S
C680   C682    1.393   .     A
C681   C687    1.402   .     A
C681   C683    1.411   .     A
C682   C688    1.402   .     A
C682   C684    1.411   .     A
C683   C685    1.411   .     A
C683   C90     1.402   1_556 S
C684   C686    1.411   .     A
C685   C690    1.402   .     A
C686   C689    1.402   .     A
C687   H695    1.084   .     S
C687   C95     1.394   1_556 S
C688   H696    1.084   .     S
C689   H697    1.084   .     S
C690   H698    1.084   .     S
C690   C94     1.394   1_556 S
C699   C704    1.408   .     A
C699   N715    1.434   .     S
C700   N718    1.434   .     S
C700   C703    1.408   .     A
C700   C768    1.396   .     S
C701   N721    1.438   .     S
C701   C703    1.409   .     A
C701   C765    1.396   .     S
C702   C704    1.409   .     A
C702   N724    1.438   .     S
C705   H709    1.082   .     S
C705   N714    1.367   .     A
C705   C1104   1.416   1_545 S
C706   H710    1.082   .     S
C706   N713    1.367   .     A
C706   C905    1.416   .     S
C707   N714    1.367   .     A
C707   H711    1.081   .     S
C707   C1102   1.416   1_545 S
C708   N713    1.367   .     A
C708   H712    1.081   .     S
C708   C903    1.416   .     S
N715   O716    1.301   .     A
N715   O717    1.301   .     A
N718   O720    1.301   .     A
N718   O719    1.301   .     A
N721   O722    1.301   .     A
N721   O723    1.301   .     A
N724   O725    1.301   .     A
N724   O726    1.301   .     A
O727   C731    1.288   .     A
O727   Cu739   1.960   .     S
O728   C732    1.288   .     A
O728   Cu740   1.960   .     S
O729   Cu739   1.961   .     S
O729   C732    1.287   .     A
O730   Cu740   1.961   .     S
O730   C731    1.287   .     A
C731   C770    1.447   .     S
C732   C769    1.447   .     S
O733   Cu739   1.967   .     S
O733   C737    1.293   .     A
O734   Cu740   1.967   .     S
O734   C738    1.293   .     A
O735   C738    1.293   .     A
O735   Cu739   1.968   .     S
O736   C737    1.293   .     A
O736   Cu740   1.968   .     S
C737   C744    1.461   .     S
C738   C743    1.461   .     S
Cu739  Cu740   2.676   .     S
Cu739  N779    2.011   .     S
Cu740  N780    2.011   .     S
C741   C743    1.403   .     A
C741   C751    1.393   .     A
C741   H757    1.084   .     S
C742   H758    1.084   .     S
C742   C744    1.403   .     A
C742   C752    1.393   .     A
C743   C745    1.403   .     A
C744   C746    1.403   .     A
C745   H759    1.084   .     S
C745   C747    1.393   .     A
C746   H760    1.084   .     S
C746   C748    1.393   .     A
C747   C753    1.402   .     A
C747   C749    1.411   .     A
C748   C754    1.402   .     A
C748   C750    1.411   .     A
C749   C751    1.411   .     A
C749   C156    1.402   1_556 S
C750   C752    1.411   .     A
C751   C756    1.402   .     A
C752   C755    1.402   .     A
C753   H761    1.084   .     S
C753   C161    1.394   1_556 S
C754   H762    1.084   .     S
C755   H763    1.084   .     S
C756   H764    1.084   .     S
C756   C160    1.394   1_556 S
C765   C770    1.408   .     A
C765   N781    1.434   .     S
C766   N784    1.434   .     S
C766   C769    1.408   .     A
C766   C636    1.396   1_655 S
C767   N787    1.438   .     S
C767   C769    1.409   .     A
C767   C633    1.396   1_655 S
C768   C770    1.409   .     A
C768   N790    1.438   .     S
C771   H775    1.082   .     S
C771   N780    1.367   .     A
C771   C1170   1.416   1_545 S
C772   H776    1.082   .     S
C772   N779    1.367   .     A
C772   C971    1.416   .     S
C773   N780    1.367   .     A
C773   H777    1.081   .     S
C773   C1168   1.416   1_545 S
C774   N779    1.367   .     A
C774   H778    1.081   .     S
C774   C969    1.416   .     S
N781   O782    1.301   .     A
N781   O783    1.301   .     A
N784   O786    1.301   .     A
N784   O785    1.301   .     A
N787   O788    1.301   .     A
N787   O789    1.301   .     A
N790   O791    1.301   .     A
N790   O792    1.301   .     A
O793   C797    1.288   .     A
O793   Cu805   1.960   .     S
O794   C798    1.288   .     A
O794   Cu806   1.960   .     S
O795   Cu805   1.961   .     S
O795   C798    1.287   .     A
O796   Cu806   1.961   .     S
O796   C797    1.287   .     A
C797   C836    1.447   .     S
C798   C835    1.447   .     S
O799   Cu805   1.967   .     S
O799   C803    1.293   .     A
O800   Cu806   1.967   .     S
O800   C804    1.293   .     A
O801   C804    1.293   .     A
O801   Cu805   1.968   .     S
O802   C803    1.293   .     A
O802   Cu806   1.968   .     S
C803   C810    1.461   .     S
C804   C809    1.461   .     S
Cu805  Cu806   2.676   .     S
Cu805  N845    2.011   .     S
Cu806  N846    2.011   .     S
C807   C809    1.403   .     A
C807   C817    1.393   .     A
C807   H823    1.084   .     S
C808   H824    1.084   .     S
C808   C810    1.403   .     A
C808   C818    1.393   .     A
C809   C811    1.403   .     A
C810   C812    1.403   .     A
C811   H825    1.084   .     S
C811   C813    1.393   .     A
C812   H826    1.084   .     S
C812   C814    1.393   .     A
C813   C819    1.402   .     A
C813   C815    1.411   .     A
C814   C820    1.402   .     A
C814   C816    1.411   .     A
C815   C817    1.411   .     A
C815   C222    1.402   1_556 S
C816   C818    1.411   .     A
C817   C822    1.402   .     A
C818   C821    1.402   .     A
C819   H827    1.084   .     S
C819   C227    1.394   1_556 S
C820   H828    1.084   .     S
C821   H829    1.084   .     S
C822   H830    1.084   .     S
C822   C226    1.394   1_556 S
C831   C836    1.408   .     A
C831   N847    1.434   .     S
C831   C965    1.396   1_455 S
C832   N850    1.434   .     S
C832   C835    1.408   .     A
C832   C900    1.396   .     S
C833   N853    1.438   .     S
C833   C835    1.409   .     A
C833   C897    1.396   .     S
C834   C836    1.409   .     A
C834   N856    1.438   .     S
C834   C964    1.396   1_455 S
C837   H841    1.082   .     S
C837   N846    1.367   .     A
C838   H842    1.082   .     S
C838   N845    1.367   .     A
C838   C1037   1.416   .     S
C839   N846    1.367   .     A
C839   H843    1.081   .     S
C840   N845    1.367   .     A
C840   H844    1.081   .     S
C840   C1035   1.416   .     S
N847   O848    1.301   .     A
N847   O849    1.301   .     A
N850   O852    1.301   .     A
N850   O851    1.301   .     A
N853   O854    1.301   .     A
N853   O855    1.301   .     A
N856   O857    1.301   .     A
N856   O858    1.301   .     A
O859   C863    1.288   .     A
O859   Cu871   1.960   .     S
O860   C864    1.288   .     A
O860   Cu872   1.960   .     S
O861   Cu871   1.961   .     S
O861   C864    1.287   .     A
O862   Cu872   1.961   .     S
O862   C863    1.287   .     A
C863   C902    1.447   .     S
C864   C901    1.447   .     S
O865   Cu871   1.967   .     S
O865   C869    1.293   .     A
O866   Cu872   1.967   .     S
O866   C870    1.293   .     A
O867   C870    1.293   .     A
O867   Cu871   1.968   .     S
O868   C869    1.293   .     A
O868   Cu872   1.968   .     S
C869   C876    1.461   .     S
C870   C875    1.461   .     S
Cu871  Cu872   2.676   .     S
Cu871  N911    2.011   .     S
Cu872  N912    2.011   .     S
C873   C875    1.403   .     A
C873   C883    1.393   .     A
C873   H889    1.084   .     S
C874   H890    1.084   .     S
C874   C876    1.403   .     A
C874   C884    1.393   .     A
C875   C877    1.403   .     A
C876   C878    1.403   .     A
C877   H891    1.084   .     S
C877   C879    1.393   .     A
C878   H892    1.084   .     S
C878   C880    1.393   .     A
C879   C885    1.402   .     A
C879   C881    1.411   .     A
C880   C886    1.402   .     A
C880   C882    1.411   .     A
C881   C883    1.411   .     A
C881   C288    1.402   1_556 S
C882   C884    1.411   .     A
C883   C888    1.402   .     A
C884   C887    1.402   .     A
C885   H893    1.084   .     S
C885   C293    1.394   1_556 S
C886   H894    1.084   .     S
C887   H895    1.084   .     S
C888   H896    1.084   .     S
C888   C292    1.394   1_556 S
C897   C902    1.408   .     A
C897   N913    1.434   .     S
C898   N916    1.434   .     S
C898   C901    1.408   .     A
C898   C966    1.396   .     S
C899   N919    1.438   .     S
C899   C901    1.409   .     A
C899   C963    1.396   .     S
C900   C902    1.409   .     A
C900   N922    1.438   .     S
C903   H907    1.082   .     S
C903   N912    1.367   .     A
C904   H908    1.082   .     S
C904   N911    1.367   .     A
C904   C1103   1.416   .     S
C905   N912    1.367   .     A
C905   H909    1.081   .     S
C906   N911    1.367   .     A
C906   H910    1.081   .     S
C906   C1101   1.416   .     S
N913   O914    1.301   .     A
N913   O915    1.301   .     A
N916   O918    1.301   .     A
N916   O917    1.301   .     A
N919   O920    1.301   .     A
N919   O921    1.301   .     A
N922   O923    1.301   .     A
N922   O924    1.301   .     A
O925   C929    1.288   .     A
O925   Cu937   1.960   .     S
O926   C930    1.288   .     A
O926   Cu938   1.960   .     S
O927   Cu937   1.961   .     S
O927   C930    1.287   .     A
O928   Cu938   1.961   .     S
O928   C929    1.287   .     A
C929   C968    1.447   .     S
C930   C967    1.447   .     S
O931   Cu937   1.967   .     S
O931   C935    1.293   .     A
O932   Cu938   1.967   .     S
O932   C936    1.293   .     A
O933   C936    1.293   .     A
O933   Cu937   1.968   .     S
O934   C935    1.293   .     A
O934   Cu938   1.968   .     S
C935   C942    1.461   .     S
C936   C941    1.461   .     S
Cu937  Cu938   2.676   .     S
Cu937  N977    2.011   .     S
Cu938  N978    2.011   .     S
C939   C941    1.403   .     A
C939   C949    1.393   .     A
C939   H955    1.084   .     S
C940   H956    1.084   .     S
C940   C942    1.403   .     A
C940   C950    1.393   .     A
C941   C943    1.403   .     A
C942   C944    1.403   .     A
C943   H957    1.084   .     S
C943   C945    1.393   .     A
C944   H958    1.084   .     S
C944   C946    1.393   .     A
C945   C951    1.402   .     A
C945   C947    1.411   .     A
C946   C952    1.402   .     A
C946   C948    1.411   .     A
C947   C949    1.411   .     A
C947   C354    1.402   1_556 S
C948   C950    1.411   .     A
C949   C954    1.402   .     A
C950   C953    1.402   .     A
C951   H959    1.084   .     S
C951   C359    1.394   1_556 S
C952   H960    1.084   .     S
C953   H961    1.084   .     S
C954   H962    1.084   .     S
C954   C358    1.394   1_556 S
C963   C968    1.408   .     A
C963   N979    1.434   .     S
C964   N982    1.434   .     S
C964   C967    1.408   .     A
C964   C834    1.396   1_655 S
C965   N985    1.438   .     S
C965   C967    1.409   .     A
C965   C831    1.396   1_655 S
C966   C968    1.409   .     A
C966   N988    1.438   .     S
C969   H973    1.082   .     S
C969   N978    1.367   .     A
C970   H974    1.082   .     S
C970   N977    1.367   .     A
C970   C1169   1.416   .     S
C971   N978    1.367   .     A
C971   H975    1.081   .     S
C972   N977    1.367   .     A
C972   H976    1.081   .     S
C972   C1167   1.416   .     S
N979   O980    1.301   .     A
N979   O981    1.301   .     A
N982   O984    1.301   .     A
N982   O983    1.301   .     A
N985   O986    1.301   .     A
N985   O987    1.301   .     A
N988   O989    1.301   .     A
N988   O990    1.301   .     A
O991   C995    1.288   .     A
O991   Cu1003  1.960   .     S
O992   C996    1.288   .     A
O992   Cu1004  1.960   .     S
O993   Cu1003  1.961   .     S
O993   C996    1.287   .     A
O994   Cu1004  1.961   .     S
O994   C995    1.287   .     A
C995   C1034   1.447   .     S
C996   C1033   1.447   .     S
O997   Cu1003  1.967   .     S
O997   C1001   1.293   .     A
O998   Cu1004  1.967   .     S
O998   C1002   1.293   .     A
O999   C1002   1.293   .     A
O999   Cu1003  1.968   .     S
O1000  C1001   1.293   .     A
O1000  Cu1004  1.968   .     S
C1001  C1008   1.461   .     S
C1002  C1007   1.461   .     S
Cu1003 Cu1004  2.676   .     S
Cu1003 N1043   2.011   .     S
Cu1004 N1044   2.011   .     S
C1005  C1007   1.403   .     A
C1005  C1015   1.393   .     A
C1005  H1021   1.084   .     S
C1006  H1022   1.084   .     S
C1006  C1008   1.403   .     A
C1006  C1016   1.393   .     A
C1007  C1009   1.403   .     A
C1008  C1010   1.403   .     A
C1009  H1023   1.084   .     S
C1009  C1011   1.393   .     A
C1010  H1024   1.084   .     S
C1010  C1012   1.393   .     A
C1011  C1017   1.402   .     A
C1011  C1013   1.411   .     A
C1012  C1018   1.402   .     A
C1012  C1014   1.411   .     A
C1013  C1015   1.411   .     A
C1013  C420    1.402   1_556 S
C1014  C1016   1.411   .     A
C1015  C1020   1.402   .     A
C1016  C1019   1.402   .     A
C1017  H1025   1.084   .     S
C1017  C425    1.394   1_556 S
C1018  H1026   1.084   .     S
C1019  H1027   1.084   .     S
C1020  H1028   1.084   .     S
C1020  C424    1.394   1_556 S
C1029  C1034   1.408   .     A
C1029  N1045   1.434   .     S
C1029  C1163   1.396   1_455 S
C1030  N1048   1.434   .     S
C1030  C1033   1.408   .     A
C1030  C1098   1.396   .     S
C1031  N1051   1.438   .     S
C1031  C1033   1.409   .     A
C1031  C1095   1.396   .     S
C1032  C1034   1.409   .     A
C1032  N1054   1.438   .     S
C1032  C1162   1.396   1_455 S
C1035  H1039   1.082   .     S
C1035  N1044   1.367   .     A
C1036  H1040   1.082   .     S
C1036  N1043   1.367   .     A
C1036  C641    1.416   1_565 S
C1037  N1044   1.367   .     A
C1037  H1041   1.081   .     S
C1038  N1043   1.367   .     A
C1038  H1042   1.081   .     S
C1038  C639    1.416   1_565 S
N1045  O1046   1.301   .     A
N1045  O1047   1.301   .     A
N1048  O1050   1.301   .     A
N1048  O1049   1.301   .     A
N1051  O1052   1.301   .     A
N1051  O1053   1.301   .     A
N1054  O1055   1.301   .     A
N1054  O1056   1.301   .     A
O1057  C1061   1.288   .     A
O1057  Cu1069  1.960   .     S
O1058  C1062   1.288   .     A
O1058  Cu1070  1.960   .     S
O1059  Cu1069  1.961   .     S
O1059  C1062   1.287   .     A
O1060  Cu1070  1.961   .     S
O1060  C1061   1.287   .     A
C1061  C1100   1.447   .     S
C1062  C1099   1.447   .     S
O1063  Cu1069  1.967   .     S
O1063  C1067   1.293   .     A
O1064  Cu1070  1.967   .     S
O1064  C1068   1.293   .     A
O1065  C1068   1.293   .     A
O1065  Cu1069  1.968   .     S
O1066  C1067   1.293   .     A
O1066  Cu1070  1.968   .     S
C1067  C1074   1.461   .     S
C1068  C1073   1.461   .     S
Cu1069 Cu1070  2.676   .     S
Cu1069 N1109   2.011   .     S
Cu1070 N1110   2.011   .     S
C1071  C1073   1.403   .     A
C1071  C1081   1.393   .     A
C1071  H1087   1.084   .     S
C1072  H1088   1.084   .     S
C1072  C1074   1.403   .     A
C1072  C1082   1.393   .     A
C1073  C1075   1.403   .     A
C1074  C1076   1.403   .     A
C1075  H1089   1.084   .     S
C1075  C1077   1.393   .     A
C1076  H1090   1.084   .     S
C1076  C1078   1.393   .     A
C1077  C1083   1.402   .     A
C1077  C1079   1.411   .     A
C1078  C1084   1.402   .     A
C1078  C1080   1.411   .     A
C1079  C1081   1.411   .     A
C1079  C486    1.402   1_556 S
C1080  C1082   1.411   .     A
C1081  C1086   1.402   .     A
C1082  C1085   1.402   .     A
C1083  H1091   1.084   .     S
C1083  C491    1.394   1_556 S
C1084  H1092   1.084   .     S
C1085  H1093   1.084   .     S
C1086  H1094   1.084   .     S
C1086  C490    1.394   1_556 S
C1095  C1100   1.408   .     A
C1095  N1111   1.434   .     S
C1096  N1114   1.434   .     S
C1096  C1099   1.408   .     A
C1096  C1164   1.396   .     S
C1097  N1117   1.438   .     S
C1097  C1099   1.409   .     A
C1097  C1161   1.396   .     S
C1098  C1100   1.409   .     A
C1098  N1120   1.438   .     S
C1101  H1105   1.082   .     S
C1101  N1110   1.367   .     A
C1102  H1106   1.082   .     S
C1102  N1109   1.367   .     A
C1102  C707    1.416   1_565 S
C1103  N1110   1.367   .     A
C1103  H1107   1.081   .     S
C1104  N1109   1.367   .     A
C1104  H1108   1.081   .     S
C1104  C705    1.416   1_565 S
N1111  O1112   1.301   .     A
N1111  O1113   1.301   .     A
N1114  O1116   1.301   .     A
N1114  O1115   1.301   .     A
N1117  O1118   1.301   .     A
N1117  O1119   1.301   .     A
N1120  O1121   1.301   .     A
N1120  O1122   1.301   .     A
O1123  C1127   1.288   .     A
O1123  Cu1135  1.960   .     S
O1124  C1128   1.288   .     A
O1124  Cu1136  1.960   .     S
O1125  Cu1135  1.961   .     S
O1125  C1128   1.287   .     A
O1126  Cu1136  1.961   .     S
O1126  C1127   1.287   .     A
C1127  C1166   1.447   .     S
C1128  C1165   1.447   .     S
O1129  Cu1135  1.967   .     S
O1129  C1133   1.293   .     A
O1130  Cu1136  1.967   .     S
O1130  C1134   1.293   .     A
O1131  C1134   1.293   .     A
O1131  Cu1135  1.968   .     S
O1132  C1133   1.293   .     A
O1132  Cu1136  1.968   .     S
C1133  C1140   1.461   .     S
C1134  C1139   1.461   .     S
Cu1135 Cu1136  2.676   .     S
Cu1135 N1175   2.011   .     S
Cu1136 N1176   2.011   .     S
C1137  C1139   1.403   .     A
C1137  C1147   1.393   .     A
C1137  H1153   1.084   .     S
C1138  H1154   1.084   .     S
C1138  C1140   1.403   .     A
C1138  C1148   1.393   .     A
C1139  C1141   1.403   .     A
C1140  C1142   1.403   .     A
C1141  H1155   1.084   .     S
C1141  C1143   1.393   .     A
C1142  H1156   1.084   .     S
C1142  C1144   1.393   .     A
C1143  C1149   1.402   .     A
C1143  C1145   1.411   .     A
C1144  C1150   1.402   .     A
C1144  C1146   1.411   .     A
C1145  C1147   1.411   .     A
C1145  C552    1.402   1_556 S
C1146  C1148   1.411   .     A
C1147  C1152   1.402   .     A
C1148  C1151   1.402   .     A
C1149  H1157   1.084   .     S
C1149  C557    1.394   1_556 S
C1150  H1158   1.084   .     S
C1151  H1159   1.084   .     S
C1152  H1160   1.084   .     S
C1152  C556    1.394   1_556 S
C1161  C1166   1.408   .     A
C1161  N1177   1.434   .     S
C1162  N1180   1.434   .     S
C1162  C1165   1.408   .     A
C1162  C1032   1.396   1_655 S
C1163  N1183   1.438   .     S
C1163  C1165   1.409   .     A
C1163  C1029   1.396   1_655 S
C1164  C1166   1.409   .     A
C1164  N1186   1.438   .     S
C1167  H1171   1.082   .     S
C1167  N1176   1.367   .     A
C1168  H1172   1.082   .     S
C1168  N1175   1.367   .     A
C1168  C773    1.416   1_565 S
C1169  N1176   1.367   .     A
C1169  H1173   1.081   .     S
C1170  N1175   1.367   .     A
C1170  H1174   1.081   .     S
C1170  C771    1.416   1_565 S
N1177  O1178   1.301   .     A
N1177  O1179   1.301   .     A
N1180  O1182   1.301   .     A
N1180  O1181   1.301   .     A
N1183  O1184   1.301   .     A
N1183  O1185   1.301   .     A
N1186  O1187   1.301   .     A
N1186  O1188   1.301   .     A
