data_str_m1_o1_o5_pcu_sym.7
_audit_creation_date              2020-01-03
_audit_creation_method            'Materials Studio'
_symmetry_space_group_name_H-M    'P1'
_symmetry_Int_Tables_number       1
_symmetry_cell_setting            triclinic
loop_
_symmetry_equiv_pos_as_xyz
  x,y,z
_cell_length_a                    36.5700
_cell_length_b                    36.5700
_cell_length_c                    22.4360
_cell_angle_alpha                 90.0052
_cell_angle_beta                  90.0052
_cell_angle_gamma                 90.0171
loop_
_atom_site_label
_atom_site_type_symbol
_atom_site_fract_x
_atom_site_fract_y
_atom_site_fract_z
_atom_site_U_iso_or_equiv
_atom_site_adp_type
_atom_site_occupancy
C1     C    -0.00000   0.25000   0.02665   0.00000  Uiso   1.00
C2     C     0.00000   0.25000   0.58988   0.00000  Uiso   1.00
C3     C     0.25000   0.00000   0.41012   0.00000  Uiso   1.00
C4     C     0.25000   0.00000   0.58988   0.00000  Uiso   1.00
C5     C     0.25000   0.00000   0.91012   0.00000  Uiso   1.00
C6     C     0.25000  -0.00000   0.08988   0.00000  Uiso   1.00
C7     C     0.00000   0.25000   0.91012   0.00000  Uiso   1.00
C8     C    -0.00000   0.25000   0.08988   0.00000  Uiso   1.00
C9     C     0.07004   0.17996   0.25000   0.00000  Uiso   1.00
C10    C     0.42996   0.32004   0.75000   0.00000  Uiso   1.00
C11    C     0.17997   0.42996   0.25000   0.00000  Uiso   1.00
C12    C     0.00000   0.25000   0.97335   0.00000  Uiso   1.00
C13    C     0.32003   0.07004   0.75000   0.00000  Uiso   1.00
C14    C     0.42996   0.32004   0.25000   0.00000  Uiso   1.00
C15    C     0.07004   0.17996   0.75000   0.00000  Uiso   1.00
C16    C     0.32004   0.07003   0.25000   0.00000  Uiso   1.00
C17    C     0.17996   0.42997   0.75000   0.00000  Uiso   1.00
C18    C     0.07004   0.32003   0.75000   0.00000  Uiso   1.00
C19    C     0.42996   0.17997   0.25000   0.00000  Uiso   1.00
C20    C     0.17996   0.07004   0.75000   0.00000  Uiso   1.00
C21    C     0.32004   0.42996   0.25000   0.00000  Uiso   1.00
C22    C     0.42997   0.17996   0.75000   0.00000  Uiso   1.00
C23    C     0.25000  -0.00000   0.02665   0.00000  Uiso   1.00
C24    C     0.07003   0.32004   0.25000   0.00000  Uiso   1.00
C25    C     0.32004   0.42996   0.75000   0.00000  Uiso   1.00
C26    C     0.17996   0.07004   0.25000   0.00000  Uiso   1.00
C27    C     0.10251   0.37037   0.19926   0.00000  Uiso   1.00
C28    C     0.39749   0.12963   0.80074   0.00000  Uiso   1.00
C29    C     0.37000   0.39710   0.19904   0.00000  Uiso   1.00
C30    C     0.13000   0.10290   0.80096   0.00000  Uiso   1.00
C31    C     0.39748   0.12962   0.19926   0.00000  Uiso   1.00
C32    C     0.10252   0.37038   0.80075   0.00000  Uiso   1.00
C33    C     0.13000   0.10290   0.19904   0.00000  Uiso   1.00
C34    C     0.25000   0.00000   0.97335   0.00000  Uiso   1.00
C35    C     0.37000   0.39710   0.80096   0.00000  Uiso   1.00
C36    C     0.10290   0.13000   0.80096   0.00000  Uiso   1.00
C37    C     0.39710   0.37000   0.19904   0.00000  Uiso   1.00
C38    C     0.37038   0.10252   0.80075   0.00000  Uiso   1.00
C39    C     0.12962   0.39748   0.19926   0.00000  Uiso   1.00
C40    C     0.39710   0.37000   0.80096   0.00000  Uiso   1.00
C41    C     0.10290   0.13000   0.19904   0.00000  Uiso   1.00
C42    C     0.12963   0.39749   0.80074   0.00000  Uiso   1.00
C43    C     0.37037   0.10251   0.19926   0.00000  Uiso   1.00
C44    C     0.35251   0.12037   0.69926   0.00000  Uiso   1.00
C45    C     0.25000   0.00000   0.52665   0.00000  Uiso   1.00
C46    C     0.14749   0.37963   0.30074   0.00000  Uiso   1.00
C47    C     0.12000   0.14710   0.69904   0.00000  Uiso   1.00
C48    C     0.38000   0.35290   0.30096   0.00000  Uiso   1.00
C49    C     0.14748   0.37962   0.69926   0.00000  Uiso   1.00
C50    C     0.35252   0.12038   0.30075   0.00000  Uiso   1.00
C51    C     0.38000   0.35290   0.69904   0.00000  Uiso   1.00
C52    C     0.12000   0.14710   0.30096   0.00000  Uiso   1.00
C53    C     0.35290   0.38000   0.30096   0.00000  Uiso   1.00
C54    C     0.14710   0.12000   0.69904   0.00000  Uiso   1.00
C55    C     0.12038   0.35252   0.30075   0.00000  Uiso   1.00
C56    C     0.25000   0.00000   0.47335   0.00000  Uiso   1.00
C57    C     0.37962   0.14748   0.69926   0.00000  Uiso   1.00
C58    C     0.14710   0.12000   0.30096   0.00000  Uiso   1.00
C59    C     0.35290   0.38000   0.69904   0.00000  Uiso   1.00
C60    C     0.37963   0.14749   0.30074   0.00000  Uiso   1.00
C61    C     0.12037   0.35251   0.69926   0.00000  Uiso   1.00
C62    C     0.15191   0.40190   0.25000   0.00000  Uiso   1.00
C63    C     0.34809   0.09810   0.75000   0.00000  Uiso   1.00
C64    C     0.40190   0.34810   0.25000   0.00000  Uiso   1.00
C65    C     0.09810   0.15190   0.75000   0.00000  Uiso   1.00
C66    C     0.34810   0.09809   0.25000   0.00000  Uiso   1.00
C67    C     0.00000   0.25000   0.52665   0.00000  Uiso   1.00
C68    C     0.15190   0.40191   0.75000   0.00000  Uiso   1.00
C69    C     0.09810   0.15190   0.25000   0.00000  Uiso   1.00
C70    C     0.40190   0.34810   0.75000   0.00000  Uiso   1.00
C71    C     0.15190   0.09810   0.75000   0.00000  Uiso   1.00
C72    C     0.34810   0.40190   0.25000   0.00000  Uiso   1.00
C73    C     0.40191   0.15190   0.75000   0.00000  Uiso   1.00
C74    C     0.09809   0.34810   0.25000   0.00000  Uiso   1.00
C75    C     0.34810   0.40190   0.75000   0.00000  Uiso   1.00
C76    C     0.15190   0.09810   0.25000   0.00000  Uiso   1.00
C77    C     0.09810   0.34809   0.75000   0.00000  Uiso   1.00
C78    C     0.00000   0.25000   0.47335   0.00000  Uiso   1.00
C79    C     0.40190   0.15191   0.25000   0.00000  Uiso   1.00
C80    C     0.00000   0.25000   0.41012   0.00000  Uiso   1.00
I81    I     0.06686   0.36370   0.12399   0.00000  Uiso   1.00
I82    I     0.43220   0.36284   0.12338   0.00000  Uiso   1.00
I83    I     0.36371   0.06688   0.87601   0.00000  Uiso   1.00
I84    I     0.13629   0.43312   0.12399   0.00000  Uiso   1.00
I85    I     0.43221   0.36285   0.87663   0.00000  Uiso   1.00
I86    I     0.06779   0.13715   0.12337   0.00000  Uiso   1.00
I87    I     0.13630   0.43314   0.87601   0.00000  Uiso   1.00
I88    I     0.36370   0.06686   0.12399   0.00000  Uiso   1.00
I89    I     0.31686   0.11370   0.62399   0.00000  Uiso   1.00
I90    I     0.18314   0.38630   0.37601   0.00000  Uiso   1.00
I91    I     0.11284   0.18220   0.62338   0.00000  Uiso   1.00
I92    I     0.43314   0.13630   0.87601   0.00000  Uiso   1.00
I93    I     0.38716   0.31780   0.37662   0.00000  Uiso   1.00
I94    I     0.18312   0.38629   0.62399   0.00000  Uiso   1.00
I95    I     0.31688   0.11371   0.37601   0.00000  Uiso   1.00
I96    I     0.38715   0.31779   0.62338   0.00000  Uiso   1.00
I97    I     0.11285   0.18221   0.37663   0.00000  Uiso   1.00
I98    I     0.31780   0.38716   0.37662   0.00000  Uiso   1.00
I99    I     0.18220   0.11284   0.62338   0.00000  Uiso   1.00
I100   I     0.11371   0.31688   0.37601   0.00000  Uiso   1.00
I101   I     0.38629   0.18312   0.62399   0.00000  Uiso   1.00
I102   I     0.18221   0.11285   0.37663   0.00000  Uiso   1.00
I103   I     0.36284   0.43220   0.12338   0.00000  Uiso   1.00
I104   I     0.31779   0.38715   0.62338   0.00000  Uiso   1.00
I105   I     0.38630   0.18314   0.37601   0.00000  Uiso   1.00
I106   I     0.11370   0.31686   0.62399   0.00000  Uiso   1.00
I107   I     0.13716   0.06780   0.87662   0.00000  Uiso   1.00
I108   I     0.43312   0.13629   0.12399   0.00000  Uiso   1.00
I109   I     0.06688   0.36371   0.87601   0.00000  Uiso   1.00
I110   I     0.13715   0.06779   0.12337   0.00000  Uiso   1.00
I111   I     0.36285   0.43221   0.87663   0.00000  Uiso   1.00
I112   I     0.06780   0.13716   0.87662   0.00000  Uiso   1.00
O113   O     0.00000   0.25000   0.25000   0.00000  Uiso   1.00
O114   O     0.00000   0.28036   0.61781   0.00000  Uiso   1.00
O115   O     0.21965   0.00000   0.38219   0.00000  Uiso   1.00
O116   O     0.28036   0.00000   0.61781   0.00000  Uiso   1.00
O117   O     0.25000   0.03036   0.88219   0.00000  Uiso   1.00
O118   O     0.25000   0.46965   0.11781   0.00000  Uiso   1.00
O119   O     0.03036   0.25000   0.88219   0.00000  Uiso   1.00
O120   O     0.46965   0.25000   0.11781   0.00000  Uiso   1.00
O121   O     0.25000   0.46965   0.88219   0.00000  Uiso   1.00
O122   O     0.25000   0.03036   0.11781   0.00000  Uiso   1.00
O123   O     0.46965   0.25000   0.88219   0.00000  Uiso   1.00
O124   O     0.00000   0.25000   0.75000   0.00000  Uiso   1.00
O125   O     0.03036   0.25000   0.11781   0.00000  Uiso   1.00
O126   O     0.04268   0.17693   0.28474   0.00000  Uiso   1.00
O127   O     0.45733   0.32308   0.71526   0.00000  Uiso   1.00
O128   O     0.17693   0.45733   0.28474   0.00000  Uiso   1.00
O129   O     0.32308   0.04268   0.71526   0.00000  Uiso   1.00
O130   O     0.45733   0.32308   0.28474   0.00000  Uiso   1.00
O131   O     0.04268   0.17693   0.71526   0.00000  Uiso   1.00
O132   O     0.32308   0.04268   0.28474   0.00000  Uiso   1.00
O133   O     0.17693   0.45733   0.71526   0.00000  Uiso   1.00
O134   O     0.04268   0.32308   0.71526   0.00000  Uiso   1.00
O135   O     0.25000   0.00000   0.25000   0.00000  Uiso   1.00
O136   O     0.45733   0.17693   0.28474   0.00000  Uiso   1.00
O137   O     0.17693   0.04268   0.71526   0.00000  Uiso   1.00
O138   O     0.32308   0.45733   0.28474   0.00000  Uiso   1.00
O139   O     0.45733   0.17693   0.71526   0.00000  Uiso   1.00
O140   O     0.04268   0.32308   0.28474   0.00000  Uiso   1.00
O141   O     0.32308   0.45733   0.71526   0.00000  Uiso   1.00
O142   O     0.17693   0.04268   0.28474   0.00000  Uiso   1.00
O143   O     0.29268   0.42693   0.78474   0.00000  Uiso   1.00
O144   O     0.20733   0.07308   0.21526   0.00000  Uiso   1.00
O145   O     0.42693   0.20733   0.78474   0.00000  Uiso   1.00
O146   O     0.25000   0.00000   0.75000   0.00000  Uiso   1.00
O147   O     0.07308   0.29268   0.21526   0.00000  Uiso   1.00
O148   O     0.20733   0.07308   0.78474   0.00000  Uiso   1.00
O149   O     0.29268   0.42693   0.21526   0.00000  Uiso   1.00
O150   O     0.07308   0.29268   0.78474   0.00000  Uiso   1.00
O151   O     0.42693   0.20733   0.21526   0.00000  Uiso   1.00
O152   O     0.29268   0.07308   0.21526   0.00000  Uiso   1.00
O153   O     0.20733   0.42693   0.78474   0.00000  Uiso   1.00
O154   O     0.42693   0.29268   0.21526   0.00000  Uiso   1.00
O155   O     0.07308   0.20733   0.78474   0.00000  Uiso   1.00
O156   O     0.20733   0.42693   0.21526   0.00000  Uiso   1.00
O157   O     0.00000   0.28036   0.38219   0.00000  Uiso   1.00
O158   O     0.29268   0.07308   0.78474   0.00000  Uiso   1.00
O159   O     0.07308   0.20733   0.21526   0.00000  Uiso   1.00
O160   O     0.42693   0.29268   0.78474   0.00000  Uiso   1.00
O161   O     0.00000   0.21965   0.61781   0.00000  Uiso   1.00
O162   O     0.28036   0.00000   0.38219   0.00000  Uiso   1.00
O163   O     0.21965   0.00000   0.61781   0.00000  Uiso   1.00
O164   O     0.00000   0.21965   0.38219   0.00000  Uiso   1.00
Zn165  Zn    0.04333   0.25000   0.20067   0.00000  Uiso   1.00
Zn166  Zn    0.20667   0.00000   0.29933   0.00000  Uiso   1.00
Zn167  Zn    0.00000   0.20667   0.70067   0.00000  Uiso   1.00
Zn168  Zn    0.00000   0.29333   0.29933   0.00000  Uiso   1.00
Zn169  Zn    0.20667   0.00000   0.70067   0.00000  Uiso   1.00
Zn170  Zn    0.29333   0.00000   0.29933   0.00000  Uiso   1.00
Zn171  Zn    0.00000   0.29333   0.70067   0.00000  Uiso   1.00
Zn172  Zn    0.00000   0.20667   0.29933   0.00000  Uiso   1.00
Zn173  Zn    0.45667   0.25000   0.79933   0.00000  Uiso   1.00
Zn174  Zn    0.25000   0.45667   0.20067   0.00000  Uiso   1.00
Zn175  Zn    0.25000   0.04333   0.79933   0.00000  Uiso   1.00
Zn176  Zn    0.45667   0.25000   0.20067   0.00000  Uiso   1.00
Zn177  Zn    0.04333   0.25000   0.79933   0.00000  Uiso   1.00
Zn178  Zn    0.25000   0.04333   0.20067   0.00000  Uiso   1.00
Zn179  Zn    0.25000   0.45667   0.79933   0.00000  Uiso   1.00
Zn180  Zn    0.29333   0.00000   0.70067   0.00000  Uiso   1.00
C181   C     0.50000   0.25000   0.02665   0.00000  Uiso   1.00
C182   C     0.50000   0.25000   0.58988   0.00000  Uiso   1.00
C183   C     0.75000   0.00000   0.41012   0.00000  Uiso   1.00
C184   C     0.75000   0.00000   0.58988   0.00000  Uiso   1.00
C185   C     0.75000   0.00000   0.91012   0.00000  Uiso   1.00
C186   C     0.75000  -0.00000   0.08988   0.00000  Uiso   1.00
C187   C     0.50000   0.25000   0.91012   0.00000  Uiso   1.00
C188   C     0.50000   0.25000   0.08988   0.00000  Uiso   1.00
C189   C     0.57004   0.17996   0.25000   0.00000  Uiso   1.00
C190   C     0.92996   0.32004   0.75000   0.00000  Uiso   1.00
C191   C     0.67997   0.42996   0.25000   0.00000  Uiso   1.00
C192   C     0.50000   0.25000   0.97335   0.00000  Uiso   1.00
C193   C     0.82003   0.07004   0.75000   0.00000  Uiso   1.00
C194   C     0.92996   0.32004   0.25000   0.00000  Uiso   1.00
C195   C     0.57004   0.17996   0.75000   0.00000  Uiso   1.00
C196   C     0.82004   0.07003   0.25000   0.00000  Uiso   1.00
C197   C     0.67996   0.42997   0.75000   0.00000  Uiso   1.00
C198   C     0.57004   0.32003   0.75000   0.00000  Uiso   1.00
C199   C     0.92996   0.17997   0.25000   0.00000  Uiso   1.00
C200   C     0.67996   0.07004   0.75000   0.00000  Uiso   1.00
C201   C     0.82004   0.42996   0.25000   0.00000  Uiso   1.00
C202   C     0.92997   0.17996   0.75000   0.00000  Uiso   1.00
C203   C     0.75000  -0.00000   0.02665   0.00000  Uiso   1.00
C204   C     0.57003   0.32004   0.25000   0.00000  Uiso   1.00
C205   C     0.82004   0.42996   0.75000   0.00000  Uiso   1.00
C206   C     0.67996   0.07004   0.25000   0.00000  Uiso   1.00
C207   C     0.60251   0.37037   0.19926   0.00000  Uiso   1.00
C208   C     0.89749   0.12963   0.80074   0.00000  Uiso   1.00
C209   C     0.87000   0.39710   0.19904   0.00000  Uiso   1.00
C210   C     0.63000   0.10290   0.80096   0.00000  Uiso   1.00
C211   C     0.89748   0.12962   0.19926   0.00000  Uiso   1.00
C212   C     0.60252   0.37038   0.80075   0.00000  Uiso   1.00
C213   C     0.63000   0.10290   0.19904   0.00000  Uiso   1.00
C214   C     0.75000   0.00000   0.97335   0.00000  Uiso   1.00
C215   C     0.87000   0.39710   0.80096   0.00000  Uiso   1.00
C216   C     0.60290   0.13000   0.80096   0.00000  Uiso   1.00
C217   C     0.89710   0.37000   0.19904   0.00000  Uiso   1.00
C218   C     0.87038   0.10252   0.80075   0.00000  Uiso   1.00
C219   C     0.62962   0.39748   0.19926   0.00000  Uiso   1.00
C220   C     0.89710   0.37000   0.80096   0.00000  Uiso   1.00
C221   C     0.60290   0.13000   0.19904   0.00000  Uiso   1.00
C222   C     0.62963   0.39749   0.80074   0.00000  Uiso   1.00
C223   C     0.87037   0.10251   0.19926   0.00000  Uiso   1.00
C224   C     0.85251   0.12037   0.69926   0.00000  Uiso   1.00
C225   C     0.75000   0.00000   0.52665   0.00000  Uiso   1.00
C226   C     0.64749   0.37963   0.30074   0.00000  Uiso   1.00
C227   C     0.62000   0.14710   0.69904   0.00000  Uiso   1.00
C228   C     0.88000   0.35290   0.30096   0.00000  Uiso   1.00
C229   C     0.64748   0.37962   0.69926   0.00000  Uiso   1.00
C230   C     0.85252   0.12038   0.30075   0.00000  Uiso   1.00
C231   C     0.88000   0.35290   0.69904   0.00000  Uiso   1.00
C232   C     0.62000   0.14710   0.30096   0.00000  Uiso   1.00
C233   C     0.85290   0.38000   0.30096   0.00000  Uiso   1.00
C234   C     0.64710   0.12000   0.69904   0.00000  Uiso   1.00
C235   C     0.62038   0.35252   0.30075   0.00000  Uiso   1.00
C236   C     0.75000   0.00000   0.47335   0.00000  Uiso   1.00
C237   C     0.87962   0.14748   0.69926   0.00000  Uiso   1.00
C238   C     0.64710   0.12000   0.30096   0.00000  Uiso   1.00
C239   C     0.85290   0.38000   0.69904   0.00000  Uiso   1.00
C240   C     0.87963   0.14749   0.30074   0.00000  Uiso   1.00
C241   C     0.62037   0.35251   0.69926   0.00000  Uiso   1.00
C242   C     0.65191   0.40190   0.25000   0.00000  Uiso   1.00
C243   C     0.84809   0.09810   0.75000   0.00000  Uiso   1.00
C244   C     0.90190   0.34810   0.25000   0.00000  Uiso   1.00
C245   C     0.59810   0.15190   0.75000   0.00000  Uiso   1.00
C246   C     0.84810   0.09809   0.25000   0.00000  Uiso   1.00
C247   C     0.50000   0.25000   0.52665   0.00000  Uiso   1.00
C248   C     0.65190   0.40191   0.75000   0.00000  Uiso   1.00
C249   C     0.59810   0.15190   0.25000   0.00000  Uiso   1.00
C250   C     0.90190   0.34810   0.75000   0.00000  Uiso   1.00
C251   C     0.65190   0.09810   0.75000   0.00000  Uiso   1.00
C252   C     0.84810   0.40190   0.25000   0.00000  Uiso   1.00
C253   C     0.90191   0.15190   0.75000   0.00000  Uiso   1.00
C254   C     0.59809   0.34810   0.25000   0.00000  Uiso   1.00
C255   C     0.84810   0.40190   0.75000   0.00000  Uiso   1.00
C256   C     0.65190   0.09810   0.25000   0.00000  Uiso   1.00
C257   C     0.59810   0.34809   0.75000   0.00000  Uiso   1.00
C258   C     0.50000   0.25000   0.47335   0.00000  Uiso   1.00
C259   C     0.90190   0.15191   0.25000   0.00000  Uiso   1.00
C260   C     0.50000   0.25000   0.41012   0.00000  Uiso   1.00
I261   I     0.56686   0.36370   0.12399   0.00000  Uiso   1.00
I262   I     0.93220   0.36284   0.12338   0.00000  Uiso   1.00
I263   I     0.86371   0.06688   0.87601   0.00000  Uiso   1.00
I264   I     0.63629   0.43312   0.12399   0.00000  Uiso   1.00
I265   I     0.93221   0.36285   0.87663   0.00000  Uiso   1.00
I266   I     0.56779   0.13715   0.12337   0.00000  Uiso   1.00
I267   I     0.63630   0.43314   0.87601   0.00000  Uiso   1.00
I268   I     0.86370   0.06686   0.12399   0.00000  Uiso   1.00
I269   I     0.81686   0.11370   0.62399   0.00000  Uiso   1.00
I270   I     0.68314   0.38630   0.37601   0.00000  Uiso   1.00
I271   I     0.61284   0.18220   0.62338   0.00000  Uiso   1.00
I272   I     0.93314   0.13630   0.87601   0.00000  Uiso   1.00
I273   I     0.88716   0.31780   0.37662   0.00000  Uiso   1.00
I274   I     0.68312   0.38629   0.62399   0.00000  Uiso   1.00
I275   I     0.81688   0.11371   0.37601   0.00000  Uiso   1.00
I276   I     0.88715   0.31779   0.62338   0.00000  Uiso   1.00
I277   I     0.61285   0.18221   0.37663   0.00000  Uiso   1.00
I278   I     0.81780   0.38716   0.37662   0.00000  Uiso   1.00
I279   I     0.68220   0.11284   0.62338   0.00000  Uiso   1.00
I280   I     0.61371   0.31688   0.37601   0.00000  Uiso   1.00
I281   I     0.88629   0.18312   0.62399   0.00000  Uiso   1.00
I282   I     0.68221   0.11285   0.37663   0.00000  Uiso   1.00
I283   I     0.86284   0.43220   0.12338   0.00000  Uiso   1.00
I284   I     0.81779   0.38715   0.62338   0.00000  Uiso   1.00
I285   I     0.88630   0.18314   0.37601   0.00000  Uiso   1.00
I286   I     0.61370   0.31686   0.62399   0.00000  Uiso   1.00
I287   I     0.63716   0.06780   0.87662   0.00000  Uiso   1.00
I288   I     0.93312   0.13629   0.12399   0.00000  Uiso   1.00
I289   I     0.56688   0.36371   0.87601   0.00000  Uiso   1.00
I290   I     0.63715   0.06779   0.12337   0.00000  Uiso   1.00
I291   I     0.86285   0.43221   0.87663   0.00000  Uiso   1.00
I292   I     0.56780   0.13716   0.87662   0.00000  Uiso   1.00
O293   O     0.50000   0.25000   0.25000   0.00000  Uiso   1.00
O294   O     0.50000   0.28036   0.61781   0.00000  Uiso   1.00
O295   O     0.71965   0.00000   0.38219   0.00000  Uiso   1.00
O296   O     0.78036   0.00000   0.61781   0.00000  Uiso   1.00
O297   O     0.75000   0.03036   0.88219   0.00000  Uiso   1.00
O298   O     0.75000   0.46965   0.11781   0.00000  Uiso   1.00
O299   O     0.53036   0.25000   0.88219   0.00000  Uiso   1.00
O300   O     0.96965   0.25000   0.11781   0.00000  Uiso   1.00
O301   O     0.75000   0.46965   0.88219   0.00000  Uiso   1.00
O302   O     0.75000   0.03036   0.11781   0.00000  Uiso   1.00
O303   O     0.96965   0.25000   0.88219   0.00000  Uiso   1.00
O304   O     0.50000   0.25000   0.75000   0.00000  Uiso   1.00
O305   O     0.53036   0.25000   0.11781   0.00000  Uiso   1.00
O306   O     0.54268   0.17693   0.28474   0.00000  Uiso   1.00
O307   O     0.95733   0.32308   0.71526   0.00000  Uiso   1.00
O308   O     0.67693   0.45733   0.28474   0.00000  Uiso   1.00
O309   O     0.82308   0.04268   0.71526   0.00000  Uiso   1.00
O310   O     0.95733   0.32308   0.28474   0.00000  Uiso   1.00
O311   O     0.54268   0.17693   0.71526   0.00000  Uiso   1.00
O312   O     0.82308   0.04268   0.28474   0.00000  Uiso   1.00
O313   O     0.67693   0.45733   0.71526   0.00000  Uiso   1.00
O314   O     0.54268   0.32308   0.71526   0.00000  Uiso   1.00
O315   O     0.75000   0.00000   0.25000   0.00000  Uiso   1.00
O316   O     0.95733   0.17693   0.28474   0.00000  Uiso   1.00
O317   O     0.67693   0.04268   0.71526   0.00000  Uiso   1.00
O318   O     0.82308   0.45733   0.28474   0.00000  Uiso   1.00
O319   O     0.95733   0.17693   0.71526   0.00000  Uiso   1.00
O320   O     0.54268   0.32308   0.28474   0.00000  Uiso   1.00
O321   O     0.82308   0.45733   0.71526   0.00000  Uiso   1.00
O322   O     0.67693   0.04268   0.28474   0.00000  Uiso   1.00
O323   O     0.79268   0.42693   0.78474   0.00000  Uiso   1.00
O324   O     0.70733   0.07308   0.21526   0.00000  Uiso   1.00
O325   O     0.92693   0.20733   0.78474   0.00000  Uiso   1.00
O326   O     0.75000   0.00000   0.75000   0.00000  Uiso   1.00
O327   O     0.57308   0.29268   0.21526   0.00000  Uiso   1.00
O328   O     0.70733   0.07308   0.78474   0.00000  Uiso   1.00
O329   O     0.79268   0.42693   0.21526   0.00000  Uiso   1.00
O330   O     0.57308   0.29268   0.78474   0.00000  Uiso   1.00
O331   O     0.92693   0.20733   0.21526   0.00000  Uiso   1.00
O332   O     0.79268   0.07308   0.21526   0.00000  Uiso   1.00
O333   O     0.70733   0.42693   0.78474   0.00000  Uiso   1.00
O334   O     0.92693   0.29268   0.21526   0.00000  Uiso   1.00
O335   O     0.57308   0.20733   0.78474   0.00000  Uiso   1.00
O336   O     0.70733   0.42693   0.21526   0.00000  Uiso   1.00
O337   O     0.50000   0.28036   0.38219   0.00000  Uiso   1.00
O338   O     0.79268   0.07308   0.78474   0.00000  Uiso   1.00
O339   O     0.57308   0.20733   0.21526   0.00000  Uiso   1.00
O340   O     0.92693   0.29268   0.78474   0.00000  Uiso   1.00
O341   O     0.50000   0.21965   0.61781   0.00000  Uiso   1.00
O342   O     0.78036   0.00000   0.38219   0.00000  Uiso   1.00
O343   O     0.71965   0.00000   0.61781   0.00000  Uiso   1.00
O344   O     0.50000   0.21965   0.38219   0.00000  Uiso   1.00
Zn345  Zn    0.54333   0.25000   0.20067   0.00000  Uiso   1.00
Zn346  Zn    0.70667   0.00000   0.29933   0.00000  Uiso   1.00
Zn347  Zn    0.50000   0.20667   0.70067   0.00000  Uiso   1.00
Zn348  Zn    0.50000   0.29333   0.29933   0.00000  Uiso   1.00
Zn349  Zn    0.70667   0.00000   0.70067   0.00000  Uiso   1.00
Zn350  Zn    0.79333   0.00000   0.29933   0.00000  Uiso   1.00
Zn351  Zn    0.50000   0.29333   0.70067   0.00000  Uiso   1.00
Zn352  Zn    0.50000   0.20667   0.29933   0.00000  Uiso   1.00
Zn353  Zn    0.95667   0.25000   0.79933   0.00000  Uiso   1.00
Zn354  Zn    0.75000   0.45667   0.20067   0.00000  Uiso   1.00
Zn355  Zn    0.75000   0.04333   0.79933   0.00000  Uiso   1.00
Zn356  Zn    0.95667   0.25000   0.20067   0.00000  Uiso   1.00
Zn357  Zn    0.54333   0.25000   0.79933   0.00000  Uiso   1.00
Zn358  Zn    0.75000   0.04333   0.20067   0.00000  Uiso   1.00
Zn359  Zn    0.75000   0.45667   0.79933   0.00000  Uiso   1.00
Zn360  Zn    0.79333   0.00000   0.70067   0.00000  Uiso   1.00
C361   C    -0.00000   0.75000   0.02665   0.00000  Uiso   1.00
C362   C     0.00000   0.75000   0.58988   0.00000  Uiso   1.00
C363   C     0.25000   0.50000   0.41012   0.00000  Uiso   1.00
C364   C     0.25000   0.50000   0.58988   0.00000  Uiso   1.00
C365   C     0.25000   0.50000   0.91012   0.00000  Uiso   1.00
C366   C     0.25000   0.50000   0.08988   0.00000  Uiso   1.00
C367   C     0.00000   0.75000   0.91012   0.00000  Uiso   1.00
C368   C    -0.00000   0.75000   0.08988   0.00000  Uiso   1.00
C369   C     0.07004   0.67996   0.25000   0.00000  Uiso   1.00
C370   C     0.42996   0.82004   0.75000   0.00000  Uiso   1.00
C371   C     0.17997   0.92996   0.25000   0.00000  Uiso   1.00
C372   C     0.00000   0.75000   0.97335   0.00000  Uiso   1.00
C373   C     0.32003   0.57004   0.75000   0.00000  Uiso   1.00
C374   C     0.42996   0.82004   0.25000   0.00000  Uiso   1.00
C375   C     0.07004   0.67996   0.75000   0.00000  Uiso   1.00
C376   C     0.32004   0.57003   0.25000   0.00000  Uiso   1.00
C377   C     0.17996   0.92997   0.75000   0.00000  Uiso   1.00
C378   C     0.07004   0.82003   0.75000   0.00000  Uiso   1.00
C379   C     0.42996   0.67997   0.25000   0.00000  Uiso   1.00
C380   C     0.17996   0.57004   0.75000   0.00000  Uiso   1.00
C381   C     0.32004   0.92996   0.25000   0.00000  Uiso   1.00
C382   C     0.42997   0.67996   0.75000   0.00000  Uiso   1.00
C383   C     0.25000   0.50000   0.02665   0.00000  Uiso   1.00
C384   C     0.07003   0.82004   0.25000   0.00000  Uiso   1.00
C385   C     0.32004   0.92996   0.75000   0.00000  Uiso   1.00
C386   C     0.17996   0.57004   0.25000   0.00000  Uiso   1.00
C387   C     0.10251   0.87037   0.19926   0.00000  Uiso   1.00
C388   C     0.39749   0.62963   0.80074   0.00000  Uiso   1.00
C389   C     0.37000   0.89710   0.19904   0.00000  Uiso   1.00
C390   C     0.13000   0.60290   0.80096   0.00000  Uiso   1.00
C391   C     0.39748   0.62962   0.19926   0.00000  Uiso   1.00
C392   C     0.10252   0.87038   0.80075   0.00000  Uiso   1.00
C393   C     0.13000   0.60290   0.19904   0.00000  Uiso   1.00
C394   C     0.25000   0.50000   0.97335   0.00000  Uiso   1.00
C395   C     0.37000   0.89710   0.80096   0.00000  Uiso   1.00
C396   C     0.10290   0.63000   0.80096   0.00000  Uiso   1.00
C397   C     0.39710   0.87000   0.19904   0.00000  Uiso   1.00
C398   C     0.37038   0.60252   0.80075   0.00000  Uiso   1.00
C399   C     0.12962   0.89748   0.19926   0.00000  Uiso   1.00
C400   C     0.39710   0.87000   0.80096   0.00000  Uiso   1.00
C401   C     0.10290   0.63000   0.19904   0.00000  Uiso   1.00
C402   C     0.12963   0.89749   0.80074   0.00000  Uiso   1.00
C403   C     0.37037   0.60251   0.19926   0.00000  Uiso   1.00
C404   C     0.35251   0.62037   0.69926   0.00000  Uiso   1.00
C405   C     0.25000   0.50000   0.52665   0.00000  Uiso   1.00
C406   C     0.14749   0.87963   0.30074   0.00000  Uiso   1.00
C407   C     0.12000   0.64710   0.69904   0.00000  Uiso   1.00
C408   C     0.38000   0.85290   0.30096   0.00000  Uiso   1.00
C409   C     0.14748   0.87962   0.69926   0.00000  Uiso   1.00
C410   C     0.35252   0.62038   0.30075   0.00000  Uiso   1.00
C411   C     0.38000   0.85290   0.69904   0.00000  Uiso   1.00
C412   C     0.12000   0.64710   0.30096   0.00000  Uiso   1.00
C413   C     0.35290   0.88000   0.30096   0.00000  Uiso   1.00
C414   C     0.14710   0.62000   0.69904   0.00000  Uiso   1.00
C415   C     0.12038   0.85252   0.30075   0.00000  Uiso   1.00
C416   C     0.25000   0.50000   0.47335   0.00000  Uiso   1.00
C417   C     0.37962   0.64748   0.69926   0.00000  Uiso   1.00
C418   C     0.14710   0.62000   0.30096   0.00000  Uiso   1.00
C419   C     0.35290   0.88000   0.69904   0.00000  Uiso   1.00
C420   C     0.37963   0.64749   0.30074   0.00000  Uiso   1.00
C421   C     0.12037   0.85251   0.69926   0.00000  Uiso   1.00
C422   C     0.15191   0.90190   0.25000   0.00000  Uiso   1.00
C423   C     0.34809   0.59810   0.75000   0.00000  Uiso   1.00
C424   C     0.40190   0.84810   0.25000   0.00000  Uiso   1.00
C425   C     0.09810   0.65190   0.75000   0.00000  Uiso   1.00
C426   C     0.34810   0.59809   0.25000   0.00000  Uiso   1.00
C427   C     0.00000   0.75000   0.52665   0.00000  Uiso   1.00
C428   C     0.15190   0.90191   0.75000   0.00000  Uiso   1.00
C429   C     0.09810   0.65190   0.25000   0.00000  Uiso   1.00
C430   C     0.40190   0.84810   0.75000   0.00000  Uiso   1.00
C431   C     0.15190   0.59810   0.75000   0.00000  Uiso   1.00
C432   C     0.34810   0.90190   0.25000   0.00000  Uiso   1.00
C433   C     0.40191   0.65190   0.75000   0.00000  Uiso   1.00
C434   C     0.09809   0.84810   0.25000   0.00000  Uiso   1.00
C435   C     0.34810   0.90190   0.75000   0.00000  Uiso   1.00
C436   C     0.15190   0.59810   0.25000   0.00000  Uiso   1.00
C437   C     0.09810   0.84809   0.75000   0.00000  Uiso   1.00
C438   C     0.00000   0.75000   0.47335   0.00000  Uiso   1.00
C439   C     0.40190   0.65191   0.25000   0.00000  Uiso   1.00
C440   C     0.00000   0.75000   0.41012   0.00000  Uiso   1.00
I441   I     0.06686   0.86370   0.12399   0.00000  Uiso   1.00
I442   I     0.43220   0.86284   0.12338   0.00000  Uiso   1.00
I443   I     0.36371   0.56688   0.87601   0.00000  Uiso   1.00
I444   I     0.13629   0.93312   0.12399   0.00000  Uiso   1.00
I445   I     0.43221   0.86285   0.87663   0.00000  Uiso   1.00
I446   I     0.06779   0.63715   0.12337   0.00000  Uiso   1.00
I447   I     0.13630   0.93314   0.87601   0.00000  Uiso   1.00
I448   I     0.36370   0.56686   0.12399   0.00000  Uiso   1.00
I449   I     0.31686   0.61370   0.62399   0.00000  Uiso   1.00
I450   I     0.18314   0.88630   0.37601   0.00000  Uiso   1.00
I451   I     0.11284   0.68220   0.62338   0.00000  Uiso   1.00
I452   I     0.43314   0.63630   0.87601   0.00000  Uiso   1.00
I453   I     0.38716   0.81780   0.37662   0.00000  Uiso   1.00
I454   I     0.18312   0.88629   0.62399   0.00000  Uiso   1.00
I455   I     0.31688   0.61371   0.37601   0.00000  Uiso   1.00
I456   I     0.38715   0.81779   0.62338   0.00000  Uiso   1.00
I457   I     0.11285   0.68221   0.37663   0.00000  Uiso   1.00
I458   I     0.31780   0.88716   0.37662   0.00000  Uiso   1.00
I459   I     0.18220   0.61284   0.62338   0.00000  Uiso   1.00
I460   I     0.11371   0.81688   0.37601   0.00000  Uiso   1.00
I461   I     0.38629   0.68312   0.62399   0.00000  Uiso   1.00
I462   I     0.18221   0.61285   0.37663   0.00000  Uiso   1.00
I463   I     0.36284   0.93220   0.12338   0.00000  Uiso   1.00
I464   I     0.31779   0.88715   0.62338   0.00000  Uiso   1.00
I465   I     0.38630   0.68314   0.37601   0.00000  Uiso   1.00
I466   I     0.11370   0.81686   0.62399   0.00000  Uiso   1.00
I467   I     0.13716   0.56780   0.87662   0.00000  Uiso   1.00
I468   I     0.43312   0.63629   0.12399   0.00000  Uiso   1.00
I469   I     0.06688   0.86371   0.87601   0.00000  Uiso   1.00
I470   I     0.13715   0.56779   0.12337   0.00000  Uiso   1.00
I471   I     0.36285   0.93221   0.87663   0.00000  Uiso   1.00
I472   I     0.06780   0.63716   0.87662   0.00000  Uiso   1.00
O473   O     0.00000   0.75000   0.25000   0.00000  Uiso   1.00
O474   O     0.00000   0.78036   0.61781   0.00000  Uiso   1.00
O475   O     0.21965   0.50000   0.38219   0.00000  Uiso   1.00
O476   O     0.28036   0.50000   0.61781   0.00000  Uiso   1.00
O477   O     0.25000   0.53036   0.88219   0.00000  Uiso   1.00
O478   O     0.25000   0.96965   0.11781   0.00000  Uiso   1.00
O479   O     0.03036   0.75000   0.88219   0.00000  Uiso   1.00
O480   O     0.46965   0.75000   0.11781   0.00000  Uiso   1.00
O481   O     0.25000   0.96965   0.88219   0.00000  Uiso   1.00
O482   O     0.25000   0.53036   0.11781   0.00000  Uiso   1.00
O483   O     0.46965   0.75000   0.88219   0.00000  Uiso   1.00
O484   O     0.00000   0.75000   0.75000   0.00000  Uiso   1.00
O485   O     0.03036   0.75000   0.11781   0.00000  Uiso   1.00
O486   O     0.04268   0.67693   0.28474   0.00000  Uiso   1.00
O487   O     0.45733   0.82308   0.71526   0.00000  Uiso   1.00
O488   O     0.17693   0.95733   0.28474   0.00000  Uiso   1.00
O489   O     0.32308   0.54268   0.71526   0.00000  Uiso   1.00
O490   O     0.45733   0.82308   0.28474   0.00000  Uiso   1.00
O491   O     0.04268   0.67693   0.71526   0.00000  Uiso   1.00
O492   O     0.32308   0.54268   0.28474   0.00000  Uiso   1.00
O493   O     0.17693   0.95733   0.71526   0.00000  Uiso   1.00
O494   O     0.04268   0.82308   0.71526   0.00000  Uiso   1.00
O495   O     0.25000   0.50000   0.25000   0.00000  Uiso   1.00
O496   O     0.45733   0.67693   0.28474   0.00000  Uiso   1.00
O497   O     0.17693   0.54268   0.71526   0.00000  Uiso   1.00
O498   O     0.32308   0.95733   0.28474   0.00000  Uiso   1.00
O499   O     0.45733   0.67693   0.71526   0.00000  Uiso   1.00
O500   O     0.04268   0.82308   0.28474   0.00000  Uiso   1.00
O501   O     0.32308   0.95733   0.71526   0.00000  Uiso   1.00
O502   O     0.17693   0.54268   0.28474   0.00000  Uiso   1.00
O503   O     0.29268   0.92693   0.78474   0.00000  Uiso   1.00
O504   O     0.20733   0.57308   0.21526   0.00000  Uiso   1.00
O505   O     0.42693   0.70733   0.78474   0.00000  Uiso   1.00
O506   O     0.25000   0.50000   0.75000   0.00000  Uiso   1.00
O507   O     0.07308   0.79268   0.21526   0.00000  Uiso   1.00
O508   O     0.20733   0.57308   0.78474   0.00000  Uiso   1.00
O509   O     0.29268   0.92693   0.21526   0.00000  Uiso   1.00
O510   O     0.07308   0.79268   0.78474   0.00000  Uiso   1.00
O511   O     0.42693   0.70733   0.21526   0.00000  Uiso   1.00
O512   O     0.29268   0.57308   0.21526   0.00000  Uiso   1.00
O513   O     0.20733   0.92693   0.78474   0.00000  Uiso   1.00
O514   O     0.42693   0.79268   0.21526   0.00000  Uiso   1.00
O515   O     0.07308   0.70733   0.78474   0.00000  Uiso   1.00
O516   O     0.20733   0.92693   0.21526   0.00000  Uiso   1.00
O517   O     0.00000   0.78036   0.38219   0.00000  Uiso   1.00
O518   O     0.29268   0.57308   0.78474   0.00000  Uiso   1.00
O519   O     0.07308   0.70733   0.21526   0.00000  Uiso   1.00
O520   O     0.42693   0.79268   0.78474   0.00000  Uiso   1.00
O521   O     0.00000   0.71965   0.61781   0.00000  Uiso   1.00
O522   O     0.28036   0.50000   0.38219   0.00000  Uiso   1.00
O523   O     0.21965   0.50000   0.61781   0.00000  Uiso   1.00
O524   O     0.00000   0.71965   0.38219   0.00000  Uiso   1.00
Zn525  Zn    0.04333   0.75000   0.20067   0.00000  Uiso   1.00
Zn526  Zn    0.20667   0.50000   0.29933   0.00000  Uiso   1.00
Zn527  Zn    0.00000   0.70667   0.70067   0.00000  Uiso   1.00
Zn528  Zn    0.00000   0.79333   0.29933   0.00000  Uiso   1.00
Zn529  Zn    0.20667   0.50000   0.70067   0.00000  Uiso   1.00
Zn530  Zn    0.29333   0.50000   0.29933   0.00000  Uiso   1.00
Zn531  Zn    0.00000   0.79333   0.70067   0.00000  Uiso   1.00
Zn532  Zn    0.00000   0.70667   0.29933   0.00000  Uiso   1.00
Zn533  Zn    0.45667   0.75000   0.79933   0.00000  Uiso   1.00
Zn534  Zn    0.25000   0.95667   0.20067   0.00000  Uiso   1.00
Zn535  Zn    0.25000   0.54333   0.79933   0.00000  Uiso   1.00
Zn536  Zn    0.45667   0.75000   0.20067   0.00000  Uiso   1.00
Zn537  Zn    0.04333   0.75000   0.79933   0.00000  Uiso   1.00
Zn538  Zn    0.25000   0.54333   0.20067   0.00000  Uiso   1.00
Zn539  Zn    0.25000   0.95667   0.79933   0.00000  Uiso   1.00
Zn540  Zn    0.29333   0.50000   0.70067   0.00000  Uiso   1.00
C541   C     0.50000   0.75000   0.02665   0.00000  Uiso   1.00
C542   C     0.50000   0.75000   0.58988   0.00000  Uiso   1.00
C543   C     0.75000   0.50000   0.41012   0.00000  Uiso   1.00
C544   C     0.75000   0.50000   0.58988   0.00000  Uiso   1.00
C545   C     0.75000   0.50000   0.91012   0.00000  Uiso   1.00
C546   C     0.75000   0.50000   0.08988   0.00000  Uiso   1.00
C547   C     0.50000   0.75000   0.91012   0.00000  Uiso   1.00
C548   C     0.50000   0.75000   0.08988   0.00000  Uiso   1.00
C549   C     0.57004   0.67996   0.25000   0.00000  Uiso   1.00
C550   C     0.92996   0.82004   0.75000   0.00000  Uiso   1.00
C551   C     0.67997   0.92996   0.25000   0.00000  Uiso   1.00
C552   C     0.50000   0.75000   0.97335   0.00000  Uiso   1.00
C553   C     0.82003   0.57004   0.75000   0.00000  Uiso   1.00
C554   C     0.92996   0.82004   0.25000   0.00000  Uiso   1.00
C555   C     0.57004   0.67996   0.75000   0.00000  Uiso   1.00
C556   C     0.82004   0.57003   0.25000   0.00000  Uiso   1.00
C557   C     0.67996   0.92997   0.75000   0.00000  Uiso   1.00
C558   C     0.57004   0.82003   0.75000   0.00000  Uiso   1.00
C559   C     0.92996   0.67997   0.25000   0.00000  Uiso   1.00
C560   C     0.67996   0.57004   0.75000   0.00000  Uiso   1.00
C561   C     0.82004   0.92996   0.25000   0.00000  Uiso   1.00
C562   C     0.92997   0.67996   0.75000   0.00000  Uiso   1.00
C563   C     0.75000   0.50000   0.02665   0.00000  Uiso   1.00
C564   C     0.57003   0.82004   0.25000   0.00000  Uiso   1.00
C565   C     0.82004   0.92996   0.75000   0.00000  Uiso   1.00
C566   C     0.67996   0.57004   0.25000   0.00000  Uiso   1.00
C567   C     0.60251   0.87037   0.19926   0.00000  Uiso   1.00
C568   C     0.89749   0.62963   0.80074   0.00000  Uiso   1.00
C569   C     0.87000   0.89710   0.19904   0.00000  Uiso   1.00
C570   C     0.63000   0.60290   0.80096   0.00000  Uiso   1.00
C571   C     0.89748   0.62962   0.19926   0.00000  Uiso   1.00
C572   C     0.60252   0.87038   0.80075   0.00000  Uiso   1.00
C573   C     0.63000   0.60290   0.19904   0.00000  Uiso   1.00
C574   C     0.75000   0.50000   0.97335   0.00000  Uiso   1.00
C575   C     0.87000   0.89710   0.80096   0.00000  Uiso   1.00
C576   C     0.60290   0.63000   0.80096   0.00000  Uiso   1.00
C577   C     0.89710   0.87000   0.19904   0.00000  Uiso   1.00
C578   C     0.87038   0.60252   0.80075   0.00000  Uiso   1.00
C579   C     0.62962   0.89748   0.19926   0.00000  Uiso   1.00
C580   C     0.89710   0.87000   0.80096   0.00000  Uiso   1.00
C581   C     0.60290   0.63000   0.19904   0.00000  Uiso   1.00
C582   C     0.62963   0.89749   0.80074   0.00000  Uiso   1.00
C583   C     0.87037   0.60251   0.19926   0.00000  Uiso   1.00
C584   C     0.85251   0.62037   0.69926   0.00000  Uiso   1.00
C585   C     0.75000   0.50000   0.52665   0.00000  Uiso   1.00
C586   C     0.64749   0.87963   0.30074   0.00000  Uiso   1.00
C587   C     0.62000   0.64710   0.69904   0.00000  Uiso   1.00
C588   C     0.88000   0.85290   0.30096   0.00000  Uiso   1.00
C589   C     0.64748   0.87962   0.69926   0.00000  Uiso   1.00
C590   C     0.85252   0.62038   0.30075   0.00000  Uiso   1.00
C591   C     0.88000   0.85290   0.69904   0.00000  Uiso   1.00
C592   C     0.62000   0.64710   0.30096   0.00000  Uiso   1.00
C593   C     0.85290   0.88000   0.30096   0.00000  Uiso   1.00
C594   C     0.64710   0.62000   0.69904   0.00000  Uiso   1.00
C595   C     0.62038   0.85252   0.30075   0.00000  Uiso   1.00
C596   C     0.75000   0.50000   0.47335   0.00000  Uiso   1.00
C597   C     0.87962   0.64748   0.69926   0.00000  Uiso   1.00
C598   C     0.64710   0.62000   0.30096   0.00000  Uiso   1.00
C599   C     0.85290   0.88000   0.69904   0.00000  Uiso   1.00
C600   C     0.87963   0.64749   0.30074   0.00000  Uiso   1.00
C601   C     0.62037   0.85251   0.69926   0.00000  Uiso   1.00
C602   C     0.65191   0.90190   0.25000   0.00000  Uiso   1.00
C603   C     0.84809   0.59810   0.75000   0.00000  Uiso   1.00
C604   C     0.90190   0.84810   0.25000   0.00000  Uiso   1.00
C605   C     0.59810   0.65190   0.75000   0.00000  Uiso   1.00
C606   C     0.84810   0.59809   0.25000   0.00000  Uiso   1.00
C607   C     0.50000   0.75000   0.52665   0.00000  Uiso   1.00
C608   C     0.65190   0.90191   0.75000   0.00000  Uiso   1.00
C609   C     0.59810   0.65190   0.25000   0.00000  Uiso   1.00
C610   C     0.90190   0.84810   0.75000   0.00000  Uiso   1.00
C611   C     0.65190   0.59810   0.75000   0.00000  Uiso   1.00
C612   C     0.84810   0.90190   0.25000   0.00000  Uiso   1.00
C613   C     0.90191   0.65190   0.75000   0.00000  Uiso   1.00
C614   C     0.59809   0.84810   0.25000   0.00000  Uiso   1.00
C615   C     0.84810   0.90190   0.75000   0.00000  Uiso   1.00
C616   C     0.65190   0.59810   0.25000   0.00000  Uiso   1.00
C617   C     0.59810   0.84809   0.75000   0.00000  Uiso   1.00
C618   C     0.50000   0.75000   0.47335   0.00000  Uiso   1.00
C619   C     0.90190   0.65191   0.25000   0.00000  Uiso   1.00
C620   C     0.50000   0.75000   0.41012   0.00000  Uiso   1.00
I621   I     0.56686   0.86370   0.12399   0.00000  Uiso   1.00
I622   I     0.93220   0.86284   0.12338   0.00000  Uiso   1.00
I623   I     0.86371   0.56688   0.87601   0.00000  Uiso   1.00
I624   I     0.63629   0.93312   0.12399   0.00000  Uiso   1.00
I625   I     0.93221   0.86285   0.87663   0.00000  Uiso   1.00
I626   I     0.56779   0.63715   0.12337   0.00000  Uiso   1.00
I627   I     0.63630   0.93314   0.87601   0.00000  Uiso   1.00
I628   I     0.86370   0.56686   0.12399   0.00000  Uiso   1.00
I629   I     0.81686   0.61370   0.62399   0.00000  Uiso   1.00
I630   I     0.68314   0.88630   0.37601   0.00000  Uiso   1.00
I631   I     0.61284   0.68220   0.62338   0.00000  Uiso   1.00
I632   I     0.93314   0.63630   0.87601   0.00000  Uiso   1.00
I633   I     0.88716   0.81780   0.37662   0.00000  Uiso   1.00
I634   I     0.68312   0.88629   0.62399   0.00000  Uiso   1.00
I635   I     0.81688   0.61371   0.37601   0.00000  Uiso   1.00
I636   I     0.88715   0.81779   0.62338   0.00000  Uiso   1.00
I637   I     0.61285   0.68221   0.37663   0.00000  Uiso   1.00
I638   I     0.81780   0.88716   0.37662   0.00000  Uiso   1.00
I639   I     0.68220   0.61284   0.62338   0.00000  Uiso   1.00
I640   I     0.61371   0.81688   0.37601   0.00000  Uiso   1.00
I641   I     0.88629   0.68312   0.62399   0.00000  Uiso   1.00
I642   I     0.68221   0.61285   0.37663   0.00000  Uiso   1.00
I643   I     0.86284   0.93220   0.12338   0.00000  Uiso   1.00
I644   I     0.81779   0.88715   0.62338   0.00000  Uiso   1.00
I645   I     0.88630   0.68314   0.37601   0.00000  Uiso   1.00
I646   I     0.61370   0.81686   0.62399   0.00000  Uiso   1.00
I647   I     0.63716   0.56780   0.87662   0.00000  Uiso   1.00
I648   I     0.93312   0.63629   0.12399   0.00000  Uiso   1.00
I649   I     0.56688   0.86371   0.87601   0.00000  Uiso   1.00
I650   I     0.63715   0.56779   0.12337   0.00000  Uiso   1.00
I651   I     0.86285   0.93221   0.87663   0.00000  Uiso   1.00
I652   I     0.56780   0.63716   0.87662   0.00000  Uiso   1.00
O653   O     0.50000   0.75000   0.25000   0.00000  Uiso   1.00
O654   O     0.50000   0.78036   0.61781   0.00000  Uiso   1.00
O655   O     0.71965   0.50000   0.38219   0.00000  Uiso   1.00
O656   O     0.78036   0.50000   0.61781   0.00000  Uiso   1.00
O657   O     0.75000   0.53036   0.88219   0.00000  Uiso   1.00
O658   O     0.75000   0.96965   0.11781   0.00000  Uiso   1.00
O659   O     0.53036   0.75000   0.88219   0.00000  Uiso   1.00
O660   O     0.96965   0.75000   0.11781   0.00000  Uiso   1.00
O661   O     0.75000   0.96965   0.88219   0.00000  Uiso   1.00
O662   O     0.75000   0.53036   0.11781   0.00000  Uiso   1.00
O663   O     0.96965   0.75000   0.88219   0.00000  Uiso   1.00
O664   O     0.50000   0.75000   0.75000   0.00000  Uiso   1.00
O665   O     0.53036   0.75000   0.11781   0.00000  Uiso   1.00
O666   O     0.54268   0.67693   0.28474   0.00000  Uiso   1.00
O667   O     0.95733   0.82308   0.71526   0.00000  Uiso   1.00
O668   O     0.67693   0.95733   0.28474   0.00000  Uiso   1.00
O669   O     0.82308   0.54268   0.71526   0.00000  Uiso   1.00
O670   O     0.95733   0.82308   0.28474   0.00000  Uiso   1.00
O671   O     0.54268   0.67693   0.71526   0.00000  Uiso   1.00
O672   O     0.82308   0.54268   0.28474   0.00000  Uiso   1.00
O673   O     0.67693   0.95733   0.71526   0.00000  Uiso   1.00
O674   O     0.54268   0.82308   0.71526   0.00000  Uiso   1.00
O675   O     0.75000   0.50000   0.25000   0.00000  Uiso   1.00
O676   O     0.95733   0.67693   0.28474   0.00000  Uiso   1.00
O677   O     0.67693   0.54268   0.71526   0.00000  Uiso   1.00
O678   O     0.82308   0.95733   0.28474   0.00000  Uiso   1.00
O679   O     0.95733   0.67693   0.71526   0.00000  Uiso   1.00
O680   O     0.54268   0.82308   0.28474   0.00000  Uiso   1.00
O681   O     0.82308   0.95733   0.71526   0.00000  Uiso   1.00
O682   O     0.67693   0.54268   0.28474   0.00000  Uiso   1.00
O683   O     0.79268   0.92693   0.78474   0.00000  Uiso   1.00
O684   O     0.70733   0.57308   0.21526   0.00000  Uiso   1.00
O685   O     0.92693   0.70733   0.78474   0.00000  Uiso   1.00
O686   O     0.75000   0.50000   0.75000   0.00000  Uiso   1.00
O687   O     0.57308   0.79268   0.21526   0.00000  Uiso   1.00
O688   O     0.70733   0.57308   0.78474   0.00000  Uiso   1.00
O689   O     0.79268   0.92693   0.21526   0.00000  Uiso   1.00
O690   O     0.57308   0.79268   0.78474   0.00000  Uiso   1.00
O691   O     0.92693   0.70733   0.21526   0.00000  Uiso   1.00
O692   O     0.79268   0.57308   0.21526   0.00000  Uiso   1.00
O693   O     0.70733   0.92693   0.78474   0.00000  Uiso   1.00
O694   O     0.92693   0.79268   0.21526   0.00000  Uiso   1.00
O695   O     0.57308   0.70733   0.78474   0.00000  Uiso   1.00
O696   O     0.70733   0.92693   0.21526   0.00000  Uiso   1.00
O697   O     0.50000   0.78036   0.38219   0.00000  Uiso   1.00
O698   O     0.79268   0.57308   0.78474   0.00000  Uiso   1.00
O699   O     0.57308   0.70733   0.21526   0.00000  Uiso   1.00
O700   O     0.92693   0.79268   0.78474   0.00000  Uiso   1.00
O701   O     0.50000   0.71965   0.61781   0.00000  Uiso   1.00
O702   O     0.78036   0.50000   0.38219   0.00000  Uiso   1.00
O703   O     0.71965   0.50000   0.61781   0.00000  Uiso   1.00
O704   O     0.50000   0.71965   0.38219   0.00000  Uiso   1.00
Zn705  Zn    0.54333   0.75000   0.20067   0.00000  Uiso   1.00
Zn706  Zn    0.70667   0.50000   0.29933   0.00000  Uiso   1.00
Zn707  Zn    0.50000   0.70667   0.70067   0.00000  Uiso   1.00
Zn708  Zn    0.50000   0.79333   0.29933   0.00000  Uiso   1.00
Zn709  Zn    0.70667   0.50000   0.70067   0.00000  Uiso   1.00
Zn710  Zn    0.79333   0.50000   0.29933   0.00000  Uiso   1.00
Zn711  Zn    0.50000   0.79333   0.70067   0.00000  Uiso   1.00
Zn712  Zn    0.50000   0.70667   0.29933   0.00000  Uiso   1.00
Zn713  Zn    0.95667   0.75000   0.79933   0.00000  Uiso   1.00
Zn714  Zn    0.75000   0.95667   0.20067   0.00000  Uiso   1.00
Zn715  Zn    0.75000   0.54333   0.79933   0.00000  Uiso   1.00
Zn716  Zn    0.95667   0.75000   0.20067   0.00000  Uiso   1.00
Zn717  Zn    0.54333   0.75000   0.79933   0.00000  Uiso   1.00
Zn718  Zn    0.75000   0.54333   0.20067   0.00000  Uiso   1.00
Zn719  Zn    0.75000   0.95667   0.79933   0.00000  Uiso   1.00
Zn720  Zn    0.79333   0.50000   0.70067   0.00000  Uiso   1.00
loop_
_geom_bond_atom_site_label_1
_geom_bond_atom_site_label_2
_geom_bond_distance
_geom_bond_site_symmetry_2
_ccdc_geom_bond_type
C1     C8      1.418   .     S
C1     C12     1.196   1_554 S
C2     C67     1.418   .     S
C2     O114    1.275   .     S
C2     O161    1.275   .     S
C3     C56     1.418   .     S
C3     O115    1.275   .     S
C3     O162    1.275   .     S
C4     C45     1.418   .     S
C4     O163    1.275   .     A
C4     O116    1.275   .     A
C5     C34     1.418   .     S
C5     O117    1.275   .     A
C5     O481    1.275   1_545 S
C6     C23     1.418   .     S
C6     O478    1.275   1_545 A
C6     O122    1.275   .     S
C7     O119    1.275   .     A
C7     C12     1.418   .     S
C7     O303    1.275   1_455 S
C8     O300    1.275   1_455 A
C8     O125    1.275   .     S
C9     C69     1.451   .     S
C9     O159    1.273   .     A
C9     O126    1.273   .     A
C10    O160    1.273   .     A
C10    C70     1.451   .     S
C10    O127    1.273   .     A
C11    C62     1.451   .     S
C11    O156    1.273   .     A
C11    O128    1.273   .     A
C12    C1      1.196   1_556 S
C13    C63     1.451   .     S
C13    O158    1.273   .     A
C13    O129    1.273   .     A
C14    C64     1.451   .     S
C14    O130    1.273   .     A
C14    O154    1.273   .     A
C15    O131    1.273   .     A
C15    O155    1.273   .     A
C15    C65     1.451   .     S
C16    O152    1.273   .     A
C16    O132    1.273   .     A
C16    C66     1.451   .     S
C17    O153    1.273   .     A
C17    O133    1.273   .     A
C17    C68     1.451   .     S
C18    C77     1.451   .     S
C18    O150    1.273   .     A
C18    O134    1.273   .     A
C19    O136    1.273   .     A
C19    O151    1.273   .     A
C19    C79     1.451   .     S
C20    O148    1.273   .     A
C20    C71     1.451   .     S
C20    O137    1.273   .     A
C21    O138    1.273   .     A
C21    C72     1.451   .     S
C21    O149    1.273   .     A
C22    O139    1.273   .     A
C22    O145    1.273   .     A
C22    C73     1.451   .     S
C23    C34     1.196   1_554 S
C24    O140    1.273   .     A
C24    O147    1.273   .     A
C24    C74     1.451   .     S
C25    O143    1.273   .     A
C25    C75     1.451   .     S
C25    O141    1.273   .     A
C26    C76     1.451   .     S
C26    O144    1.273   .     A
C26    O142    1.273   .     A
C27    C74     1.409   .     A
C27    I81     2.147   .     S
C27    C39     1.402   .     A
C28    C73     1.409   .     A
C28    C38     1.402   .     A
C28    I92     2.147   .     S
C29    I103    2.144   .     S
C29    C72     1.407   .     A
C29    C37     1.402   .     A
C30    I107    2.144   .     S
C30    C71     1.407   .     A
C30    C36     1.402   .     A
C31    C43     1.402   .     A
C31    I108    2.147   .     S
C31    C79     1.409   .     A
C32    C77     1.409   .     A
C32    I109    2.147   .     S
C32    C42     1.402   .     A
C33    C76     1.407   .     A
C33    C41     1.402   .     A
C33    I110    2.144   .     S
C34    C23     1.196   1_556 S
C35    C75     1.407   .     A
C35    I111    2.144   .     S
C35    C40     1.402   .     A
C36    I112    2.144   .     S
C36    C65     1.407   .     A
C37    C64     1.407   .     A
C37    I82     2.144   .     S
C38    I83     2.147   .     S
C38    C63     1.409   .     A
C39    I84     2.147   .     S
C39    C62     1.409   .     A
C40    C70     1.407   .     A
C40    I85     2.144   .     S
C41    I86     2.144   .     S
C41    C69     1.407   .     A
C42    C68     1.409   .     A
C42    I87     2.147   .     S
C43    I88     2.147   .     S
C43    C66     1.409   .     A
C44    C63     1.409   .     A
C44    C57     1.402   .     A
C44    I89     2.147   .     S
C45    C56     1.196   .     S
C46    C62     1.409   .     A
C46    C55     1.402   .     A
C46    I90     2.147   .     S
C47    I91     2.144   .     S
C47    C54     1.402   .     A
C47    C65     1.407   .     A
C48    C64     1.407   .     A
C48    I93     2.144   .     S
C48    C53     1.402   .     A
C49    C68     1.409   .     A
C49    I94     2.147   .     S
C49    C61     1.402   .     A
C50    I95     2.147   .     S
C50    C66     1.409   .     A
C50    C60     1.402   .     A
C51    C70     1.407   .     A
C51    I96     2.144   .     S
C51    C59     1.402   .     A
C52    I97     2.144   .     S
C52    C69     1.407   .     A
C52    C58     1.402   .     A
C53    I98     2.144   .     S
C53    C72     1.407   .     A
C54    C71     1.407   .     A
C54    I99     2.144   .     S
C55    C74     1.409   .     A
C55    I100    2.147   .     S
C57    C73     1.409   .     A
C57    I101    2.147   .     S
C58    C76     1.407   .     A
C58    I102    2.144   .     S
C59    I104    2.144   .     S
C59    C75     1.407   .     A
C60    C79     1.409   .     A
C60    I105    2.147   .     S
C61    C77     1.409   .     A
C61    I106    2.147   .     S
C67    C78     1.196   .     T
C78    C80     1.418   .     S
C80    O157    1.275   .     A
C80    O164    1.275   .     S
O113   Zn168   1.933   .     S
O113   Zn356   1.933   1_455 S
O113   Zn165   1.933   .     S
O113   Zn172   1.933   .     S
O114   Zn171   1.919   .     S
O115   Zn166   1.919   .     S
O116   Zn180   1.919   .     S
O117   Zn175   1.919   .     S
O118   C366    1.275   .     A
O118   Zn174   1.919   .     S
O119   Zn177   1.919   .     S
O120   Zn176   1.919   .     S
O120   C188    1.275   .     A
O121   Zn179   1.919   .     S
O121   C365    1.275   .     S
O122   Zn178   1.919   .     S
O123   Zn173   1.919   .     S
O123   C187    1.275   .     S
O124   Zn167   1.933   .     S
O124   Zn177   1.933   .     S
O124   Zn171   1.933   .     S
O124   Zn353   1.933   1_455 S
O125   Zn165   1.919   .     S
O126   Zn172   1.931   .     S
O127   Zn351   1.931   .     S
O128   Zn526   1.930   .     S
O129   Zn180   1.930   .     S
O130   Zn348   1.931   .     S
O131   Zn167   1.931   .     S
O132   Zn170   1.930   .     S
O133   Zn529   1.930   .     S
O134   Zn171   1.930   .     S
O135   Zn170   1.933   .     S
O135   Zn178   1.933   .     S
O135   Zn166   1.933   .     S
O135   Zn534   1.933   1_545 S
O136   Zn352   1.930   .     S
O137   Zn169   1.931   .     S
O138   Zn530   1.931   .     S
O139   Zn347   1.930   .     S
O140   Zn168   1.930   .     S
O141   Zn540   1.931   .     S
O142   Zn166   1.931   .     S
O143   Zn179   1.931   .     S
O144   Zn178   1.931   .     S
O145   Zn173   1.930   .     S
O146   Zn175   1.933   .     S
O146   Zn180   1.933   .     S
O146   Zn169   1.933   .     S
O146   Zn539   1.933   1_545 S
O147   Zn165   1.930   .     S
O148   Zn175   1.931   .     S
O149   Zn174   1.931   .     S
O150   Zn177   1.930   .     S
O151   Zn176   1.930   .     S
O152   Zn178   1.930   .     S
O153   Zn179   1.930   .     S
O154   Zn176   1.931   .     S
O155   Zn177   1.931   .     S
O156   Zn174   1.930   .     S
O157   Zn168   1.919   .     S
O158   Zn175   1.930   .     S
O159   Zn165   1.931   .     S
O160   Zn173   1.931   .     S
O161   Zn167   1.919   .     S
O162   Zn170   1.919   .     S
O163   Zn169   1.919   .     S
O164   Zn172   1.919   .     S
Zn166  O488    1.930   1_545 S
Zn167  O319    1.930   1_455 S
Zn168  O310    1.931   1_455 S
Zn169  O493    1.930   1_545 S
Zn170  O498    1.931   1_545 S
Zn171  O307    1.931   1_455 S
Zn172  O316    1.930   1_455 S
Zn173  O304    1.933   .     S
Zn174  O495    1.933   .     S
Zn176  O293    1.933   .     S
Zn179  O506    1.933   .     S
Zn180  O501    1.931   1_545 S
C181   C188    1.418   .     S
C181   C192    1.196   1_554 S
C182   C247    1.418   .     S
C182   O294    1.275   .     S
C182   O341    1.275   .     S
C183   C236    1.418   .     S
C183   O295    1.275   .     S
C183   O342    1.275   .     S
C184   C225    1.418   .     S
C184   O343    1.275   .     A
C184   O296    1.275   .     A
C185   C214    1.418   .     S
C185   O297    1.275   .     A
C185   O661    1.275   1_545 S
C186   C203    1.418   .     S
C186   O658    1.275   1_545 A
C186   O302    1.275   .     S
C187   O299    1.275   .     A
C187   C192    1.418   .     S
C188   O305    1.275   .     S
C189   C249    1.451   .     S
C189   O339    1.273   .     A
C189   O306    1.273   .     A
C190   O340    1.273   .     A
C190   C250    1.451   .     S
C190   O307    1.273   .     A
C191   C242    1.451   .     S
C191   O336    1.273   .     A
C191   O308    1.273   .     A
C192   C181    1.196   1_556 S
C193   C243    1.451   .     S
C193   O338    1.273   .     A
C193   O309    1.273   .     A
C194   C244    1.451   .     S
C194   O310    1.273   .     A
C194   O334    1.273   .     A
C195   O311    1.273   .     A
C195   O335    1.273   .     A
C195   C245    1.451   .     S
C196   O332    1.273   .     A
C196   O312    1.273   .     A
C196   C246    1.451   .     S
C197   O333    1.273   .     A
C197   O313    1.273   .     A
C197   C248    1.451   .     S
C198   C257    1.451   .     S
C198   O330    1.273   .     A
C198   O314    1.273   .     A
C199   O316    1.273   .     A
C199   O331    1.273   .     A
C199   C259    1.451   .     S
C200   O328    1.273   .     A
C200   C251    1.451   .     S
C200   O317    1.273   .     A
C201   O318    1.273   .     A
C201   C252    1.451   .     S
C201   O329    1.273   .     A
C202   O319    1.273   .     A
C202   O325    1.273   .     A
C202   C253    1.451   .     S
C203   C214    1.196   1_554 S
C204   O320    1.273   .     A
C204   O327    1.273   .     A
C204   C254    1.451   .     S
C205   O323    1.273   .     A
C205   C255    1.451   .     S
C205   O321    1.273   .     A
C206   C256    1.451   .     S
C206   O324    1.273   .     A
C206   O322    1.273   .     A
C207   C254    1.409   .     A
C207   I261    2.147   .     S
C207   C219    1.402   .     A
C208   C253    1.409   .     A
C208   C218    1.402   .     A
C208   I272    2.147   .     S
C209   I283    2.144   .     S
C209   C252    1.407   .     A
C209   C217    1.402   .     A
C210   I287    2.144   .     S
C210   C251    1.407   .     A
C210   C216    1.402   .     A
C211   C223    1.402   .     A
C211   I288    2.147   .     S
C211   C259    1.409   .     A
C212   C257    1.409   .     A
C212   I289    2.147   .     S
C212   C222    1.402   .     A
C213   C256    1.407   .     A
C213   C221    1.402   .     A
C213   I290    2.144   .     S
C214   C203    1.196   1_556 S
C215   C255    1.407   .     A
C215   I291    2.144   .     S
C215   C220    1.402   .     A
C216   I292    2.144   .     S
C216   C245    1.407   .     A
C217   C244    1.407   .     A
C217   I262    2.144   .     S
C218   I263    2.147   .     S
C218   C243    1.409   .     A
C219   I264    2.147   .     S
C219   C242    1.409   .     A
C220   C250    1.407   .     A
C220   I265    2.144   .     S
C221   I266    2.144   .     S
C221   C249    1.407   .     A
C222   C248    1.409   .     A
C222   I267    2.147   .     S
C223   I268    2.147   .     S
C223   C246    1.409   .     A
C224   C243    1.409   .     A
C224   C237    1.402   .     A
C224   I269    2.147   .     S
C225   C236    1.196   .     S
C226   C242    1.409   .     A
C226   C235    1.402   .     A
C226   I270    2.147   .     S
C227   I271    2.144   .     S
C227   C234    1.402   .     A
C227   C245    1.407   .     A
C228   C244    1.407   .     A
C228   I273    2.144   .     S
C228   C233    1.402   .     A
C229   C248    1.409   .     A
C229   I274    2.147   .     S
C229   C241    1.402   .     A
C230   I275    2.147   .     S
C230   C246    1.409   .     A
C230   C240    1.402   .     A
C231   C250    1.407   .     A
C231   I276    2.144   .     S
C231   C239    1.402   .     A
C232   I277    2.144   .     S
C232   C249    1.407   .     A
C232   C238    1.402   .     A
C233   I278    2.144   .     S
C233   C252    1.407   .     A
C234   C251    1.407   .     A
C234   I279    2.144   .     S
C235   C254    1.409   .     A
C235   I280    2.147   .     S
C237   C253    1.409   .     A
C237   I281    2.147   .     S
C238   C256    1.407   .     A
C238   I282    2.144   .     S
C239   I284    2.144   .     S
C239   C255    1.407   .     A
C240   C259    1.409   .     A
C240   I285    2.147   .     S
C241   C257    1.409   .     A
C241   I286    2.147   .     S
C247   C258    1.196   .     T
C258   C260    1.418   .     S
C260   O337    1.275   .     A
C260   O344    1.275   .     S
O293   Zn348   1.933   .     S
O293   Zn345   1.933   .     S
O293   Zn352   1.933   .     S
O294   Zn351   1.919   .     S
O295   Zn346   1.919   .     S
O296   Zn360   1.919   .     S
O297   Zn355   1.919   .     S
O298   C546    1.275   .     A
O298   Zn354   1.919   .     S
O299   Zn357   1.919   .     S
O300   Zn356   1.919   .     S
O300   C8      1.275   1_655 A
O301   Zn359   1.919   .     S
O301   C545    1.275   .     S
O302   Zn358   1.919   .     S
O303   Zn353   1.919   .     S
O303   C7      1.275   1_655 S
O304   Zn347   1.933   .     S
O304   Zn357   1.933   .     S
O304   Zn351   1.933   .     S
O305   Zn345   1.919   .     S
O306   Zn352   1.931   .     S
O307   Zn171   1.931   1_655 S
O308   Zn706   1.930   .     S
O309   Zn360   1.930   .     S
O310   Zn168   1.931   1_655 S
O311   Zn347   1.931   .     S
O312   Zn350   1.930   .     S
O313   Zn709   1.930   .     S
O314   Zn351   1.930   .     S
O315   Zn350   1.933   .     S
O315   Zn358   1.933   .     S
O315   Zn346   1.933   .     S
O315   Zn714   1.933   1_545 S
O316   Zn172   1.930   1_655 S
O317   Zn349   1.931   .     S
O318   Zn710   1.931   .     S
O319   Zn167   1.930   1_655 S
O320   Zn348   1.930   .     S
O321   Zn720   1.931   .     S
O322   Zn346   1.931   .     S
O323   Zn359   1.931   .     S
O324   Zn358   1.931   .     S
O325   Zn353   1.930   .     S
O326   Zn355   1.933   .     S
O326   Zn360   1.933   .     S
O326   Zn349   1.933   .     S
O326   Zn719   1.933   1_545 S
O327   Zn345   1.930   .     S
O328   Zn355   1.931   .     S
O329   Zn354   1.931   .     S
O330   Zn357   1.930   .     S
O331   Zn356   1.930   .     S
O332   Zn358   1.930   .     S
O333   Zn359   1.930   .     S
O334   Zn356   1.931   .     S
O335   Zn357   1.931   .     S
O336   Zn354   1.930   .     S
O337   Zn348   1.919   .     S
O338   Zn355   1.930   .     S
O339   Zn345   1.931   .     S
O340   Zn353   1.931   .     S
O341   Zn347   1.919   .     S
O342   Zn350   1.919   .     S
O343   Zn349   1.919   .     S
O344   Zn352   1.919   .     S
Zn346  O668    1.930   1_545 S
Zn349  O673    1.930   1_545 S
Zn350  O678    1.931   1_545 S
Zn353  O124    1.933   1_655 S
Zn354  O675    1.933   .     S
Zn356  O113    1.933   1_655 S
Zn359  O686    1.933   .     S
Zn360  O681    1.931   1_545 S
C361   C368    1.418   .     S
C361   C372    1.196   1_554 S
C362   C427    1.418   .     S
C362   O474    1.275   .     S
C362   O521    1.275   .     S
C363   C416    1.418   .     S
C363   O475    1.275   .     S
C363   O522    1.275   .     S
C364   C405    1.418   .     S
C364   O523    1.275   .     A
C364   O476    1.275   .     A
C365   C394    1.418   .     S
C365   O477    1.275   .     A
C366   C383    1.418   .     S
C366   O482    1.275   .     S
C367   O479    1.275   .     A
C367   C372    1.418   .     S
C367   O663    1.275   1_455 S
C368   O660    1.275   1_455 A
C368   O485    1.275   .     S
C369   C429    1.451   .     S
C369   O519    1.273   .     A
C369   O486    1.273   .     A
C370   O520    1.273   .     A
C370   C430    1.451   .     S
C370   O487    1.273   .     A
C371   C422    1.451   .     S
C371   O516    1.273   .     A
C371   O488    1.273   .     A
C372   C361    1.196   1_556 S
C373   C423    1.451   .     S
C373   O518    1.273   .     A
C373   O489    1.273   .     A
C374   C424    1.451   .     S
C374   O490    1.273   .     A
C374   O514    1.273   .     A
C375   O491    1.273   .     A
C375   O515    1.273   .     A
C375   C425    1.451   .     S
C376   O512    1.273   .     A
C376   O492    1.273   .     A
C376   C426    1.451   .     S
C377   O513    1.273   .     A
C377   O493    1.273   .     A
C377   C428    1.451   .     S
C378   C437    1.451   .     S
C378   O510    1.273   .     A
C378   O494    1.273   .     A
C379   O496    1.273   .     A
C379   O511    1.273   .     A
C379   C439    1.451   .     S
C380   O508    1.273   .     A
C380   C431    1.451   .     S
C380   O497    1.273   .     A
C381   O498    1.273   .     A
C381   C432    1.451   .     S
C381   O509    1.273   .     A
C382   O499    1.273   .     A
C382   O505    1.273   .     A
C382   C433    1.451   .     S
C383   C394    1.196   1_554 S
C384   O500    1.273   .     A
C384   O507    1.273   .     A
C384   C434    1.451   .     S
C385   O503    1.273   .     A
C385   C435    1.451   .     S
C385   O501    1.273   .     A
C386   C436    1.451   .     S
C386   O504    1.273   .     A
C386   O502    1.273   .     A
C387   C434    1.409   .     A
C387   I441    2.147   .     S
C387   C399    1.402   .     A
C388   C433    1.409   .     A
C388   C398    1.402   .     A
C388   I452    2.147   .     S
C389   I463    2.144   .     S
C389   C432    1.407   .     A
C389   C397    1.402   .     A
C390   I467    2.144   .     S
C390   C431    1.407   .     A
C390   C396    1.402   .     A
C391   C403    1.402   .     A
C391   I468    2.147   .     S
C391   C439    1.409   .     A
C392   C437    1.409   .     A
C392   I469    2.147   .     S
C392   C402    1.402   .     A
C393   C436    1.407   .     A
C393   C401    1.402   .     A
C393   I470    2.144   .     S
C394   C383    1.196   1_556 S
C395   C435    1.407   .     A
C395   I471    2.144   .     S
C395   C400    1.402   .     A
C396   I472    2.144   .     S
C396   C425    1.407   .     A
C397   C424    1.407   .     A
C397   I442    2.144   .     S
C398   I443    2.147   .     S
C398   C423    1.409   .     A
C399   I444    2.147   .     S
C399   C422    1.409   .     A
C400   C430    1.407   .     A
C400   I445    2.144   .     S
C401   I446    2.144   .     S
C401   C429    1.407   .     A
C402   C428    1.409   .     A
C402   I447    2.147   .     S
C403   I448    2.147   .     S
C403   C426    1.409   .     A
C404   C423    1.409   .     A
C404   C417    1.402   .     A
C404   I449    2.147   .     S
C405   C416    1.196   .     S
C406   C422    1.409   .     A
C406   C415    1.402   .     A
C406   I450    2.147   .     S
C407   I451    2.144   .     S
C407   C414    1.402   .     A
C407   C425    1.407   .     A
C408   C424    1.407   .     A
C408   I453    2.144   .     S
C408   C413    1.402   .     A
C409   C428    1.409   .     A
C409   I454    2.147   .     S
C409   C421    1.402   .     A
C410   I455    2.147   .     S
C410   C426    1.409   .     A
C410   C420    1.402   .     A
C411   C430    1.407   .     A
C411   I456    2.144   .     S
C411   C419    1.402   .     A
C412   I457    2.144   .     S
C412   C429    1.407   .     A
C412   C418    1.402   .     A
C413   I458    2.144   .     S
C413   C432    1.407   .     A
C414   C431    1.407   .     A
C414   I459    2.144   .     S
C415   C434    1.409   .     A
C415   I460    2.147   .     S
C417   C433    1.409   .     A
C417   I461    2.147   .     S
C418   C436    1.407   .     A
C418   I462    2.144   .     S
C419   I464    2.144   .     S
C419   C435    1.407   .     A
C420   C439    1.409   .     A
C420   I465    2.147   .     S
C421   C437    1.409   .     A
C421   I466    2.147   .     S
C427   C438    1.196   .     T
C438   C440    1.418   .     S
C440   O517    1.275   .     A
C440   O524    1.275   .     S
O473   Zn528   1.933   .     S
O473   Zn716   1.933   1_455 S
O473   Zn525   1.933   .     S
O473   Zn532   1.933   .     S
O474   Zn531   1.919   .     S
O475   Zn526   1.919   .     S
O476   Zn540   1.919   .     S
O477   Zn535   1.919   .     S
O478   C6      1.275   1_565 A
O478   Zn534   1.919   .     S
O479   Zn537   1.919   .     S
O480   Zn536   1.919   .     S
O480   C548    1.275   .     A
O481   Zn539   1.919   .     S
O481   C5      1.275   1_565 S
O482   Zn538   1.919   .     S
O483   Zn533   1.919   .     S
O483   C547    1.275   .     S
O484   Zn527   1.933   .     S
O484   Zn537   1.933   .     S
O484   Zn531   1.933   .     S
O484   Zn713   1.933   1_455 S
O485   Zn525   1.919   .     S
O486   Zn532   1.931   .     S
O487   Zn711   1.931   .     S
O488   Zn166   1.930   1_565 S
O489   Zn540   1.930   .     S
O490   Zn708   1.931   .     S
O491   Zn527   1.931   .     S
O492   Zn530   1.930   .     S
O493   Zn169   1.930   1_565 S
O494   Zn531   1.930   .     S
O495   Zn530   1.933   .     S
O495   Zn538   1.933   .     S
O495   Zn526   1.933   .     S
O496   Zn712   1.930   .     S
O497   Zn529   1.931   .     S
O498   Zn170   1.931   1_565 S
O499   Zn707   1.930   .     S
O500   Zn528   1.930   .     S
O501   Zn180   1.931   1_565 S
O502   Zn526   1.931   .     S
O503   Zn539   1.931   .     S
O504   Zn538   1.931   .     S
O505   Zn533   1.930   .     S
O506   Zn535   1.933   .     S
O506   Zn540   1.933   .     S
O506   Zn529   1.933   .     S
O507   Zn525   1.930   .     S
O508   Zn535   1.931   .     S
O509   Zn534   1.931   .     S
O510   Zn537   1.930   .     S
O511   Zn536   1.930   .     S
O512   Zn538   1.930   .     S
O513   Zn539   1.930   .     S
O514   Zn536   1.931   .     S
O515   Zn537   1.931   .     S
O516   Zn534   1.930   .     S
O517   Zn528   1.919   .     S
O518   Zn535   1.930   .     S
O519   Zn525   1.931   .     S
O520   Zn533   1.931   .     S
O521   Zn527   1.919   .     S
O522   Zn530   1.919   .     S
O523   Zn529   1.919   .     S
O524   Zn532   1.919   .     S
Zn527  O679    1.930   1_455 S
Zn528  O670    1.931   1_455 S
Zn531  O667    1.931   1_455 S
Zn532  O676    1.930   1_455 S
Zn533  O664    1.933   .     S
Zn534  O135    1.933   1_565 S
Zn536  O653    1.933   .     S
Zn539  O146    1.933   1_565 S
C541   C548    1.418   .     S
C541   C552    1.196   1_554 S
C542   C607    1.418   .     S
C542   O654    1.275   .     S
C542   O701    1.275   .     S
C543   C596    1.418   .     S
C543   O655    1.275   .     S
C543   O702    1.275   .     S
C544   C585    1.418   .     S
C544   O703    1.275   .     A
C544   O656    1.275   .     A
C545   C574    1.418   .     S
C545   O657    1.275   .     A
C546   C563    1.418   .     S
C546   O662    1.275   .     S
C547   O659    1.275   .     A
C547   C552    1.418   .     S
C548   O665    1.275   .     S
C549   C609    1.451   .     S
C549   O699    1.273   .     A
C549   O666    1.273   .     A
C550   O700    1.273   .     A
C550   C610    1.451   .     S
C550   O667    1.273   .     A
C551   C602    1.451   .     S
C551   O696    1.273   .     A
C551   O668    1.273   .     A
C552   C541    1.196   1_556 S
C553   C603    1.451   .     S
C553   O698    1.273   .     A
C553   O669    1.273   .     A
C554   C604    1.451   .     S
C554   O670    1.273   .     A
C554   O694    1.273   .     A
C555   O671    1.273   .     A
C555   O695    1.273   .     A
C555   C605    1.451   .     S
C556   O692    1.273   .     A
C556   O672    1.273   .     A
C556   C606    1.451   .     S
C557   O693    1.273   .     A
C557   O673    1.273   .     A
C557   C608    1.451   .     S
C558   C617    1.451   .     S
C558   O690    1.273   .     A
C558   O674    1.273   .     A
C559   O676    1.273   .     A
C559   O691    1.273   .     A
C559   C619    1.451   .     S
C560   O688    1.273   .     A
C560   C611    1.451   .     S
C560   O677    1.273   .     A
C561   O678    1.273   .     A
C561   C612    1.451   .     S
C561   O689    1.273   .     A
C562   O679    1.273   .     A
C562   O685    1.273   .     A
C562   C613    1.451   .     S
C563   C574    1.196   1_554 S
C564   O680    1.273   .     A
C564   O687    1.273   .     A
C564   C614    1.451   .     S
C565   O683    1.273   .     A
C565   C615    1.451   .     S
C565   O681    1.273   .     A
C566   C616    1.451   .     S
C566   O684    1.273   .     A
C566   O682    1.273   .     A
C567   C614    1.409   .     A
C567   I621    2.147   .     S
C567   C579    1.402   .     A
C568   C613    1.409   .     A
C568   C578    1.402   .     A
C568   I632    2.147   .     S
C569   I643    2.144   .     S
C569   C612    1.407   .     A
C569   C577    1.402   .     A
C570   I647    2.144   .     S
C570   C611    1.407   .     A
C570   C576    1.402   .     A
C571   C583    1.402   .     A
C571   I648    2.147   .     S
C571   C619    1.409   .     A
C572   C617    1.409   .     A
C572   I649    2.147   .     S
C572   C582    1.402   .     A
C573   C616    1.407   .     A
C573   C581    1.402   .     A
C573   I650    2.144   .     S
C574   C563    1.196   1_556 S
C575   C615    1.407   .     A
C575   I651    2.144   .     S
C575   C580    1.402   .     A
C576   I652    2.144   .     S
C576   C605    1.407   .     A
C577   C604    1.407   .     A
C577   I622    2.144   .     S
C578   I623    2.147   .     S
C578   C603    1.409   .     A
C579   I624    2.147   .     S
C579   C602    1.409   .     A
C580   C610    1.407   .     A
C580   I625    2.144   .     S
C581   I626    2.144   .     S
C581   C609    1.407   .     A
C582   C608    1.409   .     A
C582   I627    2.147   .     S
C583   I628    2.147   .     S
C583   C606    1.409   .     A
C584   C603    1.409   .     A
C584   C597    1.402   .     A
C584   I629    2.147   .     S
C585   C596    1.196   .     S
C586   C602    1.409   .     A
C586   C595    1.402   .     A
C586   I630    2.147   .     S
C587   I631    2.144   .     S
C587   C594    1.402   .     A
C587   C605    1.407   .     A
C588   C604    1.407   .     A
C588   I633    2.144   .     S
C588   C593    1.402   .     A
C589   C608    1.409   .     A
C589   I634    2.147   .     S
C589   C601    1.402   .     A
C590   I635    2.147   .     S
C590   C606    1.409   .     A
C590   C600    1.402   .     A
C591   C610    1.407   .     A
C591   I636    2.144   .     S
C591   C599    1.402   .     A
C592   I637    2.144   .     S
C592   C609    1.407   .     A
C592   C598    1.402   .     A
C593   I638    2.144   .     S
C593   C612    1.407   .     A
C594   C611    1.407   .     A
C594   I639    2.144   .     S
C595   C614    1.409   .     A
C595   I640    2.147   .     S
C597   C613    1.409   .     A
C597   I641    2.147   .     S
C598   C616    1.407   .     A
C598   I642    2.144   .     S
C599   I644    2.144   .     S
C599   C615    1.407   .     A
C600   C619    1.409   .     A
C600   I645    2.147   .     S
C601   C617    1.409   .     A
C601   I646    2.147   .     S
C607   C618    1.196   .     T
C618   C620    1.418   .     S
C620   O697    1.275   .     A
C620   O704    1.275   .     S
O653   Zn708   1.933   .     S
O653   Zn705   1.933   .     S
O653   Zn712   1.933   .     S
O654   Zn711   1.919   .     S
O655   Zn706   1.919   .     S
O656   Zn720   1.919   .     S
O657   Zn715   1.919   .     S
O658   C186    1.275   1_565 A
O658   Zn714   1.919   .     S
O659   Zn717   1.919   .     S
O660   Zn716   1.919   .     S
O660   C368    1.275   1_655 A
O661   Zn719   1.919   .     S
O661   C185    1.275   1_565 S
O662   Zn718   1.919   .     S
O663   Zn713   1.919   .     S
O663   C367    1.275   1_655 S
O664   Zn707   1.933   .     S
O664   Zn717   1.933   .     S
O664   Zn711   1.933   .     S
O665   Zn705   1.919   .     S
O666   Zn712   1.931   .     S
O667   Zn531   1.931   1_655 S
O668   Zn346   1.930   1_565 S
O669   Zn720   1.930   .     S
O670   Zn528   1.931   1_655 S
O671   Zn707   1.931   .     S
O672   Zn710   1.930   .     S
O673   Zn349   1.930   1_565 S
O674   Zn711   1.930   .     S
O675   Zn710   1.933   .     S
O675   Zn718   1.933   .     S
O675   Zn706   1.933   .     S
O676   Zn532   1.930   1_655 S
O677   Zn709   1.931   .     S
O678   Zn350   1.931   1_565 S
O679   Zn527   1.930   1_655 S
O680   Zn708   1.930   .     S
O681   Zn360   1.931   1_565 S
O682   Zn706   1.931   .     S
O683   Zn719   1.931   .     S
O684   Zn718   1.931   .     S
O685   Zn713   1.930   .     S
O686   Zn715   1.933   .     S
O686   Zn720   1.933   .     S
O686   Zn709   1.933   .     S
O687   Zn705   1.930   .     S
O688   Zn715   1.931   .     S
O689   Zn714   1.931   .     S
O690   Zn717   1.930   .     S
O691   Zn716   1.930   .     S
O692   Zn718   1.930   .     S
O693   Zn719   1.930   .     S
O694   Zn716   1.931   .     S
O695   Zn717   1.931   .     S
O696   Zn714   1.930   .     S
O697   Zn708   1.919   .     S
O698   Zn715   1.930   .     S
O699   Zn705   1.931   .     S
O700   Zn713   1.931   .     S
O701   Zn707   1.919   .     S
O702   Zn710   1.919   .     S
O703   Zn709   1.919   .     S
O704   Zn712   1.919   .     S
Zn713  O484    1.933   1_655 S
Zn714  O315    1.933   1_565 S
Zn716  O473    1.933   1_655 S
Zn719  O326    1.933   1_565 S
