data_str_m2_o1_o10_pcu_sym.67
_audit_creation_date              2020-01-03
_audit_creation_method            'Materials Studio'
_symmetry_space_group_name_H-M    'P1'
_symmetry_Int_Tables_number       1
_symmetry_cell_setting            triclinic
loop_
_symmetry_equiv_pos_as_xyz
  x,y,z
_cell_length_a                    26.4052
_cell_length_b                    32.6864
_cell_length_c                    28.6068
_cell_angle_alpha                 89.3587
_cell_angle_beta                  97.5508
_cell_angle_gamma                 90.2008
loop_
_atom_site_label
_atom_site_type_symbol
_atom_site_fract_x
_atom_site_fract_y
_atom_site_fract_z
_atom_site_U_iso_or_equiv
_atom_site_adp_type
_atom_site_occupancy
C1     C     0.16519   0.08742   0.16681   0.00000  Uiso   1.00
C2     C     0.14867   0.01973   0.20472   0.00000  Uiso   1.00
C3     C     0.16884   0.29056   0.16609   0.00000  Uiso   1.00
C4     C     0.16449   0.04278   0.16724   0.00000  Uiso   1.00
C5     C     0.12633   0.15104   0.02004   0.00000  Uiso   1.00
C6     C     0.20701   0.18229   0.31329   0.00000  Uiso   1.00
C7     C     0.12643   0.15098   0.30387   0.00000  Uiso   1.00
C8     C     0.20690   0.18235   0.02946   0.00000  Uiso   1.00
C9     C     0.32631   0.12921   0.11390   0.00000  Uiso   1.00
C10    C     0.32141   0.13904   0.06564   0.00000  Uiso   1.00
C11    C     0.30221   0.11009   0.03218   0.00000  Uiso   1.00
C12    C     0.16814   0.24592   0.16653   0.00000  Uiso   1.00
C13    C     0.28957   0.07081   0.04663   0.00000  Uiso   1.00
C14    C     0.29551   0.06069   0.09458   0.00000  Uiso   1.00
C15    C     0.31266   0.08996   0.12815   0.00000  Uiso   1.00
C16    C     0.00703   0.20412   0.21944   0.00000  Uiso   1.00
C17    C     0.02069   0.24337   0.20520   0.00000  Uiso   1.00
C18    C     0.03785   0.27262   0.23878   0.00000  Uiso   1.00
C19    C     0.04379   0.26249   0.28672   0.00000  Uiso   1.00
C20    C     0.03113   0.22322   0.30117   0.00000  Uiso   1.00
C21    C     0.01192   0.19427   0.26770   0.00000  Uiso   1.00
C22    C     0.20823   0.29550   0.08974   0.00000  Uiso   1.00
C23    C     0.06813   0.16602   0.15486   0.00000  Uiso   1.00
C24    C     0.25995   0.28448   0.09692   0.00000  Uiso   1.00
C25    C     0.28497   0.27401   0.05862   0.00000  Uiso   1.00
C26    C     0.25812   0.27403   0.01314   0.00000  Uiso   1.00
C27    C     0.20606   0.28327   0.00615   0.00000  Uiso   1.00
C28    C     0.18111   0.29420   0.04426   0.00000  Uiso   1.00
C29    C     0.12512   0.03784   0.24359   0.00000  Uiso   1.00
C30    C     0.15226   0.03916   0.28907   0.00000  Uiso   1.00
C31    C     0.12733   0.05010   0.32719   0.00000  Uiso   1.00
C32    C     0.07526   0.05930   0.32022   0.00000  Uiso   1.00
C33    C     0.04837   0.05928   0.27475   0.00000  Uiso   1.00
C34    C     0.26520   0.16731   0.17847   0.00000  Uiso   1.00
C35    C     0.07338   0.04882   0.23644   0.00000  Uiso   1.00
C36    C     0.01364   0.15954   0.14989   0.00000  Uiso   1.00
C37    C     0.31969   0.17379   0.18344   0.00000  Uiso   1.00
C38    C     0.18182   0.02268   0.12953   0.00000  Uiso   1.00
C39    C     0.15151   0.31065   0.20380   0.00000  Uiso   1.00
C40    C     0.18466   0.31360   0.12861   0.00000  Uiso   1.00
Cu41   Cu    0.16667   0.16667   0.21355   0.00000  Uiso   1.00
Cu42   Cu    0.16667   0.16666   0.11978   0.00000  Uiso   1.00
H43    H     0.19490   0.04018   0.10113   0.00000  Uiso   1.00
H44    H     0.28655   0.03028   0.10594   0.00000  Uiso   1.00
H45    H     0.31541   0.08209   0.16522   0.00000  Uiso   1.00
H46    H     0.01794   0.25123   0.16814   0.00000  Uiso   1.00
H47    H     0.04681   0.30303   0.22742   0.00000  Uiso   1.00
H48    H     0.05786   0.28511   0.31262   0.00000  Uiso   1.00
H49    H     0.03582   0.21543   0.00496   0.00000  Uiso   1.00
H50    H     0.00179   0.16407   0.27919   0.00000  Uiso   1.00
H51    H     0.28120   0.28613   0.13181   0.00000  Uiso   1.00
H52    H     0.32520   0.26643   0.06411   0.00000  Uiso   1.00
H53    H     0.27725   0.26633   0.31663   0.00000  Uiso   1.00
H54    H     0.13844   0.29315   0.23221   0.00000  Uiso   1.00
H55    H     0.18520   0.28229   0.30447   0.00000  Uiso   1.00
H56    H     0.14110   0.30249   0.03828   0.00000  Uiso   1.00
H57    H     0.19227   0.03090   0.29503   0.00000  Uiso   1.00
H58    H     0.14821   0.05111   0.02885   0.00000  Uiso   1.00
H59    H     0.05614   0.06700   0.01673   0.00000  Uiso   1.00
H60    H     0.00814   0.06684   0.26928   0.00000  Uiso   1.00
H61    H     0.05211   0.04714   0.20156   0.00000  Uiso   1.00
H62    H     0.09395   0.13838   0.03473   0.00000  Uiso   1.00
H63    H     0.23938   0.19495   0.29861   0.00000  Uiso   1.00
H64    H     0.09431   0.13820   0.28154   0.00000  Uiso   1.00
H65    H     0.23903   0.19513   0.05179   0.00000  Uiso   1.00
H66    H     0.33152   0.16925   0.05414   0.00000  Uiso   1.00
H67    H     0.29752   0.11787   0.32838   0.00000  Uiso   1.00
H68    H     0.27550   0.04819   0.02074   0.00000  Uiso   1.00
N69    N     0.16668   0.16668   0.28403   0.00000  Uiso   1.00
N70    N     0.16665   0.16666   0.04931   0.00000  Uiso   1.00
O71    O     0.16666   0.10655   0.20625   0.00000  Uiso   1.00
O72    O     0.16667   0.22678   0.12709   0.00000  Uiso   1.00
O73    O     0.16666   0.10654   0.12706   0.00000  Uiso   1.00
O74    O     0.16667   0.22679   0.20628   0.00000  Uiso   1.00
O75    O     0.09161   0.16667   0.19712   0.00000  Uiso   1.00
O76    O     0.24172   0.16666   0.13621   0.00000  Uiso   1.00
O77    O     0.09161   0.16666   0.11793   0.00000  Uiso   1.00
O78    O     0.24172   0.16667   0.21540   0.00000  Uiso   1.00
C79    C     0.49853   0.08742   0.16681   0.00000  Uiso   1.00
C80    C     0.48201   0.01973   0.20472   0.00000  Uiso   1.00
C81    C     0.50218   0.29056   0.16609   0.00000  Uiso   1.00
C82    C     0.49782   0.04278   0.16724   0.00000  Uiso   1.00
C83    C     0.45966   0.15104   0.02004   0.00000  Uiso   1.00
C84    C     0.54034   0.18229   0.31329   0.00000  Uiso   1.00
C85    C     0.45977   0.15098   0.30387   0.00000  Uiso   1.00
C86    C     0.54023   0.18235   0.02946   0.00000  Uiso   1.00
C87    C     0.65964   0.12921   0.11390   0.00000  Uiso   1.00
C88    C     0.65474   0.13904   0.06564   0.00000  Uiso   1.00
C89    C     0.63555   0.11009   0.03218   0.00000  Uiso   1.00
C90    C     0.50147   0.24592   0.16653   0.00000  Uiso   1.00
C91    C     0.62290   0.07081   0.04663   0.00000  Uiso   1.00
C92    C     0.62884   0.06069   0.09458   0.00000  Uiso   1.00
C93    C     0.64599   0.08996   0.12815   0.00000  Uiso   1.00
C94    C     0.34036   0.20412   0.21944   0.00000  Uiso   1.00
C95    C     0.35402   0.24337   0.20520   0.00000  Uiso   1.00
C96    C     0.37118   0.27262   0.23878   0.00000  Uiso   1.00
C97    C     0.37712   0.26249   0.28672   0.00000  Uiso   1.00
C98    C     0.36446   0.22322   0.30117   0.00000  Uiso   1.00
C99    C     0.34526   0.19427   0.26770   0.00000  Uiso   1.00
C100   C     0.54156   0.29550   0.08974   0.00000  Uiso   1.00
C101   C     0.40147   0.16602   0.15486   0.00000  Uiso   1.00
C102   C     0.59328   0.28448   0.09692   0.00000  Uiso   1.00
C103   C     0.61831   0.27401   0.05862   0.00000  Uiso   1.00
C104   C     0.59145   0.27403   0.01314   0.00000  Uiso   1.00
C105   C     0.53939   0.28327   0.00615   0.00000  Uiso   1.00
C106   C     0.51445   0.29420   0.04426   0.00000  Uiso   1.00
C107   C     0.45845   0.03784   0.24359   0.00000  Uiso   1.00
C108   C     0.48559   0.03916   0.28907   0.00000  Uiso   1.00
C109   C     0.46066   0.05010   0.32719   0.00000  Uiso   1.00
C110   C     0.40859   0.05930   0.32022   0.00000  Uiso   1.00
C111   C     0.38171   0.05928   0.27475   0.00000  Uiso   1.00
C112   C     0.59853   0.16731   0.17847   0.00000  Uiso   1.00
C113   C     0.40672   0.04882   0.23644   0.00000  Uiso   1.00
C114   C     0.34697   0.15954   0.14989   0.00000  Uiso   1.00
C115   C     0.65303   0.17379   0.18344   0.00000  Uiso   1.00
C116   C     0.51516   0.02268   0.12953   0.00000  Uiso   1.00
C117   C     0.48485   0.31065   0.20380   0.00000  Uiso   1.00
C118   C     0.51799   0.31360   0.12861   0.00000  Uiso   1.00
Cu119  Cu    0.50000   0.16667   0.21355   0.00000  Uiso   1.00
Cu120  Cu    0.50000   0.16666   0.11978   0.00000  Uiso   1.00
H121   H     0.52824   0.04018   0.10113   0.00000  Uiso   1.00
H122   H     0.61989   0.03028   0.10594   0.00000  Uiso   1.00
H123   H     0.64875   0.08209   0.16522   0.00000  Uiso   1.00
H124   H     0.35127   0.25123   0.16814   0.00000  Uiso   1.00
H125   H     0.38014   0.30303   0.22742   0.00000  Uiso   1.00
H126   H     0.39119   0.28511   0.31262   0.00000  Uiso   1.00
H127   H     0.36915   0.21543   0.00496   0.00000  Uiso   1.00
H128   H     0.33513   0.16407   0.27919   0.00000  Uiso   1.00
H129   H     0.61453   0.28613   0.13181   0.00000  Uiso   1.00
H130   H     0.65853   0.26643   0.06411   0.00000  Uiso   1.00
H131   H     0.61058   0.26633   0.31663   0.00000  Uiso   1.00
H132   H     0.47177   0.29315   0.23221   0.00000  Uiso   1.00
H133   H     0.51853   0.28229   0.30447   0.00000  Uiso   1.00
H134   H     0.47444   0.30249   0.03828   0.00000  Uiso   1.00
H135   H     0.52561   0.03090   0.29503   0.00000  Uiso   1.00
H136   H     0.48154   0.05111   0.02885   0.00000  Uiso   1.00
H137   H     0.38947   0.06700   0.01673   0.00000  Uiso   1.00
H138   H     0.34147   0.06684   0.26928   0.00000  Uiso   1.00
H139   H     0.38544   0.04714   0.20156   0.00000  Uiso   1.00
H140   H     0.42729   0.13838   0.03473   0.00000  Uiso   1.00
H141   H     0.57271   0.19495   0.29861   0.00000  Uiso   1.00
H142   H     0.42764   0.13820   0.28154   0.00000  Uiso   1.00
H143   H     0.57236   0.19513   0.05179   0.00000  Uiso   1.00
H144   H     0.66486   0.16925   0.05414   0.00000  Uiso   1.00
H145   H     0.63085   0.11787   0.32838   0.00000  Uiso   1.00
H146   H     0.60883   0.04819   0.02074   0.00000  Uiso   1.00
N147   N     0.50001   0.16668   0.28403   0.00000  Uiso   1.00
N148   N     0.49999   0.16666   0.04931   0.00000  Uiso   1.00
O149   O     0.50000   0.10655   0.20625   0.00000  Uiso   1.00
O150   O     0.50000   0.22678   0.12709   0.00000  Uiso   1.00
O151   O     0.50000   0.10654   0.12706   0.00000  Uiso   1.00
O152   O     0.50000   0.22679   0.20628   0.00000  Uiso   1.00
O153   O     0.42495   0.16667   0.19712   0.00000  Uiso   1.00
O154   O     0.57505   0.16666   0.13621   0.00000  Uiso   1.00
O155   O     0.42494   0.16666   0.11793   0.00000  Uiso   1.00
O156   O     0.57506   0.16667   0.21540   0.00000  Uiso   1.00
C157   C     0.83186   0.08742   0.16681   0.00000  Uiso   1.00
C158   C     0.81534   0.01973   0.20472   0.00000  Uiso   1.00
C159   C     0.83551   0.29056   0.16609   0.00000  Uiso   1.00
C160   C     0.83116   0.04278   0.16724   0.00000  Uiso   1.00
C161   C     0.79299   0.15104   0.02004   0.00000  Uiso   1.00
C162   C     0.87367   0.18229   0.31329   0.00000  Uiso   1.00
C163   C     0.79310   0.15098   0.30387   0.00000  Uiso   1.00
C164   C     0.87357   0.18235   0.02946   0.00000  Uiso   1.00
C165   C     0.99297   0.12921   0.11390   0.00000  Uiso   1.00
C166   C     0.98807   0.13904   0.06564   0.00000  Uiso   1.00
C167   C     0.96888   0.11009   0.03218   0.00000  Uiso   1.00
C168   C     0.83481   0.24592   0.16653   0.00000  Uiso   1.00
C169   C     0.95623   0.07081   0.04663   0.00000  Uiso   1.00
C170   C     0.96217   0.06069   0.09458   0.00000  Uiso   1.00
C171   C     0.97932   0.08996   0.12815   0.00000  Uiso   1.00
C172   C     0.67370   0.20412   0.21944   0.00000  Uiso   1.00
C173   C     0.68736   0.24337   0.20520   0.00000  Uiso   1.00
C174   C     0.70452   0.27262   0.23878   0.00000  Uiso   1.00
C175   C     0.71045   0.26249   0.28672   0.00000  Uiso   1.00
C176   C     0.69779   0.22322   0.30117   0.00000  Uiso   1.00
C177   C     0.67859   0.19427   0.26770   0.00000  Uiso   1.00
C178   C     0.87489   0.29550   0.08974   0.00000  Uiso   1.00
C179   C     0.73480   0.16602   0.15486   0.00000  Uiso   1.00
C180   C     0.92661   0.28448   0.09692   0.00000  Uiso   1.00
C181   C     0.95164   0.27401   0.05862   0.00000  Uiso   1.00
C182   C     0.92478   0.27403   0.01314   0.00000  Uiso   1.00
C183   C     0.87272   0.28327   0.00615   0.00000  Uiso   1.00
C184   C     0.84778   0.29420   0.04426   0.00000  Uiso   1.00
C185   C     0.79178   0.03784   0.24359   0.00000  Uiso   1.00
C186   C     0.81892   0.03916   0.28907   0.00000  Uiso   1.00
C187   C     0.79400   0.05010   0.32719   0.00000  Uiso   1.00
C188   C     0.74192   0.05930   0.32022   0.00000  Uiso   1.00
C189   C     0.71504   0.05928   0.27475   0.00000  Uiso   1.00
C190   C     0.93187   0.16731   0.17847   0.00000  Uiso   1.00
C191   C     0.74005   0.04882   0.23644   0.00000  Uiso   1.00
C192   C     0.68031   0.15954   0.14989   0.00000  Uiso   1.00
C193   C     0.98636   0.17379   0.18344   0.00000  Uiso   1.00
C194   C     0.84849   0.02268   0.12953   0.00000  Uiso   1.00
C195   C     0.81818   0.31065   0.20380   0.00000  Uiso   1.00
C196   C     0.85133   0.31360   0.12861   0.00000  Uiso   1.00
Cu197  Cu    0.83333   0.16667   0.21355   0.00000  Uiso   1.00
Cu198  Cu    0.83333   0.16666   0.11978   0.00000  Uiso   1.00
H199   H     0.86157   0.04018   0.10113   0.00000  Uiso   1.00
H200   H     0.95322   0.03028   0.10594   0.00000  Uiso   1.00
H201   H     0.98208   0.08209   0.16522   0.00000  Uiso   1.00
H202   H     0.68461   0.25123   0.16814   0.00000  Uiso   1.00
H203   H     0.71348   0.30303   0.22742   0.00000  Uiso   1.00
H204   H     0.72453   0.28511   0.31262   0.00000  Uiso   1.00
H205   H     0.70249   0.21543   0.00496   0.00000  Uiso   1.00
H206   H     0.66846   0.16407   0.27919   0.00000  Uiso   1.00
H207   H     0.94787   0.28613   0.13181   0.00000  Uiso   1.00
H208   H     0.99187   0.26643   0.06411   0.00000  Uiso   1.00
H209   H     0.94391   0.26633   0.31663   0.00000  Uiso   1.00
H210   H     0.80510   0.29315   0.23221   0.00000  Uiso   1.00
H211   H     0.85186   0.28229   0.30447   0.00000  Uiso   1.00
H212   H     0.80777   0.30249   0.03828   0.00000  Uiso   1.00
H213   H     0.85894   0.03090   0.29503   0.00000  Uiso   1.00
H214   H     0.81488   0.05111   0.02885   0.00000  Uiso   1.00
H215   H     0.72281   0.06700   0.01673   0.00000  Uiso   1.00
H216   H     0.67480   0.06684   0.26928   0.00000  Uiso   1.00
H217   H     0.71878   0.04714   0.20156   0.00000  Uiso   1.00
H218   H     0.76062   0.13838   0.03473   0.00000  Uiso   1.00
H219   H     0.90605   0.19495   0.29861   0.00000  Uiso   1.00
H220   H     0.76097   0.13820   0.28154   0.00000  Uiso   1.00
H221   H     0.90569   0.19513   0.05179   0.00000  Uiso   1.00
H222   H     0.99819   0.16925   0.05414   0.00000  Uiso   1.00
H223   H     0.96418   0.11787   0.32838   0.00000  Uiso   1.00
H224   H     0.94216   0.04819   0.02074   0.00000  Uiso   1.00
N225   N     0.83335   0.16668   0.28403   0.00000  Uiso   1.00
N226   N     0.83332   0.16666   0.04931   0.00000  Uiso   1.00
O227   O     0.83333   0.10655   0.20625   0.00000  Uiso   1.00
O228   O     0.83334   0.22678   0.12709   0.00000  Uiso   1.00
O229   O     0.83333   0.10654   0.12706   0.00000  Uiso   1.00
O230   O     0.83334   0.22679   0.20628   0.00000  Uiso   1.00
O231   O     0.75828   0.16667   0.19712   0.00000  Uiso   1.00
O232   O     0.90839   0.16666   0.13621   0.00000  Uiso   1.00
O233   O     0.75828   0.16666   0.11793   0.00000  Uiso   1.00
O234   O     0.90839   0.16667   0.21540   0.00000  Uiso   1.00
C235   C     0.16519   0.42075   0.16681   0.00000  Uiso   1.00
C236   C     0.14867   0.35306   0.20472   0.00000  Uiso   1.00
C237   C     0.16884   0.62389   0.16609   0.00000  Uiso   1.00
C238   C     0.16449   0.37611   0.16724   0.00000  Uiso   1.00
C239   C     0.12633   0.48438   0.02004   0.00000  Uiso   1.00
C240   C     0.20701   0.51563   0.31329   0.00000  Uiso   1.00
C241   C     0.12643   0.48432   0.30387   0.00000  Uiso   1.00
C242   C     0.20690   0.51568   0.02946   0.00000  Uiso   1.00
C243   C     0.32631   0.46254   0.11390   0.00000  Uiso   1.00
C244   C     0.32141   0.47237   0.06564   0.00000  Uiso   1.00
C245   C     0.30221   0.44342   0.03218   0.00000  Uiso   1.00
C246   C     0.16814   0.57925   0.16653   0.00000  Uiso   1.00
C247   C     0.28957   0.40415   0.04663   0.00000  Uiso   1.00
C248   C     0.29551   0.39403   0.09458   0.00000  Uiso   1.00
C249   C     0.31266   0.42329   0.12815   0.00000  Uiso   1.00
C250   C     0.00703   0.53745   0.21944   0.00000  Uiso   1.00
C251   C     0.02069   0.57670   0.20520   0.00000  Uiso   1.00
C252   C     0.03785   0.60595   0.23878   0.00000  Uiso   1.00
C253   C     0.04379   0.59583   0.28672   0.00000  Uiso   1.00
C254   C     0.03113   0.55655   0.30117   0.00000  Uiso   1.00
C255   C     0.01192   0.52761   0.26770   0.00000  Uiso   1.00
C256   C     0.20823   0.62883   0.08974   0.00000  Uiso   1.00
C257   C     0.06813   0.49935   0.15486   0.00000  Uiso   1.00
C258   C     0.25995   0.61781   0.09692   0.00000  Uiso   1.00
C259   C     0.28497   0.60735   0.05862   0.00000  Uiso   1.00
C260   C     0.25812   0.60736   0.01314   0.00000  Uiso   1.00
C261   C     0.20606   0.61660   0.00615   0.00000  Uiso   1.00
C262   C     0.18111   0.62754   0.04426   0.00000  Uiso   1.00
C263   C     0.12512   0.37117   0.24359   0.00000  Uiso   1.00
C264   C     0.15226   0.37250   0.28907   0.00000  Uiso   1.00
C265   C     0.12733   0.38343   0.32719   0.00000  Uiso   1.00
C266   C     0.07526   0.39263   0.32022   0.00000  Uiso   1.00
C267   C     0.04837   0.39262   0.27475   0.00000  Uiso   1.00
C268   C     0.26520   0.50065   0.17847   0.00000  Uiso   1.00
C269   C     0.07338   0.38215   0.23644   0.00000  Uiso   1.00
C270   C     0.01364   0.49287   0.14989   0.00000  Uiso   1.00
C271   C     0.31969   0.50713   0.18344   0.00000  Uiso   1.00
C272   C     0.18182   0.35602   0.12953   0.00000  Uiso   1.00
C273   C     0.15151   0.64398   0.20380   0.00000  Uiso   1.00
C274   C     0.18466   0.64694   0.12861   0.00000  Uiso   1.00
Cu275  Cu    0.16667   0.50001   0.21355   0.00000  Uiso   1.00
Cu276  Cu    0.16667   0.49999   0.11978   0.00000  Uiso   1.00
H277   H     0.19490   0.37352   0.10113   0.00000  Uiso   1.00
H278   H     0.28655   0.36362   0.10594   0.00000  Uiso   1.00
H279   H     0.31541   0.41543   0.16522   0.00000  Uiso   1.00
H280   H     0.01794   0.58457   0.16814   0.00000  Uiso   1.00
H281   H     0.04681   0.63636   0.22742   0.00000  Uiso   1.00
H282   H     0.05786   0.61844   0.31262   0.00000  Uiso   1.00
H283   H     0.03582   0.54877   0.00496   0.00000  Uiso   1.00
H284   H     0.00179   0.49740   0.27919   0.00000  Uiso   1.00
H285   H     0.28120   0.61947   0.13181   0.00000  Uiso   1.00
H286   H     0.32520   0.59976   0.06411   0.00000  Uiso   1.00
H287   H     0.27725   0.59966   0.31663   0.00000  Uiso   1.00
H288   H     0.13844   0.62648   0.23221   0.00000  Uiso   1.00
H289   H     0.18520   0.61562   0.30447   0.00000  Uiso   1.00
H290   H     0.14110   0.63583   0.03828   0.00000  Uiso   1.00
H291   H     0.19227   0.36423   0.29503   0.00000  Uiso   1.00
H292   H     0.14821   0.38444   0.02885   0.00000  Uiso   1.00
H293   H     0.05614   0.40033   0.01673   0.00000  Uiso   1.00
H294   H     0.00814   0.40017   0.26928   0.00000  Uiso   1.00
H295   H     0.05211   0.38047   0.20156   0.00000  Uiso   1.00
H296   H     0.09395   0.47172   0.03473   0.00000  Uiso   1.00
H297   H     0.23938   0.52829   0.29861   0.00000  Uiso   1.00
H298   H     0.09431   0.47153   0.28154   0.00000  Uiso   1.00
H299   H     0.23903   0.52846   0.05179   0.00000  Uiso   1.00
H300   H     0.33152   0.50258   0.05414   0.00000  Uiso   1.00
H301   H     0.29752   0.45120   0.32838   0.00000  Uiso   1.00
H302   H     0.27550   0.38152   0.02074   0.00000  Uiso   1.00
N303   N     0.16668   0.50001   0.28403   0.00000  Uiso   1.00
N304   N     0.16665   0.49999   0.04931   0.00000  Uiso   1.00
O305   O     0.16666   0.43989   0.20625   0.00000  Uiso   1.00
O306   O     0.16667   0.56011   0.12709   0.00000  Uiso   1.00
O307   O     0.16666   0.43988   0.12706   0.00000  Uiso   1.00
O308   O     0.16667   0.56012   0.20628   0.00000  Uiso   1.00
O309   O     0.09161   0.50000   0.19712   0.00000  Uiso   1.00
O310   O     0.24172   0.50000   0.13621   0.00000  Uiso   1.00
O311   O     0.09161   0.49999   0.11793   0.00000  Uiso   1.00
O312   O     0.24172   0.50001   0.21540   0.00000  Uiso   1.00
C313   C     0.49853   0.42075   0.16681   0.00000  Uiso   1.00
C314   C     0.48201   0.35306   0.20472   0.00000  Uiso   1.00
C315   C     0.50218   0.62389   0.16609   0.00000  Uiso   1.00
C316   C     0.49782   0.37611   0.16724   0.00000  Uiso   1.00
C317   C     0.45966   0.48438   0.02004   0.00000  Uiso   1.00
C318   C     0.54034   0.51563   0.31329   0.00000  Uiso   1.00
C319   C     0.45977   0.48432   0.30387   0.00000  Uiso   1.00
C320   C     0.54023   0.51568   0.02946   0.00000  Uiso   1.00
C321   C     0.65964   0.46254   0.11390   0.00000  Uiso   1.00
C322   C     0.65474   0.47237   0.06564   0.00000  Uiso   1.00
C323   C     0.63555   0.44342   0.03218   0.00000  Uiso   1.00
C324   C     0.50147   0.57925   0.16653   0.00000  Uiso   1.00
C325   C     0.62290   0.40415   0.04663   0.00000  Uiso   1.00
C326   C     0.62884   0.39403   0.09458   0.00000  Uiso   1.00
C327   C     0.64599   0.42329   0.12815   0.00000  Uiso   1.00
C328   C     0.34036   0.53745   0.21944   0.00000  Uiso   1.00
C329   C     0.35402   0.57670   0.20520   0.00000  Uiso   1.00
C330   C     0.37118   0.60595   0.23878   0.00000  Uiso   1.00
C331   C     0.37712   0.59583   0.28672   0.00000  Uiso   1.00
C332   C     0.36446   0.55655   0.30117   0.00000  Uiso   1.00
C333   C     0.34526   0.52761   0.26770   0.00000  Uiso   1.00
C334   C     0.54156   0.62883   0.08974   0.00000  Uiso   1.00
C335   C     0.40147   0.49935   0.15486   0.00000  Uiso   1.00
C336   C     0.59328   0.61781   0.09692   0.00000  Uiso   1.00
C337   C     0.61831   0.60735   0.05862   0.00000  Uiso   1.00
C338   C     0.59145   0.60736   0.01314   0.00000  Uiso   1.00
C339   C     0.53939   0.61660   0.00615   0.00000  Uiso   1.00
C340   C     0.51445   0.62754   0.04426   0.00000  Uiso   1.00
C341   C     0.45845   0.37117   0.24359   0.00000  Uiso   1.00
C342   C     0.48559   0.37250   0.28907   0.00000  Uiso   1.00
C343   C     0.46066   0.38343   0.32719   0.00000  Uiso   1.00
C344   C     0.40859   0.39263   0.32022   0.00000  Uiso   1.00
C345   C     0.38171   0.39262   0.27475   0.00000  Uiso   1.00
C346   C     0.59853   0.50065   0.17847   0.00000  Uiso   1.00
C347   C     0.40672   0.38215   0.23644   0.00000  Uiso   1.00
C348   C     0.34697   0.49287   0.14989   0.00000  Uiso   1.00
C349   C     0.65303   0.50713   0.18344   0.00000  Uiso   1.00
C350   C     0.51516   0.35602   0.12953   0.00000  Uiso   1.00
C351   C     0.48485   0.64398   0.20380   0.00000  Uiso   1.00
C352   C     0.51799   0.64694   0.12861   0.00000  Uiso   1.00
Cu353  Cu    0.50000   0.50001   0.21355   0.00000  Uiso   1.00
Cu354  Cu    0.50000   0.49999   0.11978   0.00000  Uiso   1.00
H355   H     0.52824   0.37352   0.10113   0.00000  Uiso   1.00
H356   H     0.61989   0.36362   0.10594   0.00000  Uiso   1.00
H357   H     0.64875   0.41543   0.16522   0.00000  Uiso   1.00
H358   H     0.35127   0.58457   0.16814   0.00000  Uiso   1.00
H359   H     0.38014   0.63636   0.22742   0.00000  Uiso   1.00
H360   H     0.39119   0.61844   0.31262   0.00000  Uiso   1.00
H361   H     0.36915   0.54877   0.00496   0.00000  Uiso   1.00
H362   H     0.33513   0.49740   0.27919   0.00000  Uiso   1.00
H363   H     0.61453   0.61947   0.13181   0.00000  Uiso   1.00
H364   H     0.65853   0.59976   0.06411   0.00000  Uiso   1.00
H365   H     0.61058   0.59966   0.31663   0.00000  Uiso   1.00
H366   H     0.47177   0.62648   0.23221   0.00000  Uiso   1.00
H367   H     0.51853   0.61562   0.30447   0.00000  Uiso   1.00
H368   H     0.47444   0.63583   0.03828   0.00000  Uiso   1.00
H369   H     0.52561   0.36423   0.29503   0.00000  Uiso   1.00
H370   H     0.48154   0.38444   0.02885   0.00000  Uiso   1.00
H371   H     0.38947   0.40033   0.01673   0.00000  Uiso   1.00
H372   H     0.34147   0.40017   0.26928   0.00000  Uiso   1.00
H373   H     0.38544   0.38047   0.20156   0.00000  Uiso   1.00
H374   H     0.42729   0.47172   0.03473   0.00000  Uiso   1.00
H375   H     0.57271   0.52829   0.29861   0.00000  Uiso   1.00
H376   H     0.42764   0.47153   0.28154   0.00000  Uiso   1.00
H377   H     0.57236   0.52846   0.05179   0.00000  Uiso   1.00
H378   H     0.66486   0.50258   0.05414   0.00000  Uiso   1.00
H379   H     0.63085   0.45120   0.32838   0.00000  Uiso   1.00
H380   H     0.60883   0.38152   0.02074   0.00000  Uiso   1.00
N381   N     0.50001   0.50001   0.28403   0.00000  Uiso   1.00
N382   N     0.49999   0.49999   0.04931   0.00000  Uiso   1.00
O383   O     0.50000   0.43989   0.20625   0.00000  Uiso   1.00
O384   O     0.50000   0.56011   0.12709   0.00000  Uiso   1.00
O385   O     0.50000   0.43988   0.12706   0.00000  Uiso   1.00
O386   O     0.50000   0.56012   0.20628   0.00000  Uiso   1.00
O387   O     0.42495   0.50000   0.19712   0.00000  Uiso   1.00
O388   O     0.57505   0.50000   0.13621   0.00000  Uiso   1.00
O389   O     0.42494   0.49999   0.11793   0.00000  Uiso   1.00
O390   O     0.57506   0.50001   0.21540   0.00000  Uiso   1.00
C391   C     0.83186   0.42075   0.16681   0.00000  Uiso   1.00
C392   C     0.81534   0.35306   0.20472   0.00000  Uiso   1.00
C393   C     0.83551   0.62389   0.16609   0.00000  Uiso   1.00
C394   C     0.83116   0.37611   0.16724   0.00000  Uiso   1.00
C395   C     0.79299   0.48438   0.02004   0.00000  Uiso   1.00
C396   C     0.87367   0.51563   0.31329   0.00000  Uiso   1.00
C397   C     0.79310   0.48432   0.30387   0.00000  Uiso   1.00
C398   C     0.87357   0.51568   0.02946   0.00000  Uiso   1.00
C399   C     0.99297   0.46254   0.11390   0.00000  Uiso   1.00
C400   C     0.98807   0.47237   0.06564   0.00000  Uiso   1.00
C401   C     0.96888   0.44342   0.03218   0.00000  Uiso   1.00
C402   C     0.83481   0.57925   0.16653   0.00000  Uiso   1.00
C403   C     0.95623   0.40415   0.04663   0.00000  Uiso   1.00
C404   C     0.96217   0.39403   0.09458   0.00000  Uiso   1.00
C405   C     0.97932   0.42329   0.12815   0.00000  Uiso   1.00
C406   C     0.67370   0.53745   0.21944   0.00000  Uiso   1.00
C407   C     0.68736   0.57670   0.20520   0.00000  Uiso   1.00
C408   C     0.70452   0.60595   0.23878   0.00000  Uiso   1.00
C409   C     0.71045   0.59583   0.28672   0.00000  Uiso   1.00
C410   C     0.69779   0.55655   0.30117   0.00000  Uiso   1.00
C411   C     0.67859   0.52761   0.26770   0.00000  Uiso   1.00
C412   C     0.87489   0.62883   0.08974   0.00000  Uiso   1.00
C413   C     0.73480   0.49935   0.15486   0.00000  Uiso   1.00
C414   C     0.92661   0.61781   0.09692   0.00000  Uiso   1.00
C415   C     0.95164   0.60735   0.05862   0.00000  Uiso   1.00
C416   C     0.92478   0.60736   0.01314   0.00000  Uiso   1.00
C417   C     0.87272   0.61660   0.00615   0.00000  Uiso   1.00
C418   C     0.84778   0.62754   0.04426   0.00000  Uiso   1.00
C419   C     0.79178   0.37117   0.24359   0.00000  Uiso   1.00
C420   C     0.81892   0.37250   0.28907   0.00000  Uiso   1.00
C421   C     0.79400   0.38343   0.32719   0.00000  Uiso   1.00
C422   C     0.74192   0.39263   0.32022   0.00000  Uiso   1.00
C423   C     0.71504   0.39262   0.27475   0.00000  Uiso   1.00
C424   C     0.93187   0.50065   0.17847   0.00000  Uiso   1.00
C425   C     0.74005   0.38215   0.23644   0.00000  Uiso   1.00
C426   C     0.68031   0.49287   0.14989   0.00000  Uiso   1.00
C427   C     0.98636   0.50713   0.18344   0.00000  Uiso   1.00
C428   C     0.84849   0.35602   0.12953   0.00000  Uiso   1.00
C429   C     0.81818   0.64398   0.20380   0.00000  Uiso   1.00
C430   C     0.85133   0.64694   0.12861   0.00000  Uiso   1.00
Cu431  Cu    0.83333   0.50001   0.21355   0.00000  Uiso   1.00
Cu432  Cu    0.83333   0.49999   0.11978   0.00000  Uiso   1.00
H433   H     0.86157   0.37352   0.10113   0.00000  Uiso   1.00
H434   H     0.95322   0.36362   0.10594   0.00000  Uiso   1.00
H435   H     0.98208   0.41543   0.16522   0.00000  Uiso   1.00
H436   H     0.68461   0.58457   0.16814   0.00000  Uiso   1.00
H437   H     0.71348   0.63636   0.22742   0.00000  Uiso   1.00
H438   H     0.72453   0.61844   0.31262   0.00000  Uiso   1.00
H439   H     0.70249   0.54877   0.00496   0.00000  Uiso   1.00
H440   H     0.66846   0.49740   0.27919   0.00000  Uiso   1.00
H441   H     0.94787   0.61947   0.13181   0.00000  Uiso   1.00
H442   H     0.99187   0.59976   0.06411   0.00000  Uiso   1.00
H443   H     0.94391   0.59966   0.31663   0.00000  Uiso   1.00
H444   H     0.80510   0.62648   0.23221   0.00000  Uiso   1.00
H445   H     0.85186   0.61562   0.30447   0.00000  Uiso   1.00
H446   H     0.80777   0.63583   0.03828   0.00000  Uiso   1.00
H447   H     0.85894   0.36423   0.29503   0.00000  Uiso   1.00
H448   H     0.81488   0.38444   0.02885   0.00000  Uiso   1.00
H449   H     0.72281   0.40033   0.01673   0.00000  Uiso   1.00
H450   H     0.67480   0.40017   0.26928   0.00000  Uiso   1.00
H451   H     0.71878   0.38047   0.20156   0.00000  Uiso   1.00
H452   H     0.76062   0.47172   0.03473   0.00000  Uiso   1.00
H453   H     0.90605   0.52829   0.29861   0.00000  Uiso   1.00
H454   H     0.76097   0.47153   0.28154   0.00000  Uiso   1.00
H455   H     0.90569   0.52846   0.05179   0.00000  Uiso   1.00
H456   H     0.99819   0.50258   0.05414   0.00000  Uiso   1.00
H457   H     0.96418   0.45120   0.32838   0.00000  Uiso   1.00
H458   H     0.94216   0.38152   0.02074   0.00000  Uiso   1.00
N459   N     0.83335   0.50001   0.28403   0.00000  Uiso   1.00
N460   N     0.83332   0.49999   0.04931   0.00000  Uiso   1.00
O461   O     0.83333   0.43989   0.20625   0.00000  Uiso   1.00
O462   O     0.83334   0.56011   0.12709   0.00000  Uiso   1.00
O463   O     0.83333   0.43988   0.12706   0.00000  Uiso   1.00
O464   O     0.83334   0.56012   0.20628   0.00000  Uiso   1.00
O465   O     0.75828   0.50000   0.19712   0.00000  Uiso   1.00
O466   O     0.90839   0.50000   0.13621   0.00000  Uiso   1.00
O467   O     0.75828   0.49999   0.11793   0.00000  Uiso   1.00
O468   O     0.90839   0.50001   0.21540   0.00000  Uiso   1.00
C469   C     0.16519   0.75408   0.16681   0.00000  Uiso   1.00
C470   C     0.14867   0.68640   0.20472   0.00000  Uiso   1.00
C471   C     0.16884   0.95722   0.16609   0.00000  Uiso   1.00
C472   C     0.16449   0.70944   0.16724   0.00000  Uiso   1.00
C473   C     0.12633   0.81771   0.02004   0.00000  Uiso   1.00
C474   C     0.20701   0.84896   0.31329   0.00000  Uiso   1.00
C475   C     0.12643   0.81765   0.30387   0.00000  Uiso   1.00
C476   C     0.20690   0.84902   0.02946   0.00000  Uiso   1.00
C477   C     0.32631   0.79587   0.11390   0.00000  Uiso   1.00
C478   C     0.32141   0.80571   0.06564   0.00000  Uiso   1.00
C479   C     0.30221   0.77675   0.03218   0.00000  Uiso   1.00
C480   C     0.16814   0.91258   0.16653   0.00000  Uiso   1.00
C481   C     0.28957   0.73748   0.04663   0.00000  Uiso   1.00
C482   C     0.29551   0.72736   0.09458   0.00000  Uiso   1.00
C483   C     0.31266   0.75662   0.12815   0.00000  Uiso   1.00
C484   C     0.00703   0.87078   0.21944   0.00000  Uiso   1.00
C485   C     0.02069   0.91003   0.20520   0.00000  Uiso   1.00
C486   C     0.03785   0.93929   0.23878   0.00000  Uiso   1.00
C487   C     0.04379   0.92916   0.28672   0.00000  Uiso   1.00
C488   C     0.03113   0.88989   0.30117   0.00000  Uiso   1.00
C489   C     0.01192   0.86094   0.26770   0.00000  Uiso   1.00
C490   C     0.20823   0.96216   0.08974   0.00000  Uiso   1.00
C491   C     0.06813   0.83268   0.15486   0.00000  Uiso   1.00
C492   C     0.25995   0.95115   0.09692   0.00000  Uiso   1.00
C493   C     0.28497   0.94068   0.05862   0.00000  Uiso   1.00
C494   C     0.25812   0.94070   0.01314   0.00000  Uiso   1.00
C495   C     0.20606   0.94993   0.00615   0.00000  Uiso   1.00
C496   C     0.18111   0.96087   0.04426   0.00000  Uiso   1.00
C497   C     0.12512   0.70450   0.24359   0.00000  Uiso   1.00
C498   C     0.15226   0.70583   0.28907   0.00000  Uiso   1.00
C499   C     0.12733   0.71676   0.32719   0.00000  Uiso   1.00
C500   C     0.07526   0.72597   0.32022   0.00000  Uiso   1.00
C501   C     0.04837   0.72595   0.27475   0.00000  Uiso   1.00
C502   C     0.26520   0.83398   0.17847   0.00000  Uiso   1.00
C503   C     0.07338   0.71549   0.23644   0.00000  Uiso   1.00
C504   C     0.01364   0.82620   0.14989   0.00000  Uiso   1.00
C505   C     0.31969   0.84046   0.18344   0.00000  Uiso   1.00
C506   C     0.18182   0.68935   0.12953   0.00000  Uiso   1.00
C507   C     0.15151   0.97732   0.20380   0.00000  Uiso   1.00
C508   C     0.18466   0.98027   0.12861   0.00000  Uiso   1.00
Cu509  Cu    0.16667   0.83334   0.21355   0.00000  Uiso   1.00
Cu510  Cu    0.16667   0.83333   0.11978   0.00000  Uiso   1.00
H511   H     0.19490   0.70685   0.10113   0.00000  Uiso   1.00
H512   H     0.28655   0.69695   0.10594   0.00000  Uiso   1.00
H513   H     0.31541   0.74876   0.16522   0.00000  Uiso   1.00
H514   H     0.01794   0.91790   0.16814   0.00000  Uiso   1.00
H515   H     0.04681   0.96970   0.22742   0.00000  Uiso   1.00
H516   H     0.05786   0.95178   0.31262   0.00000  Uiso   1.00
H517   H     0.03582   0.88210   0.00496   0.00000  Uiso   1.00
H518   H     0.00179   0.83073   0.27919   0.00000  Uiso   1.00
H519   H     0.28120   0.95280   0.13181   0.00000  Uiso   1.00
H520   H     0.32520   0.93310   0.06411   0.00000  Uiso   1.00
H521   H     0.27725   0.93300   0.31663   0.00000  Uiso   1.00
H522   H     0.13844   0.95982   0.23221   0.00000  Uiso   1.00
H523   H     0.18520   0.94895   0.30447   0.00000  Uiso   1.00
H524   H     0.14110   0.96916   0.03828   0.00000  Uiso   1.00
H525   H     0.19227   0.69756   0.29503   0.00000  Uiso   1.00
H526   H     0.14821   0.71777   0.02885   0.00000  Uiso   1.00
H527   H     0.05614   0.73366   0.01673   0.00000  Uiso   1.00
H528   H     0.00814   0.73351   0.26928   0.00000  Uiso   1.00
H529   H     0.05211   0.71381   0.20156   0.00000  Uiso   1.00
H530   H     0.09395   0.80505   0.03473   0.00000  Uiso   1.00
H531   H     0.23938   0.86162   0.29861   0.00000  Uiso   1.00
H532   H     0.09431   0.80487   0.28154   0.00000  Uiso   1.00
H533   H     0.23903   0.86180   0.05179   0.00000  Uiso   1.00
H534   H     0.33152   0.83592   0.05414   0.00000  Uiso   1.00
H535   H     0.29752   0.78454   0.32838   0.00000  Uiso   1.00
H536   H     0.27550   0.71486   0.02074   0.00000  Uiso   1.00
N537   N     0.16668   0.83334   0.28403   0.00000  Uiso   1.00
N538   N     0.16665   0.83332   0.04931   0.00000  Uiso   1.00
O539   O     0.16666   0.77322   0.20625   0.00000  Uiso   1.00
O540   O     0.16667   0.89345   0.12709   0.00000  Uiso   1.00
O541   O     0.16666   0.77321   0.12706   0.00000  Uiso   1.00
O542   O     0.16667   0.89346   0.20628   0.00000  Uiso   1.00
O543   O     0.09161   0.83334   0.19712   0.00000  Uiso   1.00
O544   O     0.24172   0.83333   0.13621   0.00000  Uiso   1.00
O545   O     0.09161   0.83333   0.11793   0.00000  Uiso   1.00
O546   O     0.24172   0.83334   0.21540   0.00000  Uiso   1.00
C547   C     0.49853   0.75408   0.16681   0.00000  Uiso   1.00
C548   C     0.48201   0.68640   0.20472   0.00000  Uiso   1.00
C549   C     0.50218   0.95722   0.16609   0.00000  Uiso   1.00
C550   C     0.49782   0.70944   0.16724   0.00000  Uiso   1.00
C551   C     0.45966   0.81771   0.02004   0.00000  Uiso   1.00
C552   C     0.54034   0.84896   0.31329   0.00000  Uiso   1.00
C553   C     0.45977   0.81765   0.30387   0.00000  Uiso   1.00
C554   C     0.54023   0.84902   0.02946   0.00000  Uiso   1.00
C555   C     0.65964   0.79587   0.11390   0.00000  Uiso   1.00
C556   C     0.65474   0.80571   0.06564   0.00000  Uiso   1.00
C557   C     0.63555   0.77675   0.03218   0.00000  Uiso   1.00
C558   C     0.50147   0.91258   0.16653   0.00000  Uiso   1.00
C559   C     0.62290   0.73748   0.04663   0.00000  Uiso   1.00
C560   C     0.62884   0.72736   0.09458   0.00000  Uiso   1.00
C561   C     0.64599   0.75662   0.12815   0.00000  Uiso   1.00
C562   C     0.34036   0.87078   0.21944   0.00000  Uiso   1.00
C563   C     0.35402   0.91003   0.20520   0.00000  Uiso   1.00
C564   C     0.37118   0.93929   0.23878   0.00000  Uiso   1.00
C565   C     0.37712   0.92916   0.28672   0.00000  Uiso   1.00
C566   C     0.36446   0.88989   0.30117   0.00000  Uiso   1.00
C567   C     0.34526   0.86094   0.26770   0.00000  Uiso   1.00
C568   C     0.54156   0.96216   0.08974   0.00000  Uiso   1.00
C569   C     0.40147   0.83268   0.15486   0.00000  Uiso   1.00
C570   C     0.59328   0.95115   0.09692   0.00000  Uiso   1.00
C571   C     0.61831   0.94068   0.05862   0.00000  Uiso   1.00
C572   C     0.59145   0.94070   0.01314   0.00000  Uiso   1.00
C573   C     0.53939   0.94993   0.00615   0.00000  Uiso   1.00
C574   C     0.51445   0.96087   0.04426   0.00000  Uiso   1.00
C575   C     0.45845   0.70450   0.24359   0.00000  Uiso   1.00
C576   C     0.48559   0.70583   0.28907   0.00000  Uiso   1.00
C577   C     0.46066   0.71676   0.32719   0.00000  Uiso   1.00
C578   C     0.40859   0.72597   0.32022   0.00000  Uiso   1.00
C579   C     0.38171   0.72595   0.27475   0.00000  Uiso   1.00
C580   C     0.59853   0.83398   0.17847   0.00000  Uiso   1.00
C581   C     0.40672   0.71549   0.23644   0.00000  Uiso   1.00
C582   C     0.34697   0.82620   0.14989   0.00000  Uiso   1.00
C583   C     0.65303   0.84046   0.18344   0.00000  Uiso   1.00
C584   C     0.51516   0.68935   0.12953   0.00000  Uiso   1.00
C585   C     0.48485   0.97732   0.20380   0.00000  Uiso   1.00
C586   C     0.51799   0.98027   0.12861   0.00000  Uiso   1.00
Cu587  Cu    0.50000   0.83334   0.21355   0.00000  Uiso   1.00
Cu588  Cu    0.50000   0.83333   0.11978   0.00000  Uiso   1.00
H589   H     0.52824   0.70685   0.10113   0.00000  Uiso   1.00
H590   H     0.61989   0.69695   0.10594   0.00000  Uiso   1.00
H591   H     0.64875   0.74876   0.16522   0.00000  Uiso   1.00
H592   H     0.35127   0.91790   0.16814   0.00000  Uiso   1.00
H593   H     0.38014   0.96970   0.22742   0.00000  Uiso   1.00
H594   H     0.39119   0.95178   0.31262   0.00000  Uiso   1.00
H595   H     0.36915   0.88210   0.00496   0.00000  Uiso   1.00
H596   H     0.33513   0.83073   0.27919   0.00000  Uiso   1.00
H597   H     0.61453   0.95280   0.13181   0.00000  Uiso   1.00
H598   H     0.65853   0.93310   0.06411   0.00000  Uiso   1.00
H599   H     0.61058   0.93300   0.31663   0.00000  Uiso   1.00
H600   H     0.47177   0.95982   0.23221   0.00000  Uiso   1.00
H601   H     0.51853   0.94895   0.30447   0.00000  Uiso   1.00
H602   H     0.47444   0.96916   0.03828   0.00000  Uiso   1.00
H603   H     0.52561   0.69756   0.29503   0.00000  Uiso   1.00
H604   H     0.48154   0.71777   0.02885   0.00000  Uiso   1.00
H605   H     0.38947   0.73366   0.01673   0.00000  Uiso   1.00
H606   H     0.34147   0.73351   0.26928   0.00000  Uiso   1.00
H607   H     0.38544   0.71381   0.20156   0.00000  Uiso   1.00
H608   H     0.42729   0.80505   0.03473   0.00000  Uiso   1.00
H609   H     0.57271   0.86162   0.29861   0.00000  Uiso   1.00
H610   H     0.42764   0.80487   0.28154   0.00000  Uiso   1.00
H611   H     0.57236   0.86180   0.05179   0.00000  Uiso   1.00
H612   H     0.66486   0.83592   0.05414   0.00000  Uiso   1.00
H613   H     0.63085   0.78454   0.32838   0.00000  Uiso   1.00
H614   H     0.60883   0.71486   0.02074   0.00000  Uiso   1.00
N615   N     0.50001   0.83334   0.28403   0.00000  Uiso   1.00
N616   N     0.49999   0.83332   0.04931   0.00000  Uiso   1.00
O617   O     0.50000   0.77322   0.20625   0.00000  Uiso   1.00
O618   O     0.50000   0.89345   0.12709   0.00000  Uiso   1.00
O619   O     0.50000   0.77321   0.12706   0.00000  Uiso   1.00
O620   O     0.50000   0.89346   0.20628   0.00000  Uiso   1.00
O621   O     0.42495   0.83334   0.19712   0.00000  Uiso   1.00
O622   O     0.57505   0.83333   0.13621   0.00000  Uiso   1.00
O623   O     0.42494   0.83333   0.11793   0.00000  Uiso   1.00
O624   O     0.57506   0.83334   0.21540   0.00000  Uiso   1.00
C625   C     0.83186   0.75408   0.16681   0.00000  Uiso   1.00
C626   C     0.81534   0.68640   0.20472   0.00000  Uiso   1.00
C627   C     0.83551   0.95722   0.16609   0.00000  Uiso   1.00
C628   C     0.83116   0.70944   0.16724   0.00000  Uiso   1.00
C629   C     0.79299   0.81771   0.02004   0.00000  Uiso   1.00
C630   C     0.87367   0.84896   0.31329   0.00000  Uiso   1.00
C631   C     0.79310   0.81765   0.30387   0.00000  Uiso   1.00
C632   C     0.87357   0.84902   0.02946   0.00000  Uiso   1.00
C633   C     0.99297   0.79587   0.11390   0.00000  Uiso   1.00
C634   C     0.98807   0.80571   0.06564   0.00000  Uiso   1.00
C635   C     0.96888   0.77675   0.03218   0.00000  Uiso   1.00
C636   C     0.83481   0.91258   0.16653   0.00000  Uiso   1.00
C637   C     0.95623   0.73748   0.04663   0.00000  Uiso   1.00
C638   C     0.96217   0.72736   0.09458   0.00000  Uiso   1.00
C639   C     0.97932   0.75662   0.12815   0.00000  Uiso   1.00
C640   C     0.67370   0.87078   0.21944   0.00000  Uiso   1.00
C641   C     0.68736   0.91003   0.20520   0.00000  Uiso   1.00
C642   C     0.70452   0.93929   0.23878   0.00000  Uiso   1.00
C643   C     0.71045   0.92916   0.28672   0.00000  Uiso   1.00
C644   C     0.69779   0.88989   0.30117   0.00000  Uiso   1.00
C645   C     0.67859   0.86094   0.26770   0.00000  Uiso   1.00
C646   C     0.87489   0.96216   0.08974   0.00000  Uiso   1.00
C647   C     0.73480   0.83268   0.15486   0.00000  Uiso   1.00
C648   C     0.92661   0.95115   0.09692   0.00000  Uiso   1.00
C649   C     0.95164   0.94068   0.05862   0.00000  Uiso   1.00
C650   C     0.92478   0.94070   0.01314   0.00000  Uiso   1.00
C651   C     0.87272   0.94993   0.00615   0.00000  Uiso   1.00
C652   C     0.84778   0.96087   0.04426   0.00000  Uiso   1.00
C653   C     0.79178   0.70450   0.24359   0.00000  Uiso   1.00
C654   C     0.81892   0.70583   0.28907   0.00000  Uiso   1.00
C655   C     0.79400   0.71676   0.32719   0.00000  Uiso   1.00
C656   C     0.74192   0.72597   0.32022   0.00000  Uiso   1.00
C657   C     0.71504   0.72595   0.27475   0.00000  Uiso   1.00
C658   C     0.93187   0.83398   0.17847   0.00000  Uiso   1.00
C659   C     0.74005   0.71549   0.23644   0.00000  Uiso   1.00
C660   C     0.68031   0.82620   0.14989   0.00000  Uiso   1.00
C661   C     0.98636   0.84046   0.18344   0.00000  Uiso   1.00
C662   C     0.84849   0.68935   0.12953   0.00000  Uiso   1.00
C663   C     0.81818   0.97732   0.20380   0.00000  Uiso   1.00
C664   C     0.85133   0.98027   0.12861   0.00000  Uiso   1.00
Cu665  Cu    0.83333   0.83334   0.21355   0.00000  Uiso   1.00
Cu666  Cu    0.83333   0.83333   0.11978   0.00000  Uiso   1.00
H667   H     0.86157   0.70685   0.10113   0.00000  Uiso   1.00
H668   H     0.95322   0.69695   0.10594   0.00000  Uiso   1.00
H669   H     0.98208   0.74876   0.16522   0.00000  Uiso   1.00
H670   H     0.68461   0.91790   0.16814   0.00000  Uiso   1.00
H671   H     0.71348   0.96970   0.22742   0.00000  Uiso   1.00
H672   H     0.72453   0.95178   0.31262   0.00000  Uiso   1.00
H673   H     0.70249   0.88210   0.00496   0.00000  Uiso   1.00
H674   H     0.66846   0.83073   0.27919   0.00000  Uiso   1.00
H675   H     0.94787   0.95280   0.13181   0.00000  Uiso   1.00
H676   H     0.99187   0.93310   0.06411   0.00000  Uiso   1.00
H677   H     0.94391   0.93300   0.31663   0.00000  Uiso   1.00
H678   H     0.80510   0.95982   0.23221   0.00000  Uiso   1.00
H679   H     0.85186   0.94895   0.30447   0.00000  Uiso   1.00
H680   H     0.80777   0.96916   0.03828   0.00000  Uiso   1.00
H681   H     0.85894   0.69756   0.29503   0.00000  Uiso   1.00
H682   H     0.81488   0.71777   0.02885   0.00000  Uiso   1.00
H683   H     0.72281   0.73366   0.01673   0.00000  Uiso   1.00
H684   H     0.67480   0.73351   0.26928   0.00000  Uiso   1.00
H685   H     0.71878   0.71381   0.20156   0.00000  Uiso   1.00
H686   H     0.76062   0.80505   0.03473   0.00000  Uiso   1.00
H687   H     0.90605   0.86162   0.29861   0.00000  Uiso   1.00
H688   H     0.76097   0.80487   0.28154   0.00000  Uiso   1.00
H689   H     0.90569   0.86180   0.05179   0.00000  Uiso   1.00
H690   H     0.99819   0.83592   0.05414   0.00000  Uiso   1.00
H691   H     0.96418   0.78454   0.32838   0.00000  Uiso   1.00
H692   H     0.94216   0.71486   0.02074   0.00000  Uiso   1.00
N693   N     0.83335   0.83334   0.28403   0.00000  Uiso   1.00
N694   N     0.83332   0.83332   0.04931   0.00000  Uiso   1.00
O695   O     0.83333   0.77322   0.20625   0.00000  Uiso   1.00
O696   O     0.83334   0.89345   0.12709   0.00000  Uiso   1.00
O697   O     0.83333   0.77321   0.12706   0.00000  Uiso   1.00
O698   O     0.83334   0.89346   0.20628   0.00000  Uiso   1.00
O699   O     0.75828   0.83334   0.19712   0.00000  Uiso   1.00
O700   O     0.90839   0.83333   0.13621   0.00000  Uiso   1.00
O701   O     0.75828   0.83333   0.11793   0.00000  Uiso   1.00
O702   O     0.90839   0.83334   0.21540   0.00000  Uiso   1.00
C703   C     0.16519   0.08742   0.50014   0.00000  Uiso   1.00
C704   C     0.14867   0.01973   0.53805   0.00000  Uiso   1.00
C705   C     0.16884   0.29056   0.49943   0.00000  Uiso   1.00
C706   C     0.16449   0.04278   0.50057   0.00000  Uiso   1.00
C707   C     0.12633   0.15104   0.35337   0.00000  Uiso   1.00
C708   C     0.20701   0.18229   0.64663   0.00000  Uiso   1.00
C709   C     0.12643   0.15098   0.63720   0.00000  Uiso   1.00
C710   C     0.20690   0.18235   0.36280   0.00000  Uiso   1.00
C711   C     0.32631   0.12921   0.44723   0.00000  Uiso   1.00
C712   C     0.32141   0.13904   0.39897   0.00000  Uiso   1.00
C713   C     0.30221   0.11009   0.36551   0.00000  Uiso   1.00
C714   C     0.16814   0.24592   0.49986   0.00000  Uiso   1.00
C715   C     0.28957   0.07081   0.37997   0.00000  Uiso   1.00
C716   C     0.29551   0.06069   0.42791   0.00000  Uiso   1.00
C717   C     0.31266   0.08996   0.46148   0.00000  Uiso   1.00
C718   C     0.00703   0.20412   0.55278   0.00000  Uiso   1.00
C719   C     0.02069   0.24337   0.53854   0.00000  Uiso   1.00
C720   C     0.03785   0.27262   0.57211   0.00000  Uiso   1.00
C721   C     0.04379   0.26249   0.62006   0.00000  Uiso   1.00
C722   C     0.03113   0.22322   0.63450   0.00000  Uiso   1.00
C723   C     0.01192   0.19427   0.60104   0.00000  Uiso   1.00
C724   C     0.20823   0.29550   0.42308   0.00000  Uiso   1.00
C725   C     0.06813   0.16602   0.48820   0.00000  Uiso   1.00
C726   C     0.25995   0.28448   0.43026   0.00000  Uiso   1.00
C727   C     0.28497   0.27401   0.39196   0.00000  Uiso   1.00
C728   C     0.25812   0.27403   0.34647   0.00000  Uiso   1.00
C729   C     0.20606   0.28327   0.33948   0.00000  Uiso   1.00
C730   C     0.18111   0.29420   0.37759   0.00000  Uiso   1.00
C731   C     0.12512   0.03784   0.57693   0.00000  Uiso   1.00
C732   C     0.15226   0.03916   0.62240   0.00000  Uiso   1.00
C733   C     0.12733   0.05010   0.66052   0.00000  Uiso   1.00
C734   C     0.07526   0.05930   0.65356   0.00000  Uiso   1.00
C735   C     0.04837   0.05928   0.60808   0.00000  Uiso   1.00
C736   C     0.26520   0.16731   0.51180   0.00000  Uiso   1.00
C737   C     0.07338   0.04882   0.56977   0.00000  Uiso   1.00
C738   C     0.01364   0.15954   0.48323   0.00000  Uiso   1.00
C739   C     0.31969   0.17379   0.51677   0.00000  Uiso   1.00
C740   C     0.18182   0.02268   0.46287   0.00000  Uiso   1.00
C741   C     0.15151   0.31065   0.53713   0.00000  Uiso   1.00
C742   C     0.18466   0.31360   0.46195   0.00000  Uiso   1.00
Cu743  Cu    0.16667   0.16667   0.54689   0.00000  Uiso   1.00
Cu744  Cu    0.16667   0.16666   0.45311   0.00000  Uiso   1.00
H745   H     0.19490   0.04018   0.43447   0.00000  Uiso   1.00
H746   H     0.28655   0.03028   0.43927   0.00000  Uiso   1.00
H747   H     0.31541   0.08209   0.49855   0.00000  Uiso   1.00
H748   H     0.01794   0.25123   0.50147   0.00000  Uiso   1.00
H749   H     0.04681   0.30303   0.56076   0.00000  Uiso   1.00
H750   H     0.05786   0.28511   0.64596   0.00000  Uiso   1.00
H751   H     0.03582   0.21543   0.33830   0.00000  Uiso   1.00
H752   H     0.00179   0.16407   0.61253   0.00000  Uiso   1.00
H753   H     0.28120   0.28613   0.46514   0.00000  Uiso   1.00
H754   H     0.32520   0.26643   0.39745   0.00000  Uiso   1.00
H755   H     0.27725   0.26633   0.64997   0.00000  Uiso   1.00
H756   H     0.13844   0.29315   0.56554   0.00000  Uiso   1.00
H757   H     0.18520   0.28229   0.63781   0.00000  Uiso   1.00
H758   H     0.14110   0.30249   0.37162   0.00000  Uiso   1.00
H759   H     0.19227   0.03090   0.62836   0.00000  Uiso   1.00
H760   H     0.14821   0.05111   0.36219   0.00000  Uiso   1.00
H761   H     0.05614   0.06700   0.35007   0.00000  Uiso   1.00
H762   H     0.00814   0.06684   0.60261   0.00000  Uiso   1.00
H763   H     0.05211   0.04714   0.53490   0.00000  Uiso   1.00
H764   H     0.09395   0.13838   0.36806   0.00000  Uiso   1.00
H765   H     0.23938   0.19495   0.63194   0.00000  Uiso   1.00
H766   H     0.09431   0.13820   0.61487   0.00000  Uiso   1.00
H767   H     0.23903   0.19513   0.38513   0.00000  Uiso   1.00
H768   H     0.33152   0.16925   0.38747   0.00000  Uiso   1.00
H769   H     0.29752   0.11787   0.66171   0.00000  Uiso   1.00
H770   H     0.27550   0.04819   0.35407   0.00000  Uiso   1.00
N771   N     0.16668   0.16668   0.61736   0.00000  Uiso   1.00
N772   N     0.16665   0.16666   0.38264   0.00000  Uiso   1.00
O773   O     0.16666   0.10655   0.53958   0.00000  Uiso   1.00
O774   O     0.16667   0.22678   0.46042   0.00000  Uiso   1.00
O775   O     0.16666   0.10654   0.46039   0.00000  Uiso   1.00
O776   O     0.16667   0.22679   0.53961   0.00000  Uiso   1.00
O777   O     0.09161   0.16667   0.53046   0.00000  Uiso   1.00
O778   O     0.24172   0.16666   0.46954   0.00000  Uiso   1.00
O779   O     0.09161   0.16666   0.45127   0.00000  Uiso   1.00
O780   O     0.24172   0.16667   0.54873   0.00000  Uiso   1.00
C781   C     0.49853   0.08742   0.50014   0.00000  Uiso   1.00
C782   C     0.48201   0.01973   0.53805   0.00000  Uiso   1.00
C783   C     0.50218   0.29056   0.49943   0.00000  Uiso   1.00
C784   C     0.49782   0.04278   0.50057   0.00000  Uiso   1.00
C785   C     0.45966   0.15104   0.35337   0.00000  Uiso   1.00
C786   C     0.54034   0.18229   0.64663   0.00000  Uiso   1.00
C787   C     0.45977   0.15098   0.63720   0.00000  Uiso   1.00
C788   C     0.54023   0.18235   0.36280   0.00000  Uiso   1.00
C789   C     0.65964   0.12921   0.44723   0.00000  Uiso   1.00
C790   C     0.65474   0.13904   0.39897   0.00000  Uiso   1.00
C791   C     0.63555   0.11009   0.36551   0.00000  Uiso   1.00
C792   C     0.50147   0.24592   0.49986   0.00000  Uiso   1.00
C793   C     0.62290   0.07081   0.37997   0.00000  Uiso   1.00
C794   C     0.62884   0.06069   0.42791   0.00000  Uiso   1.00
C795   C     0.64599   0.08996   0.46148   0.00000  Uiso   1.00
C796   C     0.34036   0.20412   0.55278   0.00000  Uiso   1.00
C797   C     0.35402   0.24337   0.53854   0.00000  Uiso   1.00
C798   C     0.37118   0.27262   0.57211   0.00000  Uiso   1.00
C799   C     0.37712   0.26249   0.62006   0.00000  Uiso   1.00
C800   C     0.36446   0.22322   0.63450   0.00000  Uiso   1.00
C801   C     0.34526   0.19427   0.60104   0.00000  Uiso   1.00
C802   C     0.54156   0.29550   0.42308   0.00000  Uiso   1.00
C803   C     0.40147   0.16602   0.48820   0.00000  Uiso   1.00
C804   C     0.59328   0.28448   0.43026   0.00000  Uiso   1.00
C805   C     0.61831   0.27401   0.39196   0.00000  Uiso   1.00
C806   C     0.59145   0.27403   0.34647   0.00000  Uiso   1.00
C807   C     0.53939   0.28327   0.33948   0.00000  Uiso   1.00
C808   C     0.51445   0.29420   0.37759   0.00000  Uiso   1.00
C809   C     0.45845   0.03784   0.57693   0.00000  Uiso   1.00
C810   C     0.48559   0.03916   0.62240   0.00000  Uiso   1.00
C811   C     0.46066   0.05010   0.66052   0.00000  Uiso   1.00
C812   C     0.40859   0.05930   0.65356   0.00000  Uiso   1.00
C813   C     0.38171   0.05928   0.60808   0.00000  Uiso   1.00
C814   C     0.59853   0.16731   0.51180   0.00000  Uiso   1.00
C815   C     0.40672   0.04882   0.56977   0.00000  Uiso   1.00
C816   C     0.34697   0.15954   0.48323   0.00000  Uiso   1.00
C817   C     0.65303   0.17379   0.51677   0.00000  Uiso   1.00
C818   C     0.51516   0.02268   0.46287   0.00000  Uiso   1.00
C819   C     0.48485   0.31065   0.53713   0.00000  Uiso   1.00
C820   C     0.51799   0.31360   0.46195   0.00000  Uiso   1.00
Cu821  Cu    0.50000   0.16667   0.54689   0.00000  Uiso   1.00
Cu822  Cu    0.50000   0.16666   0.45311   0.00000  Uiso   1.00
H823   H     0.52824   0.04018   0.43447   0.00000  Uiso   1.00
H824   H     0.61989   0.03028   0.43927   0.00000  Uiso   1.00
H825   H     0.64875   0.08209   0.49855   0.00000  Uiso   1.00
H826   H     0.35127   0.25123   0.50147   0.00000  Uiso   1.00
H827   H     0.38014   0.30303   0.56076   0.00000  Uiso   1.00
H828   H     0.39119   0.28511   0.64596   0.00000  Uiso   1.00
H829   H     0.36915   0.21543   0.33830   0.00000  Uiso   1.00
H830   H     0.33513   0.16407   0.61253   0.00000  Uiso   1.00
H831   H     0.61453   0.28613   0.46514   0.00000  Uiso   1.00
H832   H     0.65853   0.26643   0.39745   0.00000  Uiso   1.00
H833   H     0.61058   0.26633   0.64997   0.00000  Uiso   1.00
H834   H     0.47177   0.29315   0.56554   0.00000  Uiso   1.00
H835   H     0.51853   0.28229   0.63781   0.00000  Uiso   1.00
H836   H     0.47444   0.30249   0.37162   0.00000  Uiso   1.00
H837   H     0.52561   0.03090   0.62836   0.00000  Uiso   1.00
H838   H     0.48154   0.05111   0.36219   0.00000  Uiso   1.00
H839   H     0.38947   0.06700   0.35007   0.00000  Uiso   1.00
H840   H     0.34147   0.06684   0.60261   0.00000  Uiso   1.00
H841   H     0.38544   0.04714   0.53490   0.00000  Uiso   1.00
H842   H     0.42729   0.13838   0.36806   0.00000  Uiso   1.00
H843   H     0.57271   0.19495   0.63194   0.00000  Uiso   1.00
H844   H     0.42764   0.13820   0.61487   0.00000  Uiso   1.00
H845   H     0.57236   0.19513   0.38513   0.00000  Uiso   1.00
H846   H     0.66486   0.16925   0.38747   0.00000  Uiso   1.00
H847   H     0.63085   0.11787   0.66171   0.00000  Uiso   1.00
H848   H     0.60883   0.04819   0.35407   0.00000  Uiso   1.00
N849   N     0.50001   0.16668   0.61736   0.00000  Uiso   1.00
N850   N     0.49999   0.16666   0.38264   0.00000  Uiso   1.00
O851   O     0.50000   0.10655   0.53958   0.00000  Uiso   1.00
O852   O     0.50000   0.22678   0.46042   0.00000  Uiso   1.00
O853   O     0.50000   0.10654   0.46039   0.00000  Uiso   1.00
O854   O     0.50000   0.22679   0.53961   0.00000  Uiso   1.00
O855   O     0.42495   0.16667   0.53046   0.00000  Uiso   1.00
O856   O     0.57505   0.16666   0.46954   0.00000  Uiso   1.00
O857   O     0.42494   0.16666   0.45127   0.00000  Uiso   1.00
O858   O     0.57506   0.16667   0.54873   0.00000  Uiso   1.00
C859   C     0.83186   0.08742   0.50014   0.00000  Uiso   1.00
C860   C     0.81534   0.01973   0.53805   0.00000  Uiso   1.00
C861   C     0.83551   0.29056   0.49943   0.00000  Uiso   1.00
C862   C     0.83116   0.04278   0.50057   0.00000  Uiso   1.00
C863   C     0.79299   0.15104   0.35337   0.00000  Uiso   1.00
C864   C     0.87367   0.18229   0.64663   0.00000  Uiso   1.00
C865   C     0.79310   0.15098   0.63720   0.00000  Uiso   1.00
C866   C     0.87357   0.18235   0.36280   0.00000  Uiso   1.00
C867   C     0.99297   0.12921   0.44723   0.00000  Uiso   1.00
C868   C     0.98807   0.13904   0.39897   0.00000  Uiso   1.00
C869   C     0.96888   0.11009   0.36551   0.00000  Uiso   1.00
C870   C     0.83481   0.24592   0.49986   0.00000  Uiso   1.00
C871   C     0.95623   0.07081   0.37997   0.00000  Uiso   1.00
C872   C     0.96217   0.06069   0.42791   0.00000  Uiso   1.00
C873   C     0.97932   0.08996   0.46148   0.00000  Uiso   1.00
C874   C     0.67370   0.20412   0.55278   0.00000  Uiso   1.00
C875   C     0.68736   0.24337   0.53854   0.00000  Uiso   1.00
C876   C     0.70452   0.27262   0.57211   0.00000  Uiso   1.00
C877   C     0.71045   0.26249   0.62006   0.00000  Uiso   1.00
C878   C     0.69779   0.22322   0.63450   0.00000  Uiso   1.00
C879   C     0.67859   0.19427   0.60104   0.00000  Uiso   1.00
C880   C     0.87489   0.29550   0.42308   0.00000  Uiso   1.00
C881   C     0.73480   0.16602   0.48820   0.00000  Uiso   1.00
C882   C     0.92661   0.28448   0.43026   0.00000  Uiso   1.00
C883   C     0.95164   0.27401   0.39196   0.00000  Uiso   1.00
C884   C     0.92478   0.27403   0.34647   0.00000  Uiso   1.00
C885   C     0.87272   0.28327   0.33948   0.00000  Uiso   1.00
C886   C     0.84778   0.29420   0.37759   0.00000  Uiso   1.00
C887   C     0.79178   0.03784   0.57693   0.00000  Uiso   1.00
C888   C     0.81892   0.03916   0.62240   0.00000  Uiso   1.00
C889   C     0.79400   0.05010   0.66052   0.00000  Uiso   1.00
C890   C     0.74192   0.05930   0.65356   0.00000  Uiso   1.00
C891   C     0.71504   0.05928   0.60808   0.00000  Uiso   1.00
C892   C     0.93187   0.16731   0.51180   0.00000  Uiso   1.00
C893   C     0.74005   0.04882   0.56977   0.00000  Uiso   1.00
C894   C     0.68031   0.15954   0.48323   0.00000  Uiso   1.00
C895   C     0.98636   0.17379   0.51677   0.00000  Uiso   1.00
C896   C     0.84849   0.02268   0.46287   0.00000  Uiso   1.00
C897   C     0.81818   0.31065   0.53713   0.00000  Uiso   1.00
C898   C     0.85133   0.31360   0.46195   0.00000  Uiso   1.00
Cu899  Cu    0.83333   0.16667   0.54689   0.00000  Uiso   1.00
Cu900  Cu    0.83333   0.16666   0.45311   0.00000  Uiso   1.00
H901   H     0.86157   0.04018   0.43447   0.00000  Uiso   1.00
H902   H     0.95322   0.03028   0.43927   0.00000  Uiso   1.00
H903   H     0.98208   0.08209   0.49855   0.00000  Uiso   1.00
H904   H     0.68461   0.25123   0.50147   0.00000  Uiso   1.00
H905   H     0.71348   0.30303   0.56076   0.00000  Uiso   1.00
H906   H     0.72453   0.28511   0.64596   0.00000  Uiso   1.00
H907   H     0.70249   0.21543   0.33830   0.00000  Uiso   1.00
H908   H     0.66846   0.16407   0.61253   0.00000  Uiso   1.00
H909   H     0.94787   0.28613   0.46514   0.00000  Uiso   1.00
H910   H     0.99187   0.26643   0.39745   0.00000  Uiso   1.00
H911   H     0.94391   0.26633   0.64997   0.00000  Uiso   1.00
H912   H     0.80510   0.29315   0.56554   0.00000  Uiso   1.00
H913   H     0.85186   0.28229   0.63781   0.00000  Uiso   1.00
H914   H     0.80777   0.30249   0.37162   0.00000  Uiso   1.00
H915   H     0.85894   0.03090   0.62836   0.00000  Uiso   1.00
H916   H     0.81488   0.05111   0.36219   0.00000  Uiso   1.00
H917   H     0.72281   0.06700   0.35007   0.00000  Uiso   1.00
H918   H     0.67480   0.06684   0.60261   0.00000  Uiso   1.00
H919   H     0.71878   0.04714   0.53490   0.00000  Uiso   1.00
H920   H     0.76062   0.13838   0.36806   0.00000  Uiso   1.00
H921   H     0.90605   0.19495   0.63194   0.00000  Uiso   1.00
H922   H     0.76097   0.13820   0.61487   0.00000  Uiso   1.00
H923   H     0.90569   0.19513   0.38513   0.00000  Uiso   1.00
H924   H     0.99819   0.16925   0.38747   0.00000  Uiso   1.00
H925   H     0.96418   0.11787   0.66171   0.00000  Uiso   1.00
H926   H     0.94216   0.04819   0.35407   0.00000  Uiso   1.00
N927   N     0.83335   0.16668   0.61736   0.00000  Uiso   1.00
N928   N     0.83332   0.16666   0.38264   0.00000  Uiso   1.00
O929   O     0.83333   0.10655   0.53958   0.00000  Uiso   1.00
O930   O     0.83334   0.22678   0.46042   0.00000  Uiso   1.00
O931   O     0.83333   0.10654   0.46039   0.00000  Uiso   1.00
O932   O     0.83334   0.22679   0.53961   0.00000  Uiso   1.00
O933   O     0.75828   0.16667   0.53046   0.00000  Uiso   1.00
O934   O     0.90839   0.16666   0.46954   0.00000  Uiso   1.00
O935   O     0.75828   0.16666   0.45127   0.00000  Uiso   1.00
O936   O     0.90839   0.16667   0.54873   0.00000  Uiso   1.00
C937   C     0.16519   0.42075   0.50014   0.00000  Uiso   1.00
C938   C     0.14867   0.35306   0.53805   0.00000  Uiso   1.00
C939   C     0.16884   0.62389   0.49943   0.00000  Uiso   1.00
C940   C     0.16449   0.37611   0.50057   0.00000  Uiso   1.00
C941   C     0.12633   0.48438   0.35337   0.00000  Uiso   1.00
C942   C     0.20701   0.51563   0.64663   0.00000  Uiso   1.00
C943   C     0.12643   0.48432   0.63720   0.00000  Uiso   1.00
C944   C     0.20690   0.51568   0.36280   0.00000  Uiso   1.00
C945   C     0.32631   0.46254   0.44723   0.00000  Uiso   1.00
C946   C     0.32141   0.47237   0.39897   0.00000  Uiso   1.00
C947   C     0.30221   0.44342   0.36551   0.00000  Uiso   1.00
C948   C     0.16814   0.57925   0.49986   0.00000  Uiso   1.00
C949   C     0.28957   0.40415   0.37997   0.00000  Uiso   1.00
C950   C     0.29551   0.39403   0.42791   0.00000  Uiso   1.00
C951   C     0.31266   0.42329   0.46148   0.00000  Uiso   1.00
C952   C     0.00703   0.53745   0.55278   0.00000  Uiso   1.00
C953   C     0.02069   0.57670   0.53854   0.00000  Uiso   1.00
C954   C     0.03785   0.60595   0.57211   0.00000  Uiso   1.00
C955   C     0.04379   0.59583   0.62006   0.00000  Uiso   1.00
C956   C     0.03113   0.55655   0.63450   0.00000  Uiso   1.00
C957   C     0.01192   0.52761   0.60104   0.00000  Uiso   1.00
C958   C     0.20823   0.62883   0.42308   0.00000  Uiso   1.00
C959   C     0.06813   0.49935   0.48820   0.00000  Uiso   1.00
C960   C     0.25995   0.61781   0.43026   0.00000  Uiso   1.00
C961   C     0.28497   0.60735   0.39196   0.00000  Uiso   1.00
C962   C     0.25812   0.60736   0.34647   0.00000  Uiso   1.00
C963   C     0.20606   0.61660   0.33948   0.00000  Uiso   1.00
C964   C     0.18111   0.62754   0.37759   0.00000  Uiso   1.00
C965   C     0.12512   0.37117   0.57693   0.00000  Uiso   1.00
C966   C     0.15226   0.37250   0.62240   0.00000  Uiso   1.00
C967   C     0.12733   0.38343   0.66052   0.00000  Uiso   1.00
C968   C     0.07526   0.39263   0.65356   0.00000  Uiso   1.00
C969   C     0.04837   0.39262   0.60808   0.00000  Uiso   1.00
C970   C     0.26520   0.50065   0.51180   0.00000  Uiso   1.00
C971   C     0.07338   0.38215   0.56977   0.00000  Uiso   1.00
C972   C     0.01364   0.49287   0.48323   0.00000  Uiso   1.00
C973   C     0.31969   0.50713   0.51677   0.00000  Uiso   1.00
C974   C     0.18182   0.35602   0.46287   0.00000  Uiso   1.00
C975   C     0.15151   0.64398   0.53713   0.00000  Uiso   1.00
C976   C     0.18466   0.64694   0.46195   0.00000  Uiso   1.00
Cu977  Cu    0.16667   0.50001   0.54689   0.00000  Uiso   1.00
Cu978  Cu    0.16667   0.49999   0.45311   0.00000  Uiso   1.00
H979   H     0.19490   0.37352   0.43447   0.00000  Uiso   1.00
H980   H     0.28655   0.36362   0.43927   0.00000  Uiso   1.00
H981   H     0.31541   0.41543   0.49855   0.00000  Uiso   1.00
H982   H     0.01794   0.58457   0.50147   0.00000  Uiso   1.00
H983   H     0.04681   0.63636   0.56076   0.00000  Uiso   1.00
H984   H     0.05786   0.61844   0.64596   0.00000  Uiso   1.00
H985   H     0.03582   0.54877   0.33830   0.00000  Uiso   1.00
H986   H     0.00179   0.49740   0.61253   0.00000  Uiso   1.00
H987   H     0.28120   0.61947   0.46514   0.00000  Uiso   1.00
H988   H     0.32520   0.59976   0.39745   0.00000  Uiso   1.00
H989   H     0.27725   0.59966   0.64997   0.00000  Uiso   1.00
H990   H     0.13844   0.62648   0.56554   0.00000  Uiso   1.00
H991   H     0.18520   0.61562   0.63781   0.00000  Uiso   1.00
H992   H     0.14110   0.63583   0.37162   0.00000  Uiso   1.00
H993   H     0.19227   0.36423   0.62836   0.00000  Uiso   1.00
H994   H     0.14821   0.38444   0.36219   0.00000  Uiso   1.00
H995   H     0.05614   0.40033   0.35007   0.00000  Uiso   1.00
H996   H     0.00814   0.40017   0.60261   0.00000  Uiso   1.00
H997   H     0.05211   0.38047   0.53490   0.00000  Uiso   1.00
H998   H     0.09395   0.47172   0.36806   0.00000  Uiso   1.00
H999   H     0.23938   0.52829   0.63194   0.00000  Uiso   1.00
H1000  H     0.09431   0.47153   0.61487   0.00000  Uiso   1.00
H1001  H     0.23903   0.52846   0.38513   0.00000  Uiso   1.00
H1002  H     0.33152   0.50258   0.38747   0.00000  Uiso   1.00
H1003  H     0.29752   0.45120   0.66171   0.00000  Uiso   1.00
H1004  H     0.27550   0.38152   0.35407   0.00000  Uiso   1.00
N1005  N     0.16668   0.50001   0.61736   0.00000  Uiso   1.00
N1006  N     0.16665   0.49999   0.38264   0.00000  Uiso   1.00
O1007  O     0.16666   0.43989   0.53958   0.00000  Uiso   1.00
O1008  O     0.16667   0.56011   0.46042   0.00000  Uiso   1.00
O1009  O     0.16666   0.43988   0.46039   0.00000  Uiso   1.00
O1010  O     0.16667   0.56012   0.53961   0.00000  Uiso   1.00
O1011  O     0.09161   0.50000   0.53046   0.00000  Uiso   1.00
O1012  O     0.24172   0.50000   0.46954   0.00000  Uiso   1.00
O1013  O     0.09161   0.49999   0.45127   0.00000  Uiso   1.00
O1014  O     0.24172   0.50001   0.54873   0.00000  Uiso   1.00
C1015  C     0.49853   0.42075   0.50014   0.00000  Uiso   1.00
C1016  C     0.48201   0.35306   0.53805   0.00000  Uiso   1.00
C1017  C     0.50218   0.62389   0.49943   0.00000  Uiso   1.00
C1018  C     0.49782   0.37611   0.50057   0.00000  Uiso   1.00
C1019  C     0.45966   0.48438   0.35337   0.00000  Uiso   1.00
C1020  C     0.54034   0.51563   0.64663   0.00000  Uiso   1.00
C1021  C     0.45977   0.48432   0.63720   0.00000  Uiso   1.00
C1022  C     0.54023   0.51568   0.36280   0.00000  Uiso   1.00
C1023  C     0.65964   0.46254   0.44723   0.00000  Uiso   1.00
C1024  C     0.65474   0.47237   0.39897   0.00000  Uiso   1.00
C1025  C     0.63555   0.44342   0.36551   0.00000  Uiso   1.00
C1026  C     0.50147   0.57925   0.49986   0.00000  Uiso   1.00
C1027  C     0.62290   0.40415   0.37997   0.00000  Uiso   1.00
C1028  C     0.62884   0.39403   0.42791   0.00000  Uiso   1.00
C1029  C     0.64599   0.42329   0.46148   0.00000  Uiso   1.00
C1030  C     0.34036   0.53745   0.55278   0.00000  Uiso   1.00
C1031  C     0.35402   0.57670   0.53854   0.00000  Uiso   1.00
C1032  C     0.37118   0.60595   0.57211   0.00000  Uiso   1.00
C1033  C     0.37712   0.59583   0.62006   0.00000  Uiso   1.00
C1034  C     0.36446   0.55655   0.63450   0.00000  Uiso   1.00
C1035  C     0.34526   0.52761   0.60104   0.00000  Uiso   1.00
C1036  C     0.54156   0.62883   0.42308   0.00000  Uiso   1.00
C1037  C     0.40147   0.49935   0.48820   0.00000  Uiso   1.00
C1038  C     0.59328   0.61781   0.43026   0.00000  Uiso   1.00
C1039  C     0.61831   0.60735   0.39196   0.00000  Uiso   1.00
C1040  C     0.59145   0.60736   0.34647   0.00000  Uiso   1.00
C1041  C     0.53939   0.61660   0.33948   0.00000  Uiso   1.00
C1042  C     0.51445   0.62754   0.37759   0.00000  Uiso   1.00
C1043  C     0.45845   0.37117   0.57693   0.00000  Uiso   1.00
C1044  C     0.48559   0.37250   0.62240   0.00000  Uiso   1.00
C1045  C     0.46066   0.38343   0.66052   0.00000  Uiso   1.00
C1046  C     0.40859   0.39263   0.65356   0.00000  Uiso   1.00
C1047  C     0.38171   0.39262   0.60808   0.00000  Uiso   1.00
C1048  C     0.59853   0.50065   0.51180   0.00000  Uiso   1.00
C1049  C     0.40672   0.38215   0.56977   0.00000  Uiso   1.00
C1050  C     0.34697   0.49287   0.48323   0.00000  Uiso   1.00
C1051  C     0.65303   0.50713   0.51677   0.00000  Uiso   1.00
C1052  C     0.51516   0.35602   0.46287   0.00000  Uiso   1.00
C1053  C     0.48485   0.64398   0.53713   0.00000  Uiso   1.00
C1054  C     0.51799   0.64694   0.46195   0.00000  Uiso   1.00
Cu1055 Cu    0.50000   0.50001   0.54689   0.00000  Uiso   1.00
Cu1056 Cu    0.50000   0.49999   0.45311   0.00000  Uiso   1.00
H1057  H     0.52824   0.37352   0.43447   0.00000  Uiso   1.00
H1058  H     0.61989   0.36362   0.43927   0.00000  Uiso   1.00
H1059  H     0.64875   0.41543   0.49855   0.00000  Uiso   1.00
H1060  H     0.35127   0.58457   0.50147   0.00000  Uiso   1.00
H1061  H     0.38014   0.63636   0.56076   0.00000  Uiso   1.00
H1062  H     0.39119   0.61844   0.64596   0.00000  Uiso   1.00
H1063  H     0.36915   0.54877   0.33830   0.00000  Uiso   1.00
H1064  H     0.33513   0.49740   0.61253   0.00000  Uiso   1.00
H1065  H     0.61453   0.61947   0.46514   0.00000  Uiso   1.00
H1066  H     0.65853   0.59976   0.39745   0.00000  Uiso   1.00
H1067  H     0.61058   0.59966   0.64997   0.00000  Uiso   1.00
H1068  H     0.47177   0.62648   0.56554   0.00000  Uiso   1.00
H1069  H     0.51853   0.61562   0.63781   0.00000  Uiso   1.00
H1070  H     0.47444   0.63583   0.37162   0.00000  Uiso   1.00
H1071  H     0.52561   0.36423   0.62836   0.00000  Uiso   1.00
H1072  H     0.48154   0.38444   0.36219   0.00000  Uiso   1.00
H1073  H     0.38947   0.40033   0.35007   0.00000  Uiso   1.00
H1074  H     0.34147   0.40017   0.60261   0.00000  Uiso   1.00
H1075  H     0.38544   0.38047   0.53490   0.00000  Uiso   1.00
H1076  H     0.42729   0.47172   0.36806   0.00000  Uiso   1.00
H1077  H     0.57271   0.52829   0.63194   0.00000  Uiso   1.00
H1078  H     0.42764   0.47153   0.61487   0.00000  Uiso   1.00
H1079  H     0.57236   0.52846   0.38513   0.00000  Uiso   1.00
H1080  H     0.66486   0.50258   0.38747   0.00000  Uiso   1.00
H1081  H     0.63085   0.45120   0.66171   0.00000  Uiso   1.00
H1082  H     0.60883   0.38152   0.35407   0.00000  Uiso   1.00
N1083  N     0.50001   0.50001   0.61736   0.00000  Uiso   1.00
N1084  N     0.49999   0.49999   0.38264   0.00000  Uiso   1.00
O1085  O     0.50000   0.43989   0.53958   0.00000  Uiso   1.00
O1086  O     0.50000   0.56011   0.46042   0.00000  Uiso   1.00
O1087  O     0.50000   0.43988   0.46039   0.00000  Uiso   1.00
O1088  O     0.50000   0.56012   0.53961   0.00000  Uiso   1.00
O1089  O     0.42495   0.50000   0.53046   0.00000  Uiso   1.00
O1090  O     0.57505   0.50000   0.46954   0.00000  Uiso   1.00
O1091  O     0.42494   0.49999   0.45127   0.00000  Uiso   1.00
O1092  O     0.57506   0.50001   0.54873   0.00000  Uiso   1.00
C1093  C     0.83186   0.42075   0.50014   0.00000  Uiso   1.00
C1094  C     0.81534   0.35306   0.53805   0.00000  Uiso   1.00
C1095  C     0.83551   0.62389   0.49943   0.00000  Uiso   1.00
C1096  C     0.83116   0.37611   0.50057   0.00000  Uiso   1.00
C1097  C     0.79299   0.48438   0.35337   0.00000  Uiso   1.00
C1098  C     0.87367   0.51563   0.64663   0.00000  Uiso   1.00
C1099  C     0.79310   0.48432   0.63720   0.00000  Uiso   1.00
C1100  C     0.87357   0.51568   0.36280   0.00000  Uiso   1.00
C1101  C     0.99297   0.46254   0.44723   0.00000  Uiso   1.00
C1102  C     0.98807   0.47237   0.39897   0.00000  Uiso   1.00
C1103  C     0.96888   0.44342   0.36551   0.00000  Uiso   1.00
C1104  C     0.83481   0.57925   0.49986   0.00000  Uiso   1.00
C1105  C     0.95623   0.40415   0.37997   0.00000  Uiso   1.00
C1106  C     0.96217   0.39403   0.42791   0.00000  Uiso   1.00
C1107  C     0.97932   0.42329   0.46148   0.00000  Uiso   1.00
C1108  C     0.67370   0.53745   0.55278   0.00000  Uiso   1.00
C1109  C     0.68736   0.57670   0.53854   0.00000  Uiso   1.00
C1110  C     0.70452   0.60595   0.57211   0.00000  Uiso   1.00
C1111  C     0.71045   0.59583   0.62006   0.00000  Uiso   1.00
C1112  C     0.69779   0.55655   0.63450   0.00000  Uiso   1.00
C1113  C     0.67859   0.52761   0.60104   0.00000  Uiso   1.00
C1114  C     0.87489   0.62883   0.42308   0.00000  Uiso   1.00
C1115  C     0.73480   0.49935   0.48820   0.00000  Uiso   1.00
C1116  C     0.92661   0.61781   0.43026   0.00000  Uiso   1.00
C1117  C     0.95164   0.60735   0.39196   0.00000  Uiso   1.00
C1118  C     0.92478   0.60736   0.34647   0.00000  Uiso   1.00
C1119  C     0.87272   0.61660   0.33948   0.00000  Uiso   1.00
C1120  C     0.84778   0.62754   0.37759   0.00000  Uiso   1.00
C1121  C     0.79178   0.37117   0.57693   0.00000  Uiso   1.00
C1122  C     0.81892   0.37250   0.62240   0.00000  Uiso   1.00
C1123  C     0.79400   0.38343   0.66052   0.00000  Uiso   1.00
C1124  C     0.74192   0.39263   0.65356   0.00000  Uiso   1.00
C1125  C     0.71504   0.39262   0.60808   0.00000  Uiso   1.00
C1126  C     0.93187   0.50065   0.51180   0.00000  Uiso   1.00
C1127  C     0.74005   0.38215   0.56977   0.00000  Uiso   1.00
C1128  C     0.68031   0.49287   0.48323   0.00000  Uiso   1.00
C1129  C     0.98636   0.50713   0.51677   0.00000  Uiso   1.00
C1130  C     0.84849   0.35602   0.46287   0.00000  Uiso   1.00
C1131  C     0.81818   0.64398   0.53713   0.00000  Uiso   1.00
C1132  C     0.85133   0.64694   0.46195   0.00000  Uiso   1.00
Cu1133 Cu    0.83333   0.50001   0.54689   0.00000  Uiso   1.00
Cu1134 Cu    0.83333   0.49999   0.45311   0.00000  Uiso   1.00
H1135  H     0.86157   0.37352   0.43447   0.00000  Uiso   1.00
H1136  H     0.95322   0.36362   0.43927   0.00000  Uiso   1.00
H1137  H     0.98208   0.41543   0.49855   0.00000  Uiso   1.00
H1138  H     0.68461   0.58457   0.50147   0.00000  Uiso   1.00
H1139  H     0.71348   0.63636   0.56076   0.00000  Uiso   1.00
H1140  H     0.72453   0.61844   0.64596   0.00000  Uiso   1.00
H1141  H     0.70249   0.54877   0.33830   0.00000  Uiso   1.00
H1142  H     0.66846   0.49740   0.61253   0.00000  Uiso   1.00
H1143  H     0.94787   0.61947   0.46514   0.00000  Uiso   1.00
H1144  H     0.99187   0.59976   0.39745   0.00000  Uiso   1.00
H1145  H     0.94391   0.59966   0.64997   0.00000  Uiso   1.00
H1146  H     0.80510   0.62648   0.56554   0.00000  Uiso   1.00
H1147  H     0.85186   0.61562   0.63781   0.00000  Uiso   1.00
H1148  H     0.80777   0.63583   0.37162   0.00000  Uiso   1.00
H1149  H     0.85894   0.36423   0.62836   0.00000  Uiso   1.00
H1150  H     0.81488   0.38444   0.36219   0.00000  Uiso   1.00
H1151  H     0.72281   0.40033   0.35007   0.00000  Uiso   1.00
H1152  H     0.67480   0.40017   0.60261   0.00000  Uiso   1.00
H1153  H     0.71878   0.38047   0.53490   0.00000  Uiso   1.00
H1154  H     0.76062   0.47172   0.36806   0.00000  Uiso   1.00
H1155  H     0.90605   0.52829   0.63194   0.00000  Uiso   1.00
H1156  H     0.76097   0.47153   0.61487   0.00000  Uiso   1.00
H1157  H     0.90569   0.52846   0.38513   0.00000  Uiso   1.00
H1158  H     0.99819   0.50258   0.38747   0.00000  Uiso   1.00
H1159  H     0.96418   0.45120   0.66171   0.00000  Uiso   1.00
H1160  H     0.94216   0.38152   0.35407   0.00000  Uiso   1.00
N1161  N     0.83335   0.50001   0.61736   0.00000  Uiso   1.00
N1162  N     0.83332   0.49999   0.38264   0.00000  Uiso   1.00
O1163  O     0.83333   0.43989   0.53958   0.00000  Uiso   1.00
O1164  O     0.83334   0.56011   0.46042   0.00000  Uiso   1.00
O1165  O     0.83333   0.43988   0.46039   0.00000  Uiso   1.00
O1166  O     0.83334   0.56012   0.53961   0.00000  Uiso   1.00
O1167  O     0.75828   0.50000   0.53046   0.00000  Uiso   1.00
O1168  O     0.90839   0.50000   0.46954   0.00000  Uiso   1.00
O1169  O     0.75828   0.49999   0.45127   0.00000  Uiso   1.00
O1170  O     0.90839   0.50001   0.54873   0.00000  Uiso   1.00
C1171  C     0.16519   0.75408   0.50014   0.00000  Uiso   1.00
C1172  C     0.14867   0.68640   0.53805   0.00000  Uiso   1.00
C1173  C     0.16884   0.95722   0.49943   0.00000  Uiso   1.00
C1174  C     0.16449   0.70944   0.50057   0.00000  Uiso   1.00
C1175  C     0.12633   0.81771   0.35337   0.00000  Uiso   1.00
C1176  C     0.20701   0.84896   0.64663   0.00000  Uiso   1.00
C1177  C     0.12643   0.81765   0.63720   0.00000  Uiso   1.00
C1178  C     0.20690   0.84902   0.36280   0.00000  Uiso   1.00
C1179  C     0.32631   0.79587   0.44723   0.00000  Uiso   1.00
C1180  C     0.32141   0.80571   0.39897   0.00000  Uiso   1.00
C1181  C     0.30221   0.77675   0.36551   0.00000  Uiso   1.00
C1182  C     0.16814   0.91258   0.49986   0.00000  Uiso   1.00
C1183  C     0.28957   0.73748   0.37997   0.00000  Uiso   1.00
C1184  C     0.29551   0.72736   0.42791   0.00000  Uiso   1.00
C1185  C     0.31266   0.75662   0.46148   0.00000  Uiso   1.00
C1186  C     0.00703   0.87078   0.55278   0.00000  Uiso   1.00
C1187  C     0.02069   0.91003   0.53854   0.00000  Uiso   1.00
C1188  C     0.03785   0.93929   0.57211   0.00000  Uiso   1.00
C1189  C     0.04379   0.92916   0.62006   0.00000  Uiso   1.00
C1190  C     0.03113   0.88989   0.63450   0.00000  Uiso   1.00
C1191  C     0.01192   0.86094   0.60104   0.00000  Uiso   1.00
C1192  C     0.20823   0.96216   0.42308   0.00000  Uiso   1.00
C1193  C     0.06813   0.83268   0.48820   0.00000  Uiso   1.00
C1194  C     0.25995   0.95115   0.43026   0.00000  Uiso   1.00
C1195  C     0.28497   0.94068   0.39196   0.00000  Uiso   1.00
C1196  C     0.25812   0.94070   0.34647   0.00000  Uiso   1.00
C1197  C     0.20606   0.94993   0.33948   0.00000  Uiso   1.00
C1198  C     0.18111   0.96087   0.37759   0.00000  Uiso   1.00
C1199  C     0.12512   0.70450   0.57693   0.00000  Uiso   1.00
C1200  C     0.15226   0.70583   0.62240   0.00000  Uiso   1.00
C1201  C     0.12733   0.71676   0.66052   0.00000  Uiso   1.00
C1202  C     0.07526   0.72597   0.65356   0.00000  Uiso   1.00
C1203  C     0.04837   0.72595   0.60808   0.00000  Uiso   1.00
C1204  C     0.26520   0.83398   0.51180   0.00000  Uiso   1.00
C1205  C     0.07338   0.71549   0.56977   0.00000  Uiso   1.00
C1206  C     0.01364   0.82620   0.48323   0.00000  Uiso   1.00
C1207  C     0.31969   0.84046   0.51677   0.00000  Uiso   1.00
C1208  C     0.18182   0.68935   0.46287   0.00000  Uiso   1.00
C1209  C     0.15151   0.97732   0.53713   0.00000  Uiso   1.00
C1210  C     0.18466   0.98027   0.46195   0.00000  Uiso   1.00
Cu1211 Cu    0.16667   0.83334   0.54689   0.00000  Uiso   1.00
Cu1212 Cu    0.16667   0.83333   0.45311   0.00000  Uiso   1.00
H1213  H     0.19490   0.70685   0.43447   0.00000  Uiso   1.00
H1214  H     0.28655   0.69695   0.43927   0.00000  Uiso   1.00
H1215  H     0.31541   0.74876   0.49855   0.00000  Uiso   1.00
H1216  H     0.01794   0.91790   0.50147   0.00000  Uiso   1.00
H1217  H     0.04681   0.96970   0.56076   0.00000  Uiso   1.00
H1218  H     0.05786   0.95178   0.64596   0.00000  Uiso   1.00
H1219  H     0.03582   0.88210   0.33830   0.00000  Uiso   1.00
H1220  H     0.00179   0.83073   0.61253   0.00000  Uiso   1.00
H1221  H     0.28120   0.95280   0.46514   0.00000  Uiso   1.00
H1222  H     0.32520   0.93310   0.39745   0.00000  Uiso   1.00
H1223  H     0.27725   0.93300   0.64997   0.00000  Uiso   1.00
H1224  H     0.13844   0.95982   0.56554   0.00000  Uiso   1.00
H1225  H     0.18520   0.94895   0.63781   0.00000  Uiso   1.00
H1226  H     0.14110   0.96916   0.37162   0.00000  Uiso   1.00
H1227  H     0.19227   0.69756   0.62836   0.00000  Uiso   1.00
H1228  H     0.14821   0.71777   0.36219   0.00000  Uiso   1.00
H1229  H     0.05614   0.73366   0.35007   0.00000  Uiso   1.00
H1230  H     0.00814   0.73351   0.60261   0.00000  Uiso   1.00
H1231  H     0.05211   0.71381   0.53490   0.00000  Uiso   1.00
H1232  H     0.09395   0.80505   0.36806   0.00000  Uiso   1.00
H1233  H     0.23938   0.86162   0.63194   0.00000  Uiso   1.00
H1234  H     0.09431   0.80487   0.61487   0.00000  Uiso   1.00
H1235  H     0.23903   0.86180   0.38513   0.00000  Uiso   1.00
H1236  H     0.33152   0.83592   0.38747   0.00000  Uiso   1.00
H1237  H     0.29752   0.78454   0.66171   0.00000  Uiso   1.00
H1238  H     0.27550   0.71486   0.35407   0.00000  Uiso   1.00
N1239  N     0.16668   0.83334   0.61736   0.00000  Uiso   1.00
N1240  N     0.16665   0.83332   0.38264   0.00000  Uiso   1.00
O1241  O     0.16666   0.77322   0.53958   0.00000  Uiso   1.00
O1242  O     0.16667   0.89345   0.46042   0.00000  Uiso   1.00
O1243  O     0.16666   0.77321   0.46039   0.00000  Uiso   1.00
O1244  O     0.16667   0.89346   0.53961   0.00000  Uiso   1.00
O1245  O     0.09161   0.83334   0.53046   0.00000  Uiso   1.00
O1246  O     0.24172   0.83333   0.46954   0.00000  Uiso   1.00
O1247  O     0.09161   0.83333   0.45127   0.00000  Uiso   1.00
O1248  O     0.24172   0.83334   0.54873   0.00000  Uiso   1.00
C1249  C     0.49853   0.75408   0.50014   0.00000  Uiso   1.00
C1250  C     0.48201   0.68640   0.53805   0.00000  Uiso   1.00
C1251  C     0.50218   0.95722   0.49943   0.00000  Uiso   1.00
C1252  C     0.49782   0.70944   0.50057   0.00000  Uiso   1.00
C1253  C     0.45966   0.81771   0.35337   0.00000  Uiso   1.00
C1254  C     0.54034   0.84896   0.64663   0.00000  Uiso   1.00
C1255  C     0.45977   0.81765   0.63720   0.00000  Uiso   1.00
C1256  C     0.54023   0.84902   0.36280   0.00000  Uiso   1.00
C1257  C     0.65964   0.79587   0.44723   0.00000  Uiso   1.00
C1258  C     0.65474   0.80571   0.39897   0.00000  Uiso   1.00
C1259  C     0.63555   0.77675   0.36551   0.00000  Uiso   1.00
C1260  C     0.50147   0.91258   0.49986   0.00000  Uiso   1.00
C1261  C     0.62290   0.73748   0.37997   0.00000  Uiso   1.00
C1262  C     0.62884   0.72736   0.42791   0.00000  Uiso   1.00
C1263  C     0.64599   0.75662   0.46148   0.00000  Uiso   1.00
C1264  C     0.34036   0.87078   0.55278   0.00000  Uiso   1.00
C1265  C     0.35402   0.91003   0.53854   0.00000  Uiso   1.00
C1266  C     0.37118   0.93929   0.57211   0.00000  Uiso   1.00
C1267  C     0.37712   0.92916   0.62006   0.00000  Uiso   1.00
C1268  C     0.36446   0.88989   0.63450   0.00000  Uiso   1.00
C1269  C     0.34526   0.86094   0.60104   0.00000  Uiso   1.00
C1270  C     0.54156   0.96216   0.42308   0.00000  Uiso   1.00
C1271  C     0.40147   0.83268   0.48820   0.00000  Uiso   1.00
C1272  C     0.59328   0.95115   0.43026   0.00000  Uiso   1.00
C1273  C     0.61831   0.94068   0.39196   0.00000  Uiso   1.00
C1274  C     0.59145   0.94070   0.34647   0.00000  Uiso   1.00
C1275  C     0.53939   0.94993   0.33948   0.00000  Uiso   1.00
C1276  C     0.51445   0.96087   0.37759   0.00000  Uiso   1.00
C1277  C     0.45845   0.70450   0.57693   0.00000  Uiso   1.00
C1278  C     0.48559   0.70583   0.62240   0.00000  Uiso   1.00
C1279  C     0.46066   0.71676   0.66052   0.00000  Uiso   1.00
C1280  C     0.40859   0.72597   0.65356   0.00000  Uiso   1.00
C1281  C     0.38171   0.72595   0.60808   0.00000  Uiso   1.00
C1282  C     0.59853   0.83398   0.51180   0.00000  Uiso   1.00
C1283  C     0.40672   0.71549   0.56977   0.00000  Uiso   1.00
C1284  C     0.34697   0.82620   0.48323   0.00000  Uiso   1.00
C1285  C     0.65303   0.84046   0.51677   0.00000  Uiso   1.00
C1286  C     0.51516   0.68935   0.46287   0.00000  Uiso   1.00
C1287  C     0.48485   0.97732   0.53713   0.00000  Uiso   1.00
C1288  C     0.51799   0.98027   0.46195   0.00000  Uiso   1.00
Cu1289 Cu    0.50000   0.83334   0.54689   0.00000  Uiso   1.00
Cu1290 Cu    0.50000   0.83333   0.45311   0.00000  Uiso   1.00
H1291  H     0.52824   0.70685   0.43447   0.00000  Uiso   1.00
H1292  H     0.61989   0.69695   0.43927   0.00000  Uiso   1.00
H1293  H     0.64875   0.74876   0.49855   0.00000  Uiso   1.00
H1294  H     0.35127   0.91790   0.50147   0.00000  Uiso   1.00
H1295  H     0.38014   0.96970   0.56076   0.00000  Uiso   1.00
H1296  H     0.39119   0.95178   0.64596   0.00000  Uiso   1.00
H1297  H     0.36915   0.88210   0.33830   0.00000  Uiso   1.00
H1298  H     0.33513   0.83073   0.61253   0.00000  Uiso   1.00
H1299  H     0.61453   0.95280   0.46514   0.00000  Uiso   1.00
H1300  H     0.65853   0.93310   0.39745   0.00000  Uiso   1.00
H1301  H     0.61058   0.93300   0.64997   0.00000  Uiso   1.00
H1302  H     0.47177   0.95982   0.56554   0.00000  Uiso   1.00
H1303  H     0.51853   0.94895   0.63781   0.00000  Uiso   1.00
H1304  H     0.47444   0.96916   0.37162   0.00000  Uiso   1.00
H1305  H     0.52561   0.69756   0.62836   0.00000  Uiso   1.00
H1306  H     0.48154   0.71777   0.36219   0.00000  Uiso   1.00
H1307  H     0.38947   0.73366   0.35007   0.00000  Uiso   1.00
H1308  H     0.34147   0.73351   0.60261   0.00000  Uiso   1.00
H1309  H     0.38544   0.71381   0.53490   0.00000  Uiso   1.00
H1310  H     0.42729   0.80505   0.36806   0.00000  Uiso   1.00
H1311  H     0.57271   0.86162   0.63194   0.00000  Uiso   1.00
H1312  H     0.42764   0.80487   0.61487   0.00000  Uiso   1.00
H1313  H     0.57236   0.86180   0.38513   0.00000  Uiso   1.00
H1314  H     0.66486   0.83592   0.38747   0.00000  Uiso   1.00
H1315  H     0.63085   0.78454   0.66171   0.00000  Uiso   1.00
H1316  H     0.60883   0.71486   0.35407   0.00000  Uiso   1.00
N1317  N     0.50001   0.83334   0.61736   0.00000  Uiso   1.00
N1318  N     0.49999   0.83332   0.38264   0.00000  Uiso   1.00
O1319  O     0.50000   0.77322   0.53958   0.00000  Uiso   1.00
O1320  O     0.50000   0.89345   0.46042   0.00000  Uiso   1.00
O1321  O     0.50000   0.77321   0.46039   0.00000  Uiso   1.00
O1322  O     0.50000   0.89346   0.53961   0.00000  Uiso   1.00
O1323  O     0.42495   0.83334   0.53046   0.00000  Uiso   1.00
O1324  O     0.57505   0.83333   0.46954   0.00000  Uiso   1.00
O1325  O     0.42494   0.83333   0.45127   0.00000  Uiso   1.00
O1326  O     0.57506   0.83334   0.54873   0.00000  Uiso   1.00
C1327  C     0.83186   0.75408   0.50014   0.00000  Uiso   1.00
C1328  C     0.81534   0.68640   0.53805   0.00000  Uiso   1.00
C1329  C     0.83551   0.95722   0.49943   0.00000  Uiso   1.00
C1330  C     0.83116   0.70944   0.50057   0.00000  Uiso   1.00
C1331  C     0.79299   0.81771   0.35337   0.00000  Uiso   1.00
C1332  C     0.87367   0.84896   0.64663   0.00000  Uiso   1.00
C1333  C     0.79310   0.81765   0.63720   0.00000  Uiso   1.00
C1334  C     0.87357   0.84902   0.36280   0.00000  Uiso   1.00
C1335  C     0.99297   0.79587   0.44723   0.00000  Uiso   1.00
C1336  C     0.98807   0.80571   0.39897   0.00000  Uiso   1.00
C1337  C     0.96888   0.77675   0.36551   0.00000  Uiso   1.00
C1338  C     0.83481   0.91258   0.49986   0.00000  Uiso   1.00
C1339  C     0.95623   0.73748   0.37997   0.00000  Uiso   1.00
C1340  C     0.96217   0.72736   0.42791   0.00000  Uiso   1.00
C1341  C     0.97932   0.75662   0.46148   0.00000  Uiso   1.00
C1342  C     0.67370   0.87078   0.55278   0.00000  Uiso   1.00
C1343  C     0.68736   0.91003   0.53854   0.00000  Uiso   1.00
C1344  C     0.70452   0.93929   0.57211   0.00000  Uiso   1.00
C1345  C     0.71045   0.92916   0.62006   0.00000  Uiso   1.00
C1346  C     0.69779   0.88989   0.63450   0.00000  Uiso   1.00
C1347  C     0.67859   0.86094   0.60104   0.00000  Uiso   1.00
C1348  C     0.87489   0.96216   0.42308   0.00000  Uiso   1.00
C1349  C     0.73480   0.83268   0.48820   0.00000  Uiso   1.00
C1350  C     0.92661   0.95115   0.43026   0.00000  Uiso   1.00
C1351  C     0.95164   0.94068   0.39196   0.00000  Uiso   1.00
C1352  C     0.92478   0.94070   0.34647   0.00000  Uiso   1.00
C1353  C     0.87272   0.94993   0.33948   0.00000  Uiso   1.00
C1354  C     0.84778   0.96087   0.37759   0.00000  Uiso   1.00
C1355  C     0.79178   0.70450   0.57693   0.00000  Uiso   1.00
C1356  C     0.81892   0.70583   0.62240   0.00000  Uiso   1.00
C1357  C     0.79400   0.71676   0.66052   0.00000  Uiso   1.00
C1358  C     0.74192   0.72597   0.65356   0.00000  Uiso   1.00
C1359  C     0.71504   0.72595   0.60808   0.00000  Uiso   1.00
C1360  C     0.93187   0.83398   0.51180   0.00000  Uiso   1.00
C1361  C     0.74005   0.71549   0.56977   0.00000  Uiso   1.00
C1362  C     0.68031   0.82620   0.48323   0.00000  Uiso   1.00
C1363  C     0.98636   0.84046   0.51677   0.00000  Uiso   1.00
C1364  C     0.84849   0.68935   0.46287   0.00000  Uiso   1.00
C1365  C     0.81818   0.97732   0.53713   0.00000  Uiso   1.00
C1366  C     0.85133   0.98027   0.46195   0.00000  Uiso   1.00
Cu1367 Cu    0.83333   0.83334   0.54689   0.00000  Uiso   1.00
Cu1368 Cu    0.83333   0.83333   0.45311   0.00000  Uiso   1.00
H1369  H     0.86157   0.70685   0.43447   0.00000  Uiso   1.00
H1370  H     0.95322   0.69695   0.43927   0.00000  Uiso   1.00
H1371  H     0.98208   0.74876   0.49855   0.00000  Uiso   1.00
H1372  H     0.68461   0.91790   0.50147   0.00000  Uiso   1.00
H1373  H     0.71348   0.96970   0.56076   0.00000  Uiso   1.00
H1374  H     0.72453   0.95178   0.64596   0.00000  Uiso   1.00
H1375  H     0.70249   0.88210   0.33830   0.00000  Uiso   1.00
H1376  H     0.66846   0.83073   0.61253   0.00000  Uiso   1.00
H1377  H     0.94787   0.95280   0.46514   0.00000  Uiso   1.00
H1378  H     0.99187   0.93310   0.39745   0.00000  Uiso   1.00
H1379  H     0.94391   0.93300   0.64997   0.00000  Uiso   1.00
H1380  H     0.80510   0.95982   0.56554   0.00000  Uiso   1.00
H1381  H     0.85186   0.94895   0.63781   0.00000  Uiso   1.00
H1382  H     0.80777   0.96916   0.37162   0.00000  Uiso   1.00
H1383  H     0.85894   0.69756   0.62836   0.00000  Uiso   1.00
H1384  H     0.81488   0.71777   0.36219   0.00000  Uiso   1.00
H1385  H     0.72281   0.73366   0.35007   0.00000  Uiso   1.00
H1386  H     0.67480   0.73351   0.60261   0.00000  Uiso   1.00
H1387  H     0.71878   0.71381   0.53490   0.00000  Uiso   1.00
H1388  H     0.76062   0.80505   0.36806   0.00000  Uiso   1.00
H1389  H     0.90605   0.86162   0.63194   0.00000  Uiso   1.00
H1390  H     0.76097   0.80487   0.61487   0.00000  Uiso   1.00
H1391  H     0.90569   0.86180   0.38513   0.00000  Uiso   1.00
H1392  H     0.99819   0.83592   0.38747   0.00000  Uiso   1.00
H1393  H     0.96418   0.78454   0.66171   0.00000  Uiso   1.00
H1394  H     0.94216   0.71486   0.35407   0.00000  Uiso   1.00
N1395  N     0.83335   0.83334   0.61736   0.00000  Uiso   1.00
N1396  N     0.83332   0.83332   0.38264   0.00000  Uiso   1.00
O1397  O     0.83333   0.77322   0.53958   0.00000  Uiso   1.00
O1398  O     0.83334   0.89345   0.46042   0.00000  Uiso   1.00
O1399  O     0.83333   0.77321   0.46039   0.00000  Uiso   1.00
O1400  O     0.83334   0.89346   0.53961   0.00000  Uiso   1.00
O1401  O     0.75828   0.83334   0.53046   0.00000  Uiso   1.00
O1402  O     0.90839   0.83333   0.46954   0.00000  Uiso   1.00
O1403  O     0.75828   0.83333   0.45127   0.00000  Uiso   1.00
O1404  O     0.90839   0.83334   0.54873   0.00000  Uiso   1.00
C1405  C     0.16519   0.08742   0.83347   0.00000  Uiso   1.00
C1406  C     0.14867   0.01973   0.87139   0.00000  Uiso   1.00
C1407  C     0.16884   0.29056   0.83276   0.00000  Uiso   1.00
C1408  C     0.16449   0.04278   0.83391   0.00000  Uiso   1.00
C1409  C     0.12633   0.15104   0.68671   0.00000  Uiso   1.00
C1410  C     0.20701   0.18229   0.97996   0.00000  Uiso   1.00
C1411  C     0.12643   0.15098   0.97054   0.00000  Uiso   1.00
C1412  C     0.20690   0.18235   0.69613   0.00000  Uiso   1.00
C1413  C     0.32631   0.12921   0.78056   0.00000  Uiso   1.00
C1414  C     0.32141   0.13904   0.73230   0.00000  Uiso   1.00
C1415  C     0.30221   0.11009   0.69884   0.00000  Uiso   1.00
C1416  C     0.16814   0.24592   0.83319   0.00000  Uiso   1.00
C1417  C     0.28957   0.07081   0.71330   0.00000  Uiso   1.00
C1418  C     0.29551   0.06069   0.76125   0.00000  Uiso   1.00
C1419  C     0.31266   0.08996   0.79481   0.00000  Uiso   1.00
C1420  C     0.00703   0.20412   0.88611   0.00000  Uiso   1.00
C1421  C     0.02069   0.24337   0.87187   0.00000  Uiso   1.00
C1422  C     0.03785   0.27262   0.90544   0.00000  Uiso   1.00
C1423  C     0.04379   0.26249   0.95339   0.00000  Uiso   1.00
C1424  C     0.03113   0.22322   0.96784   0.00000  Uiso   1.00
C1425  C     0.01192   0.19427   0.93437   0.00000  Uiso   1.00
C1426  C     0.20823   0.29550   0.75641   0.00000  Uiso   1.00
C1427  C     0.06813   0.16602   0.82153   0.00000  Uiso   1.00
C1428  C     0.25995   0.28448   0.76359   0.00000  Uiso   1.00
C1429  C     0.28497   0.27401   0.72529   0.00000  Uiso   1.00
C1430  C     0.25812   0.27403   0.67980   0.00000  Uiso   1.00
C1431  C     0.20606   0.28327   0.67282   0.00000  Uiso   1.00
C1432  C     0.18111   0.29420   0.71093   0.00000  Uiso   1.00
C1433  C     0.12512   0.03784   0.91026   0.00000  Uiso   1.00
C1434  C     0.15226   0.03916   0.95573   0.00000  Uiso   1.00
C1435  C     0.12733   0.05010   0.99385   0.00000  Uiso   1.00
C1436  C     0.07526   0.05930   0.98689   0.00000  Uiso   1.00
C1437  C     0.04837   0.05928   0.94141   0.00000  Uiso   1.00
C1438  C     0.26520   0.16731   0.84513   0.00000  Uiso   1.00
C1439  C     0.07338   0.04882   0.90310   0.00000  Uiso   1.00
C1440  C     0.01364   0.15954   0.81656   0.00000  Uiso   1.00
C1441  C     0.31969   0.17379   0.85011   0.00000  Uiso   1.00
C1442  C     0.18182   0.02268   0.79620   0.00000  Uiso   1.00
C1443  C     0.15151   0.31065   0.87047   0.00000  Uiso   1.00
C1444  C     0.18466   0.31360   0.79528   0.00000  Uiso   1.00
Cu1445 Cu    0.16667   0.16667   0.88022   0.00000  Uiso   1.00
Cu1446 Cu    0.16667   0.16666   0.78645   0.00000  Uiso   1.00
H1447  H     0.19490   0.04018   0.76780   0.00000  Uiso   1.00
H1448  H     0.28655   0.03028   0.77261   0.00000  Uiso   1.00
H1449  H     0.31541   0.08209   0.83188   0.00000  Uiso   1.00
H1450  H     0.01794   0.25123   0.83480   0.00000  Uiso   1.00
H1451  H     0.04681   0.30303   0.89409   0.00000  Uiso   1.00
H1452  H     0.05786   0.28511   0.97929   0.00000  Uiso   1.00
H1453  H     0.03582   0.21543   0.67163   0.00000  Uiso   1.00
H1454  H     0.00179   0.16407   0.94586   0.00000  Uiso   1.00
H1455  H     0.28120   0.28613   0.79847   0.00000  Uiso   1.00
H1456  H     0.32520   0.26643   0.73078   0.00000  Uiso   1.00
H1457  H     0.27725   0.26633   0.98330   0.00000  Uiso   1.00
H1458  H     0.13844   0.29315   0.89887   0.00000  Uiso   1.00
H1459  H     0.18520   0.28229   0.97114   0.00000  Uiso   1.00
H1460  H     0.14110   0.30249   0.70495   0.00000  Uiso   1.00
H1461  H     0.19227   0.03090   0.96169   0.00000  Uiso   1.00
H1462  H     0.14821   0.05111   0.69552   0.00000  Uiso   1.00
H1463  H     0.05614   0.06700   0.68340   0.00000  Uiso   1.00
H1464  H     0.00814   0.06684   0.93594   0.00000  Uiso   1.00
H1465  H     0.05211   0.04714   0.86823   0.00000  Uiso   1.00
H1466  H     0.09395   0.13838   0.70139   0.00000  Uiso   1.00
H1467  H     0.23938   0.19495   0.96527   0.00000  Uiso   1.00
H1468  H     0.09431   0.13820   0.94821   0.00000  Uiso   1.00
H1469  H     0.23903   0.19513   0.71846   0.00000  Uiso   1.00
H1470  H     0.33152   0.16925   0.72080   0.00000  Uiso   1.00
H1471  H     0.29752   0.11787   0.99505   0.00000  Uiso   1.00
H1472  H     0.27550   0.04819   0.68740   0.00000  Uiso   1.00
N1473  N     0.16668   0.16668   0.95069   0.00000  Uiso   1.00
N1474  N     0.16665   0.16666   0.71597   0.00000  Uiso   1.00
O1475  O     0.16666   0.10655   0.87291   0.00000  Uiso   1.00
O1476  O     0.16667   0.22678   0.79375   0.00000  Uiso   1.00
O1477  O     0.16666   0.10654   0.79372   0.00000  Uiso   1.00
O1478  O     0.16667   0.22679   0.87294   0.00000  Uiso   1.00
O1479  O     0.09161   0.16667   0.86379   0.00000  Uiso   1.00
O1480  O     0.24172   0.16666   0.80288   0.00000  Uiso   1.00
O1481  O     0.09161   0.16666   0.78460   0.00000  Uiso   1.00
O1482  O     0.24172   0.16667   0.88207   0.00000  Uiso   1.00
C1483  C     0.49853   0.08742   0.83347   0.00000  Uiso   1.00
C1484  C     0.48201   0.01973   0.87139   0.00000  Uiso   1.00
C1485  C     0.50218   0.29056   0.83276   0.00000  Uiso   1.00
C1486  C     0.49782   0.04278   0.83391   0.00000  Uiso   1.00
C1487  C     0.45966   0.15104   0.68671   0.00000  Uiso   1.00
C1488  C     0.54034   0.18229   0.97996   0.00000  Uiso   1.00
C1489  C     0.45977   0.15098   0.97054   0.00000  Uiso   1.00
C1490  C     0.54023   0.18235   0.69613   0.00000  Uiso   1.00
C1491  C     0.65964   0.12921   0.78056   0.00000  Uiso   1.00
C1492  C     0.65474   0.13904   0.73230   0.00000  Uiso   1.00
C1493  C     0.63555   0.11009   0.69884   0.00000  Uiso   1.00
C1494  C     0.50147   0.24592   0.83319   0.00000  Uiso   1.00
C1495  C     0.62290   0.07081   0.71330   0.00000  Uiso   1.00
C1496  C     0.62884   0.06069   0.76125   0.00000  Uiso   1.00
C1497  C     0.64599   0.08996   0.79481   0.00000  Uiso   1.00
C1498  C     0.34036   0.20412   0.88611   0.00000  Uiso   1.00
C1499  C     0.35402   0.24337   0.87187   0.00000  Uiso   1.00
C1500  C     0.37118   0.27262   0.90544   0.00000  Uiso   1.00
C1501  C     0.37712   0.26249   0.95339   0.00000  Uiso   1.00
C1502  C     0.36446   0.22322   0.96784   0.00000  Uiso   1.00
C1503  C     0.34526   0.19427   0.93437   0.00000  Uiso   1.00
C1504  C     0.54156   0.29550   0.75641   0.00000  Uiso   1.00
C1505  C     0.40147   0.16602   0.82153   0.00000  Uiso   1.00
C1506  C     0.59328   0.28448   0.76359   0.00000  Uiso   1.00
C1507  C     0.61831   0.27401   0.72529   0.00000  Uiso   1.00
C1508  C     0.59145   0.27403   0.67980   0.00000  Uiso   1.00
C1509  C     0.53939   0.28327   0.67282   0.00000  Uiso   1.00
C1510  C     0.51445   0.29420   0.71093   0.00000  Uiso   1.00
C1511  C     0.45845   0.03784   0.91026   0.00000  Uiso   1.00
C1512  C     0.48559   0.03916   0.95573   0.00000  Uiso   1.00
C1513  C     0.46066   0.05010   0.99385   0.00000  Uiso   1.00
C1514  C     0.40859   0.05930   0.98689   0.00000  Uiso   1.00
C1515  C     0.38171   0.05928   0.94141   0.00000  Uiso   1.00
C1516  C     0.59853   0.16731   0.84513   0.00000  Uiso   1.00
C1517  C     0.40672   0.04882   0.90310   0.00000  Uiso   1.00
C1518  C     0.34697   0.15954   0.81656   0.00000  Uiso   1.00
C1519  C     0.65303   0.17379   0.85011   0.00000  Uiso   1.00
C1520  C     0.51516   0.02268   0.79620   0.00000  Uiso   1.00
C1521  C     0.48485   0.31065   0.87047   0.00000  Uiso   1.00
C1522  C     0.51799   0.31360   0.79528   0.00000  Uiso   1.00
Cu1523 Cu    0.50000   0.16667   0.88022   0.00000  Uiso   1.00
Cu1524 Cu    0.50000   0.16666   0.78645   0.00000  Uiso   1.00
H1525  H     0.52824   0.04018   0.76780   0.00000  Uiso   1.00
H1526  H     0.61989   0.03028   0.77261   0.00000  Uiso   1.00
H1527  H     0.64875   0.08209   0.83188   0.00000  Uiso   1.00
H1528  H     0.35127   0.25123   0.83480   0.00000  Uiso   1.00
H1529  H     0.38014   0.30303   0.89409   0.00000  Uiso   1.00
H1530  H     0.39119   0.28511   0.97929   0.00000  Uiso   1.00
H1531  H     0.36915   0.21543   0.67163   0.00000  Uiso   1.00
H1532  H     0.33513   0.16407   0.94586   0.00000  Uiso   1.00
H1533  H     0.61453   0.28613   0.79847   0.00000  Uiso   1.00
H1534  H     0.65853   0.26643   0.73078   0.00000  Uiso   1.00
H1535  H     0.61058   0.26633   0.98330   0.00000  Uiso   1.00
H1536  H     0.47177   0.29315   0.89887   0.00000  Uiso   1.00
H1537  H     0.51853   0.28229   0.97114   0.00000  Uiso   1.00
H1538  H     0.47444   0.30249   0.70495   0.00000  Uiso   1.00
H1539  H     0.52561   0.03090   0.96169   0.00000  Uiso   1.00
H1540  H     0.48154   0.05111   0.69552   0.00000  Uiso   1.00
H1541  H     0.38947   0.06700   0.68340   0.00000  Uiso   1.00
H1542  H     0.34147   0.06684   0.93594   0.00000  Uiso   1.00
H1543  H     0.38544   0.04714   0.86823   0.00000  Uiso   1.00
H1544  H     0.42729   0.13838   0.70139   0.00000  Uiso   1.00
H1545  H     0.57271   0.19495   0.96527   0.00000  Uiso   1.00
H1546  H     0.42764   0.13820   0.94821   0.00000  Uiso   1.00
H1547  H     0.57236   0.19513   0.71846   0.00000  Uiso   1.00
H1548  H     0.66486   0.16925   0.72080   0.00000  Uiso   1.00
H1549  H     0.63085   0.11787   0.99505   0.00000  Uiso   1.00
H1550  H     0.60883   0.04819   0.68740   0.00000  Uiso   1.00
N1551  N     0.50001   0.16668   0.95069   0.00000  Uiso   1.00
N1552  N     0.49999   0.16666   0.71597   0.00000  Uiso   1.00
O1553  O     0.50000   0.10655   0.87291   0.00000  Uiso   1.00
O1554  O     0.50000   0.22678   0.79375   0.00000  Uiso   1.00
O1555  O     0.50000   0.10654   0.79372   0.00000  Uiso   1.00
O1556  O     0.50000   0.22679   0.87294   0.00000  Uiso   1.00
O1557  O     0.42495   0.16667   0.86379   0.00000  Uiso   1.00
O1558  O     0.57505   0.16666   0.80288   0.00000  Uiso   1.00
O1559  O     0.42494   0.16666   0.78460   0.00000  Uiso   1.00
O1560  O     0.57506   0.16667   0.88207   0.00000  Uiso   1.00
C1561  C     0.83186   0.08742   0.83347   0.00000  Uiso   1.00
C1562  C     0.81534   0.01973   0.87139   0.00000  Uiso   1.00
C1563  C     0.83551   0.29056   0.83276   0.00000  Uiso   1.00
C1564  C     0.83116   0.04278   0.83391   0.00000  Uiso   1.00
C1565  C     0.79299   0.15104   0.68671   0.00000  Uiso   1.00
C1566  C     0.87367   0.18229   0.97996   0.00000  Uiso   1.00
C1567  C     0.79310   0.15098   0.97054   0.00000  Uiso   1.00
C1568  C     0.87357   0.18235   0.69613   0.00000  Uiso   1.00
C1569  C     0.99297   0.12921   0.78056   0.00000  Uiso   1.00
C1570  C     0.98807   0.13904   0.73230   0.00000  Uiso   1.00
C1571  C     0.96888   0.11009   0.69884   0.00000  Uiso   1.00
C1572  C     0.83481   0.24592   0.83319   0.00000  Uiso   1.00
C1573  C     0.95623   0.07081   0.71330   0.00000  Uiso   1.00
C1574  C     0.96217   0.06069   0.76125   0.00000  Uiso   1.00
C1575  C     0.97932   0.08996   0.79481   0.00000  Uiso   1.00
C1576  C     0.67370   0.20412   0.88611   0.00000  Uiso   1.00
C1577  C     0.68736   0.24337   0.87187   0.00000  Uiso   1.00
C1578  C     0.70452   0.27262   0.90544   0.00000  Uiso   1.00
C1579  C     0.71045   0.26249   0.95339   0.00000  Uiso   1.00
C1580  C     0.69779   0.22322   0.96784   0.00000  Uiso   1.00
C1581  C     0.67859   0.19427   0.93437   0.00000  Uiso   1.00
C1582  C     0.87489   0.29550   0.75641   0.00000  Uiso   1.00
C1583  C     0.73480   0.16602   0.82153   0.00000  Uiso   1.00
C1584  C     0.92661   0.28448   0.76359   0.00000  Uiso   1.00
C1585  C     0.95164   0.27401   0.72529   0.00000  Uiso   1.00
C1586  C     0.92478   0.27403   0.67980   0.00000  Uiso   1.00
C1587  C     0.87272   0.28327   0.67282   0.00000  Uiso   1.00
C1588  C     0.84778   0.29420   0.71093   0.00000  Uiso   1.00
C1589  C     0.79178   0.03784   0.91026   0.00000  Uiso   1.00
C1590  C     0.81892   0.03916   0.95573   0.00000  Uiso   1.00
C1591  C     0.79400   0.05010   0.99385   0.00000  Uiso   1.00
C1592  C     0.74192   0.05930   0.98689   0.00000  Uiso   1.00
C1593  C     0.71504   0.05928   0.94141   0.00000  Uiso   1.00
C1594  C     0.93187   0.16731   0.84513   0.00000  Uiso   1.00
C1595  C     0.74005   0.04882   0.90310   0.00000  Uiso   1.00
C1596  C     0.68031   0.15954   0.81656   0.00000  Uiso   1.00
C1597  C     0.98636   0.17379   0.85011   0.00000  Uiso   1.00
C1598  C     0.84849   0.02268   0.79620   0.00000  Uiso   1.00
C1599  C     0.81818   0.31065   0.87047   0.00000  Uiso   1.00
C1600  C     0.85133   0.31360   0.79528   0.00000  Uiso   1.00
Cu1601 Cu    0.83333   0.16667   0.88022   0.00000  Uiso   1.00
Cu1602 Cu    0.83333   0.16666   0.78645   0.00000  Uiso   1.00
H1603  H     0.86157   0.04018   0.76780   0.00000  Uiso   1.00
H1604  H     0.95322   0.03028   0.77261   0.00000  Uiso   1.00
H1605  H     0.98208   0.08209   0.83188   0.00000  Uiso   1.00
H1606  H     0.68461   0.25123   0.83480   0.00000  Uiso   1.00
H1607  H     0.71348   0.30303   0.89409   0.00000  Uiso   1.00
H1608  H     0.72453   0.28511   0.97929   0.00000  Uiso   1.00
H1609  H     0.70249   0.21543   0.67163   0.00000  Uiso   1.00
H1610  H     0.66846   0.16407   0.94586   0.00000  Uiso   1.00
H1611  H     0.94787   0.28613   0.79847   0.00000  Uiso   1.00
H1612  H     0.99187   0.26643   0.73078   0.00000  Uiso   1.00
H1613  H     0.94391   0.26633   0.98330   0.00000  Uiso   1.00
H1614  H     0.80510   0.29315   0.89887   0.00000  Uiso   1.00
H1615  H     0.85186   0.28229   0.97114   0.00000  Uiso   1.00
H1616  H     0.80777   0.30249   0.70495   0.00000  Uiso   1.00
H1617  H     0.85894   0.03090   0.96169   0.00000  Uiso   1.00
H1618  H     0.81488   0.05111   0.69552   0.00000  Uiso   1.00
H1619  H     0.72281   0.06700   0.68340   0.00000  Uiso   1.00
H1620  H     0.67480   0.06684   0.93594   0.00000  Uiso   1.00
H1621  H     0.71878   0.04714   0.86823   0.00000  Uiso   1.00
H1622  H     0.76062   0.13838   0.70139   0.00000  Uiso   1.00
H1623  H     0.90605   0.19495   0.96527   0.00000  Uiso   1.00
H1624  H     0.76097   0.13820   0.94821   0.00000  Uiso   1.00
H1625  H     0.90569   0.19513   0.71846   0.00000  Uiso   1.00
H1626  H     0.99819   0.16925   0.72080   0.00000  Uiso   1.00
H1627  H     0.96418   0.11787   0.99505   0.00000  Uiso   1.00
H1628  H     0.94216   0.04819   0.68740   0.00000  Uiso   1.00
N1629  N     0.83335   0.16668   0.95069   0.00000  Uiso   1.00
N1630  N     0.83332   0.16666   0.71597   0.00000  Uiso   1.00
O1631  O     0.83333   0.10655   0.87291   0.00000  Uiso   1.00
O1632  O     0.83334   0.22678   0.79375   0.00000  Uiso   1.00
O1633  O     0.83333   0.10654   0.79372   0.00000  Uiso   1.00
O1634  O     0.83334   0.22679   0.87294   0.00000  Uiso   1.00
O1635  O     0.75828   0.16667   0.86379   0.00000  Uiso   1.00
O1636  O     0.90839   0.16666   0.80288   0.00000  Uiso   1.00
O1637  O     0.75828   0.16666   0.78460   0.00000  Uiso   1.00
O1638  O     0.90839   0.16667   0.88207   0.00000  Uiso   1.00
C1639  C     0.16519   0.42075   0.83347   0.00000  Uiso   1.00
C1640  C     0.14867   0.35306   0.87139   0.00000  Uiso   1.00
C1641  C     0.16884   0.62389   0.83276   0.00000  Uiso   1.00
C1642  C     0.16449   0.37611   0.83391   0.00000  Uiso   1.00
C1643  C     0.12633   0.48438   0.68671   0.00000  Uiso   1.00
C1644  C     0.20701   0.51563   0.97996   0.00000  Uiso   1.00
C1645  C     0.12643   0.48432   0.97054   0.00000  Uiso   1.00
C1646  C     0.20690   0.51568   0.69613   0.00000  Uiso   1.00
C1647  C     0.32631   0.46254   0.78056   0.00000  Uiso   1.00
C1648  C     0.32141   0.47237   0.73230   0.00000  Uiso   1.00
C1649  C     0.30221   0.44342   0.69884   0.00000  Uiso   1.00
C1650  C     0.16814   0.57925   0.83319   0.00000  Uiso   1.00
C1651  C     0.28957   0.40415   0.71330   0.00000  Uiso   1.00
C1652  C     0.29551   0.39403   0.76125   0.00000  Uiso   1.00
C1653  C     0.31266   0.42329   0.79481   0.00000  Uiso   1.00
C1654  C     0.00703   0.53745   0.88611   0.00000  Uiso   1.00
C1655  C     0.02069   0.57670   0.87187   0.00000  Uiso   1.00
C1656  C     0.03785   0.60595   0.90544   0.00000  Uiso   1.00
C1657  C     0.04379   0.59583   0.95339   0.00000  Uiso   1.00
C1658  C     0.03113   0.55655   0.96784   0.00000  Uiso   1.00
C1659  C     0.01192   0.52761   0.93437   0.00000  Uiso   1.00
C1660  C     0.20823   0.62883   0.75641   0.00000  Uiso   1.00
C1661  C     0.06813   0.49935   0.82153   0.00000  Uiso   1.00
C1662  C     0.25995   0.61781   0.76359   0.00000  Uiso   1.00
C1663  C     0.28497   0.60735   0.72529   0.00000  Uiso   1.00
C1664  C     0.25812   0.60736   0.67980   0.00000  Uiso   1.00
C1665  C     0.20606   0.61660   0.67282   0.00000  Uiso   1.00
C1666  C     0.18111   0.62754   0.71093   0.00000  Uiso   1.00
C1667  C     0.12512   0.37117   0.91026   0.00000  Uiso   1.00
C1668  C     0.15226   0.37250   0.95573   0.00000  Uiso   1.00
C1669  C     0.12733   0.38343   0.99385   0.00000  Uiso   1.00
C1670  C     0.07526   0.39263   0.98689   0.00000  Uiso   1.00
C1671  C     0.04837   0.39262   0.94141   0.00000  Uiso   1.00
C1672  C     0.26520   0.50065   0.84513   0.00000  Uiso   1.00
C1673  C     0.07338   0.38215   0.90310   0.00000  Uiso   1.00
C1674  C     0.01364   0.49287   0.81656   0.00000  Uiso   1.00
C1675  C     0.31969   0.50713   0.85011   0.00000  Uiso   1.00
C1676  C     0.18182   0.35602   0.79620   0.00000  Uiso   1.00
C1677  C     0.15151   0.64398   0.87047   0.00000  Uiso   1.00
C1678  C     0.18466   0.64694   0.79528   0.00000  Uiso   1.00
Cu1679 Cu    0.16667   0.50001   0.88022   0.00000  Uiso   1.00
Cu1680 Cu    0.16667   0.49999   0.78645   0.00000  Uiso   1.00
H1681  H     0.19490   0.37352   0.76780   0.00000  Uiso   1.00
H1682  H     0.28655   0.36362   0.77261   0.00000  Uiso   1.00
H1683  H     0.31541   0.41543   0.83188   0.00000  Uiso   1.00
H1684  H     0.01794   0.58457   0.83480   0.00000  Uiso   1.00
H1685  H     0.04681   0.63636   0.89409   0.00000  Uiso   1.00
H1686  H     0.05786   0.61844   0.97929   0.00000  Uiso   1.00
H1687  H     0.03582   0.54877   0.67163   0.00000  Uiso   1.00
H1688  H     0.00179   0.49740   0.94586   0.00000  Uiso   1.00
H1689  H     0.28120   0.61947   0.79847   0.00000  Uiso   1.00
H1690  H     0.32520   0.59976   0.73078   0.00000  Uiso   1.00
H1691  H     0.27725   0.59966   0.98330   0.00000  Uiso   1.00
H1692  H     0.13844   0.62648   0.89887   0.00000  Uiso   1.00
H1693  H     0.18520   0.61562   0.97114   0.00000  Uiso   1.00
H1694  H     0.14110   0.63583   0.70495   0.00000  Uiso   1.00
H1695  H     0.19227   0.36423   0.96169   0.00000  Uiso   1.00
H1696  H     0.14821   0.38444   0.69552   0.00000  Uiso   1.00
H1697  H     0.05614   0.40033   0.68340   0.00000  Uiso   1.00
H1698  H     0.00814   0.40017   0.93594   0.00000  Uiso   1.00
H1699  H     0.05211   0.38047   0.86823   0.00000  Uiso   1.00
H1700  H     0.09395   0.47172   0.70139   0.00000  Uiso   1.00
H1701  H     0.23938   0.52829   0.96527   0.00000  Uiso   1.00
H1702  H     0.09431   0.47153   0.94821   0.00000  Uiso   1.00
H1703  H     0.23903   0.52846   0.71846   0.00000  Uiso   1.00
H1704  H     0.33152   0.50258   0.72080   0.00000  Uiso   1.00
H1705  H     0.29752   0.45120   0.99505   0.00000  Uiso   1.00
H1706  H     0.27550   0.38152   0.68740   0.00000  Uiso   1.00
N1707  N     0.16668   0.50001   0.95069   0.00000  Uiso   1.00
N1708  N     0.16665   0.49999   0.71597   0.00000  Uiso   1.00
O1709  O     0.16666   0.43989   0.87291   0.00000  Uiso   1.00
O1710  O     0.16667   0.56011   0.79375   0.00000  Uiso   1.00
O1711  O     0.16666   0.43988   0.79372   0.00000  Uiso   1.00
O1712  O     0.16667   0.56012   0.87294   0.00000  Uiso   1.00
O1713  O     0.09161   0.50000   0.86379   0.00000  Uiso   1.00
O1714  O     0.24172   0.50000   0.80288   0.00000  Uiso   1.00
O1715  O     0.09161   0.49999   0.78460   0.00000  Uiso   1.00
O1716  O     0.24172   0.50001   0.88207   0.00000  Uiso   1.00
C1717  C     0.49853   0.42075   0.83347   0.00000  Uiso   1.00
C1718  C     0.48201   0.35306   0.87139   0.00000  Uiso   1.00
C1719  C     0.50218   0.62389   0.83276   0.00000  Uiso   1.00
C1720  C     0.49782   0.37611   0.83391   0.00000  Uiso   1.00
C1721  C     0.45966   0.48438   0.68671   0.00000  Uiso   1.00
C1722  C     0.54034   0.51563   0.97996   0.00000  Uiso   1.00
C1723  C     0.45977   0.48432   0.97054   0.00000  Uiso   1.00
C1724  C     0.54023   0.51568   0.69613   0.00000  Uiso   1.00
C1725  C     0.65964   0.46254   0.78056   0.00000  Uiso   1.00
C1726  C     0.65474   0.47237   0.73230   0.00000  Uiso   1.00
C1727  C     0.63555   0.44342   0.69884   0.00000  Uiso   1.00
C1728  C     0.50147   0.57925   0.83319   0.00000  Uiso   1.00
C1729  C     0.62290   0.40415   0.71330   0.00000  Uiso   1.00
C1730  C     0.62884   0.39403   0.76125   0.00000  Uiso   1.00
C1731  C     0.64599   0.42329   0.79481   0.00000  Uiso   1.00
C1732  C     0.34036   0.53745   0.88611   0.00000  Uiso   1.00
C1733  C     0.35402   0.57670   0.87187   0.00000  Uiso   1.00
C1734  C     0.37118   0.60595   0.90544   0.00000  Uiso   1.00
C1735  C     0.37712   0.59583   0.95339   0.00000  Uiso   1.00
C1736  C     0.36446   0.55655   0.96784   0.00000  Uiso   1.00
C1737  C     0.34526   0.52761   0.93437   0.00000  Uiso   1.00
C1738  C     0.54156   0.62883   0.75641   0.00000  Uiso   1.00
C1739  C     0.40147   0.49935   0.82153   0.00000  Uiso   1.00
C1740  C     0.59328   0.61781   0.76359   0.00000  Uiso   1.00
C1741  C     0.61831   0.60735   0.72529   0.00000  Uiso   1.00
C1742  C     0.59145   0.60736   0.67980   0.00000  Uiso   1.00
C1743  C     0.53939   0.61660   0.67282   0.00000  Uiso   1.00
C1744  C     0.51445   0.62754   0.71093   0.00000  Uiso   1.00
C1745  C     0.45845   0.37117   0.91026   0.00000  Uiso   1.00
C1746  C     0.48559   0.37250   0.95573   0.00000  Uiso   1.00
C1747  C     0.46066   0.38343   0.99385   0.00000  Uiso   1.00
C1748  C     0.40859   0.39263   0.98689   0.00000  Uiso   1.00
C1749  C     0.38171   0.39262   0.94141   0.00000  Uiso   1.00
C1750  C     0.59853   0.50065   0.84513   0.00000  Uiso   1.00
C1751  C     0.40672   0.38215   0.90310   0.00000  Uiso   1.00
C1752  C     0.34697   0.49287   0.81656   0.00000  Uiso   1.00
C1753  C     0.65303   0.50713   0.85011   0.00000  Uiso   1.00
C1754  C     0.51516   0.35602   0.79620   0.00000  Uiso   1.00
C1755  C     0.48485   0.64398   0.87047   0.00000  Uiso   1.00
C1756  C     0.51799   0.64694   0.79528   0.00000  Uiso   1.00
Cu1757 Cu    0.50000   0.50001   0.88022   0.00000  Uiso   1.00
Cu1758 Cu    0.50000   0.49999   0.78645   0.00000  Uiso   1.00
H1759  H     0.52824   0.37352   0.76780   0.00000  Uiso   1.00
H1760  H     0.61989   0.36362   0.77261   0.00000  Uiso   1.00
H1761  H     0.64875   0.41543   0.83188   0.00000  Uiso   1.00
H1762  H     0.35127   0.58457   0.83480   0.00000  Uiso   1.00
H1763  H     0.38014   0.63636   0.89409   0.00000  Uiso   1.00
H1764  H     0.39119   0.61844   0.97929   0.00000  Uiso   1.00
H1765  H     0.36915   0.54877   0.67163   0.00000  Uiso   1.00
H1766  H     0.33513   0.49740   0.94586   0.00000  Uiso   1.00
H1767  H     0.61453   0.61947   0.79847   0.00000  Uiso   1.00
H1768  H     0.65853   0.59976   0.73078   0.00000  Uiso   1.00
H1769  H     0.61058   0.59966   0.98330   0.00000  Uiso   1.00
H1770  H     0.47177   0.62648   0.89887   0.00000  Uiso   1.00
H1771  H     0.51853   0.61562   0.97114   0.00000  Uiso   1.00
H1772  H     0.47444   0.63583   0.70495   0.00000  Uiso   1.00
H1773  H     0.52561   0.36423   0.96169   0.00000  Uiso   1.00
H1774  H     0.48154   0.38444   0.69552   0.00000  Uiso   1.00
H1775  H     0.38947   0.40033   0.68340   0.00000  Uiso   1.00
H1776  H     0.34147   0.40017   0.93594   0.00000  Uiso   1.00
H1777  H     0.38544   0.38047   0.86823   0.00000  Uiso   1.00
H1778  H     0.42729   0.47172   0.70139   0.00000  Uiso   1.00
H1779  H     0.57271   0.52829   0.96527   0.00000  Uiso   1.00
H1780  H     0.42764   0.47153   0.94821   0.00000  Uiso   1.00
H1781  H     0.57236   0.52846   0.71846   0.00000  Uiso   1.00
H1782  H     0.66486   0.50258   0.72080   0.00000  Uiso   1.00
H1783  H     0.63085   0.45120   0.99505   0.00000  Uiso   1.00
H1784  H     0.60883   0.38152   0.68740   0.00000  Uiso   1.00
N1785  N     0.50001   0.50001   0.95069   0.00000  Uiso   1.00
N1786  N     0.49999   0.49999   0.71597   0.00000  Uiso   1.00
O1787  O     0.50000   0.43989   0.87291   0.00000  Uiso   1.00
O1788  O     0.50000   0.56011   0.79375   0.00000  Uiso   1.00
O1789  O     0.50000   0.43988   0.79372   0.00000  Uiso   1.00
O1790  O     0.50000   0.56012   0.87294   0.00000  Uiso   1.00
O1791  O     0.42495   0.50000   0.86379   0.00000  Uiso   1.00
O1792  O     0.57505   0.50000   0.80288   0.00000  Uiso   1.00
O1793  O     0.42494   0.49999   0.78460   0.00000  Uiso   1.00
O1794  O     0.57506   0.50001   0.88207   0.00000  Uiso   1.00
C1795  C     0.83186   0.42075   0.83347   0.00000  Uiso   1.00
C1796  C     0.81534   0.35306   0.87139   0.00000  Uiso   1.00
C1797  C     0.83551   0.62389   0.83276   0.00000  Uiso   1.00
C1798  C     0.83116   0.37611   0.83391   0.00000  Uiso   1.00
C1799  C     0.79299   0.48438   0.68671   0.00000  Uiso   1.00
C1800  C     0.87367   0.51563   0.97996   0.00000  Uiso   1.00
C1801  C     0.79310   0.48432   0.97054   0.00000  Uiso   1.00
C1802  C     0.87357   0.51568   0.69613   0.00000  Uiso   1.00
C1803  C     0.99297   0.46254   0.78056   0.00000  Uiso   1.00
C1804  C     0.98807   0.47237   0.73230   0.00000  Uiso   1.00
C1805  C     0.96888   0.44342   0.69884   0.00000  Uiso   1.00
C1806  C     0.83481   0.57925   0.83319   0.00000  Uiso   1.00
C1807  C     0.95623   0.40415   0.71330   0.00000  Uiso   1.00
C1808  C     0.96217   0.39403   0.76125   0.00000  Uiso   1.00
C1809  C     0.97932   0.42329   0.79481   0.00000  Uiso   1.00
C1810  C     0.67370   0.53745   0.88611   0.00000  Uiso   1.00
C1811  C     0.68736   0.57670   0.87187   0.00000  Uiso   1.00
C1812  C     0.70452   0.60595   0.90544   0.00000  Uiso   1.00
C1813  C     0.71045   0.59583   0.95339   0.00000  Uiso   1.00
C1814  C     0.69779   0.55655   0.96784   0.00000  Uiso   1.00
C1815  C     0.67859   0.52761   0.93437   0.00000  Uiso   1.00
C1816  C     0.87489   0.62883   0.75641   0.00000  Uiso   1.00
C1817  C     0.73480   0.49935   0.82153   0.00000  Uiso   1.00
C1818  C     0.92661   0.61781   0.76359   0.00000  Uiso   1.00
C1819  C     0.95164   0.60735   0.72529   0.00000  Uiso   1.00
C1820  C     0.92478   0.60736   0.67980   0.00000  Uiso   1.00
C1821  C     0.87272   0.61660   0.67282   0.00000  Uiso   1.00
C1822  C     0.84778   0.62754   0.71093   0.00000  Uiso   1.00
C1823  C     0.79178   0.37117   0.91026   0.00000  Uiso   1.00
C1824  C     0.81892   0.37250   0.95573   0.00000  Uiso   1.00
C1825  C     0.79400   0.38343   0.99385   0.00000  Uiso   1.00
C1826  C     0.74192   0.39263   0.98689   0.00000  Uiso   1.00
C1827  C     0.71504   0.39262   0.94141   0.00000  Uiso   1.00
C1828  C     0.93187   0.50065   0.84513   0.00000  Uiso   1.00
C1829  C     0.74005   0.38215   0.90310   0.00000  Uiso   1.00
C1830  C     0.68031   0.49287   0.81656   0.00000  Uiso   1.00
C1831  C     0.98636   0.50713   0.85011   0.00000  Uiso   1.00
C1832  C     0.84849   0.35602   0.79620   0.00000  Uiso   1.00
C1833  C     0.81818   0.64398   0.87047   0.00000  Uiso   1.00
C1834  C     0.85133   0.64694   0.79528   0.00000  Uiso   1.00
Cu1835 Cu    0.83333   0.50001   0.88022   0.00000  Uiso   1.00
Cu1836 Cu    0.83333   0.49999   0.78645   0.00000  Uiso   1.00
H1837  H     0.86157   0.37352   0.76780   0.00000  Uiso   1.00
H1838  H     0.95322   0.36362   0.77261   0.00000  Uiso   1.00
H1839  H     0.98208   0.41543   0.83188   0.00000  Uiso   1.00
H1840  H     0.68461   0.58457   0.83480   0.00000  Uiso   1.00
H1841  H     0.71348   0.63636   0.89409   0.00000  Uiso   1.00
H1842  H     0.72453   0.61844   0.97929   0.00000  Uiso   1.00
H1843  H     0.70249   0.54877   0.67163   0.00000  Uiso   1.00
H1844  H     0.66846   0.49740   0.94586   0.00000  Uiso   1.00
H1845  H     0.94787   0.61947   0.79847   0.00000  Uiso   1.00
H1846  H     0.99187   0.59976   0.73078   0.00000  Uiso   1.00
H1847  H     0.94391   0.59966   0.98330   0.00000  Uiso   1.00
H1848  H     0.80510   0.62648   0.89887   0.00000  Uiso   1.00
H1849  H     0.85186   0.61562   0.97114   0.00000  Uiso   1.00
H1850  H     0.80777   0.63583   0.70495   0.00000  Uiso   1.00
H1851  H     0.85894   0.36423   0.96169   0.00000  Uiso   1.00
H1852  H     0.81488   0.38444   0.69552   0.00000  Uiso   1.00
H1853  H     0.72281   0.40033   0.68340   0.00000  Uiso   1.00
H1854  H     0.67480   0.40017   0.93594   0.00000  Uiso   1.00
H1855  H     0.71878   0.38047   0.86823   0.00000  Uiso   1.00
H1856  H     0.76062   0.47172   0.70139   0.00000  Uiso   1.00
H1857  H     0.90605   0.52829   0.96527   0.00000  Uiso   1.00
H1858  H     0.76097   0.47153   0.94821   0.00000  Uiso   1.00
H1859  H     0.90569   0.52846   0.71846   0.00000  Uiso   1.00
H1860  H     0.99819   0.50258   0.72080   0.00000  Uiso   1.00
H1861  H     0.96418   0.45120   0.99505   0.00000  Uiso   1.00
H1862  H     0.94216   0.38152   0.68740   0.00000  Uiso   1.00
N1863  N     0.83335   0.50001   0.95069   0.00000  Uiso   1.00
N1864  N     0.83332   0.49999   0.71597   0.00000  Uiso   1.00
O1865  O     0.83333   0.43989   0.87291   0.00000  Uiso   1.00
O1866  O     0.83334   0.56011   0.79375   0.00000  Uiso   1.00
O1867  O     0.83333   0.43988   0.79372   0.00000  Uiso   1.00
O1868  O     0.83334   0.56012   0.87294   0.00000  Uiso   1.00
O1869  O     0.75828   0.50000   0.86379   0.00000  Uiso   1.00
O1870  O     0.90839   0.50000   0.80288   0.00000  Uiso   1.00
O1871  O     0.75828   0.49999   0.78460   0.00000  Uiso   1.00
O1872  O     0.90839   0.50001   0.88207   0.00000  Uiso   1.00
C1873  C     0.16519   0.75408   0.83347   0.00000  Uiso   1.00
C1874  C     0.14867   0.68640   0.87139   0.00000  Uiso   1.00
C1875  C     0.16884   0.95722   0.83276   0.00000  Uiso   1.00
C1876  C     0.16449   0.70944   0.83391   0.00000  Uiso   1.00
C1877  C     0.12633   0.81771   0.68671   0.00000  Uiso   1.00
C1878  C     0.20701   0.84896   0.97996   0.00000  Uiso   1.00
C1879  C     0.12643   0.81765   0.97054   0.00000  Uiso   1.00
C1880  C     0.20690   0.84902   0.69613   0.00000  Uiso   1.00
C1881  C     0.32631   0.79587   0.78056   0.00000  Uiso   1.00
C1882  C     0.32141   0.80571   0.73230   0.00000  Uiso   1.00
C1883  C     0.30221   0.77675   0.69884   0.00000  Uiso   1.00
C1884  C     0.16814   0.91258   0.83319   0.00000  Uiso   1.00
C1885  C     0.28957   0.73748   0.71330   0.00000  Uiso   1.00
C1886  C     0.29551   0.72736   0.76125   0.00000  Uiso   1.00
C1887  C     0.31266   0.75662   0.79481   0.00000  Uiso   1.00
C1888  C     0.00703   0.87078   0.88611   0.00000  Uiso   1.00
C1889  C     0.02069   0.91003   0.87187   0.00000  Uiso   1.00
C1890  C     0.03785   0.93929   0.90544   0.00000  Uiso   1.00
C1891  C     0.04379   0.92916   0.95339   0.00000  Uiso   1.00
C1892  C     0.03113   0.88989   0.96784   0.00000  Uiso   1.00
C1893  C     0.01192   0.86094   0.93437   0.00000  Uiso   1.00
C1894  C     0.20823   0.96216   0.75641   0.00000  Uiso   1.00
C1895  C     0.06813   0.83268   0.82153   0.00000  Uiso   1.00
C1896  C     0.25995   0.95115   0.76359   0.00000  Uiso   1.00
C1897  C     0.28497   0.94068   0.72529   0.00000  Uiso   1.00
C1898  C     0.25812   0.94070   0.67980   0.00000  Uiso   1.00
C1899  C     0.20606   0.94993   0.67282   0.00000  Uiso   1.00
C1900  C     0.18111   0.96087   0.71093   0.00000  Uiso   1.00
C1901  C     0.12512   0.70450   0.91026   0.00000  Uiso   1.00
C1902  C     0.15226   0.70583   0.95573   0.00000  Uiso   1.00
C1903  C     0.12733   0.71676   0.99385   0.00000  Uiso   1.00
C1904  C     0.07526   0.72597   0.98689   0.00000  Uiso   1.00
C1905  C     0.04837   0.72595   0.94141   0.00000  Uiso   1.00
C1906  C     0.26520   0.83398   0.84513   0.00000  Uiso   1.00
C1907  C     0.07338   0.71549   0.90310   0.00000  Uiso   1.00
C1908  C     0.01364   0.82620   0.81656   0.00000  Uiso   1.00
C1909  C     0.31969   0.84046   0.85011   0.00000  Uiso   1.00
C1910  C     0.18182   0.68935   0.79620   0.00000  Uiso   1.00
C1911  C     0.15151   0.97732   0.87047   0.00000  Uiso   1.00
C1912  C     0.18466   0.98027   0.79528   0.00000  Uiso   1.00
Cu1913 Cu    0.16667   0.83334   0.88022   0.00000  Uiso   1.00
Cu1914 Cu    0.16667   0.83333   0.78645   0.00000  Uiso   1.00
H1915  H     0.19490   0.70685   0.76780   0.00000  Uiso   1.00
H1916  H     0.28655   0.69695   0.77261   0.00000  Uiso   1.00
H1917  H     0.31541   0.74876   0.83188   0.00000  Uiso   1.00
H1918  H     0.01794   0.91790   0.83480   0.00000  Uiso   1.00
H1919  H     0.04681   0.96970   0.89409   0.00000  Uiso   1.00
H1920  H     0.05786   0.95178   0.97929   0.00000  Uiso   1.00
H1921  H     0.03582   0.88210   0.67163   0.00000  Uiso   1.00
H1922  H     0.00179   0.83073   0.94586   0.00000  Uiso   1.00
H1923  H     0.28120   0.95280   0.79847   0.00000  Uiso   1.00
H1924  H     0.32520   0.93310   0.73078   0.00000  Uiso   1.00
H1925  H     0.27725   0.93300   0.98330   0.00000  Uiso   1.00
H1926  H     0.13844   0.95982   0.89887   0.00000  Uiso   1.00
H1927  H     0.18520   0.94895   0.97114   0.00000  Uiso   1.00
H1928  H     0.14110   0.96916   0.70495   0.00000  Uiso   1.00
H1929  H     0.19227   0.69756   0.96169   0.00000  Uiso   1.00
H1930  H     0.14821   0.71777   0.69552   0.00000  Uiso   1.00
H1931  H     0.05614   0.73366   0.68340   0.00000  Uiso   1.00
H1932  H     0.00814   0.73351   0.93594   0.00000  Uiso   1.00
H1933  H     0.05211   0.71381   0.86823   0.00000  Uiso   1.00
H1934  H     0.09395   0.80505   0.70139   0.00000  Uiso   1.00
H1935  H     0.23938   0.86162   0.96527   0.00000  Uiso   1.00
H1936  H     0.09431   0.80487   0.94821   0.00000  Uiso   1.00
H1937  H     0.23903   0.86180   0.71846   0.00000  Uiso   1.00
H1938  H     0.33152   0.83592   0.72080   0.00000  Uiso   1.00
H1939  H     0.29752   0.78454   0.99505   0.00000  Uiso   1.00
H1940  H     0.27550   0.71486   0.68740   0.00000  Uiso   1.00
N1941  N     0.16668   0.83334   0.95069   0.00000  Uiso   1.00
N1942  N     0.16665   0.83332   0.71597   0.00000  Uiso   1.00
O1943  O     0.16666   0.77322   0.87291   0.00000  Uiso   1.00
O1944  O     0.16667   0.89345   0.79375   0.00000  Uiso   1.00
O1945  O     0.16666   0.77321   0.79372   0.00000  Uiso   1.00
O1946  O     0.16667   0.89346   0.87294   0.00000  Uiso   1.00
O1947  O     0.09161   0.83334   0.86379   0.00000  Uiso   1.00
O1948  O     0.24172   0.83333   0.80288   0.00000  Uiso   1.00
O1949  O     0.09161   0.83333   0.78460   0.00000  Uiso   1.00
O1950  O     0.24172   0.83334   0.88207   0.00000  Uiso   1.00
C1951  C     0.49853   0.75408   0.83347   0.00000  Uiso   1.00
C1952  C     0.48201   0.68640   0.87139   0.00000  Uiso   1.00
C1953  C     0.50218   0.95722   0.83276   0.00000  Uiso   1.00
C1954  C     0.49782   0.70944   0.83391   0.00000  Uiso   1.00
C1955  C     0.45966   0.81771   0.68671   0.00000  Uiso   1.00
C1956  C     0.54034   0.84896   0.97996   0.00000  Uiso   1.00
C1957  C     0.45977   0.81765   0.97054   0.00000  Uiso   1.00
C1958  C     0.54023   0.84902   0.69613   0.00000  Uiso   1.00
C1959  C     0.65964   0.79587   0.78056   0.00000  Uiso   1.00
C1960  C     0.65474   0.80571   0.73230   0.00000  Uiso   1.00
C1961  C     0.63555   0.77675   0.69884   0.00000  Uiso   1.00
C1962  C     0.50147   0.91258   0.83319   0.00000  Uiso   1.00
C1963  C     0.62290   0.73748   0.71330   0.00000  Uiso   1.00
C1964  C     0.62884   0.72736   0.76125   0.00000  Uiso   1.00
C1965  C     0.64599   0.75662   0.79481   0.00000  Uiso   1.00
C1966  C     0.34036   0.87078   0.88611   0.00000  Uiso   1.00
C1967  C     0.35402   0.91003   0.87187   0.00000  Uiso   1.00
C1968  C     0.37118   0.93929   0.90544   0.00000  Uiso   1.00
C1969  C     0.37712   0.92916   0.95339   0.00000  Uiso   1.00
C1970  C     0.36446   0.88989   0.96784   0.00000  Uiso   1.00
C1971  C     0.34526   0.86094   0.93437   0.00000  Uiso   1.00
C1972  C     0.54156   0.96216   0.75641   0.00000  Uiso   1.00
C1973  C     0.40147   0.83268   0.82153   0.00000  Uiso   1.00
C1974  C     0.59328   0.95115   0.76359   0.00000  Uiso   1.00
C1975  C     0.61831   0.94068   0.72529   0.00000  Uiso   1.00
C1976  C     0.59145   0.94070   0.67980   0.00000  Uiso   1.00
C1977  C     0.53939   0.94993   0.67282   0.00000  Uiso   1.00
C1978  C     0.51445   0.96087   0.71093   0.00000  Uiso   1.00
C1979  C     0.45845   0.70450   0.91026   0.00000  Uiso   1.00
C1980  C     0.48559   0.70583   0.95573   0.00000  Uiso   1.00
C1981  C     0.46066   0.71676   0.99385   0.00000  Uiso   1.00
C1982  C     0.40859   0.72597   0.98689   0.00000  Uiso   1.00
C1983  C     0.38171   0.72595   0.94141   0.00000  Uiso   1.00
C1984  C     0.59853   0.83398   0.84513   0.00000  Uiso   1.00
C1985  C     0.40672   0.71549   0.90310   0.00000  Uiso   1.00
C1986  C     0.34697   0.82620   0.81656   0.00000  Uiso   1.00
C1987  C     0.65303   0.84046   0.85011   0.00000  Uiso   1.00
C1988  C     0.51516   0.68935   0.79620   0.00000  Uiso   1.00
C1989  C     0.48485   0.97732   0.87047   0.00000  Uiso   1.00
C1990  C     0.51799   0.98027   0.79528   0.00000  Uiso   1.00
Cu1991 Cu    0.50000   0.83334   0.88022   0.00000  Uiso   1.00
Cu1992 Cu    0.50000   0.83333   0.78645   0.00000  Uiso   1.00
H1993  H     0.52824   0.70685   0.76780   0.00000  Uiso   1.00
H1994  H     0.61989   0.69695   0.77261   0.00000  Uiso   1.00
H1995  H     0.64875   0.74876   0.83188   0.00000  Uiso   1.00
H1996  H     0.35127   0.91790   0.83480   0.00000  Uiso   1.00
H1997  H     0.38014   0.96970   0.89409   0.00000  Uiso   1.00
H1998  H     0.39119   0.95178   0.97929   0.00000  Uiso   1.00
H1999  H     0.36915   0.88210   0.67163   0.00000  Uiso   1.00
H2000  H     0.33513   0.83073   0.94586   0.00000  Uiso   1.00
H2001  H     0.61453   0.95280   0.79847   0.00000  Uiso   1.00
H2002  H     0.65853   0.93310   0.73078   0.00000  Uiso   1.00
H2003  H     0.61058   0.93300   0.98330   0.00000  Uiso   1.00
H2004  H     0.47177   0.95982   0.89887   0.00000  Uiso   1.00
H2005  H     0.51853   0.94895   0.97114   0.00000  Uiso   1.00
H2006  H     0.47444   0.96916   0.70495   0.00000  Uiso   1.00
H2007  H     0.52561   0.69756   0.96169   0.00000  Uiso   1.00
H2008  H     0.48154   0.71777   0.69552   0.00000  Uiso   1.00
H2009  H     0.38947   0.73366   0.68340   0.00000  Uiso   1.00
H2010  H     0.34147   0.73351   0.93594   0.00000  Uiso   1.00
H2011  H     0.38544   0.71381   0.86823   0.00000  Uiso   1.00
H2012  H     0.42729   0.80505   0.70139   0.00000  Uiso   1.00
H2013  H     0.57271   0.86162   0.96527   0.00000  Uiso   1.00
H2014  H     0.42764   0.80487   0.94821   0.00000  Uiso   1.00
H2015  H     0.57236   0.86180   0.71846   0.00000  Uiso   1.00
H2016  H     0.66486   0.83592   0.72080   0.00000  Uiso   1.00
H2017  H     0.63085   0.78454   0.99505   0.00000  Uiso   1.00
H2018  H     0.60883   0.71486   0.68740   0.00000  Uiso   1.00
N2019  N     0.50001   0.83334   0.95069   0.00000  Uiso   1.00
N2020  N     0.49999   0.83332   0.71597   0.00000  Uiso   1.00
O2021  O     0.50000   0.77322   0.87291   0.00000  Uiso   1.00
O2022  O     0.50000   0.89345   0.79375   0.00000  Uiso   1.00
O2023  O     0.50000   0.77321   0.79372   0.00000  Uiso   1.00
O2024  O     0.50000   0.89346   0.87294   0.00000  Uiso   1.00
O2025  O     0.42495   0.83334   0.86379   0.00000  Uiso   1.00
O2026  O     0.57505   0.83333   0.80288   0.00000  Uiso   1.00
O2027  O     0.42494   0.83333   0.78460   0.00000  Uiso   1.00
O2028  O     0.57506   0.83334   0.88207   0.00000  Uiso   1.00
C2029  C     0.83186   0.75408   0.83347   0.00000  Uiso   1.00
C2030  C     0.81534   0.68640   0.87139   0.00000  Uiso   1.00
C2031  C     0.83551   0.95722   0.83276   0.00000  Uiso   1.00
C2032  C     0.83116   0.70944   0.83391   0.00000  Uiso   1.00
C2033  C     0.79299   0.81771   0.68671   0.00000  Uiso   1.00
C2034  C     0.87367   0.84896   0.97996   0.00000  Uiso   1.00
C2035  C     0.79310   0.81765   0.97054   0.00000  Uiso   1.00
C2036  C     0.87357   0.84902   0.69613   0.00000  Uiso   1.00
C2037  C     0.99297   0.79587   0.78056   0.00000  Uiso   1.00
C2038  C     0.98807   0.80571   0.73230   0.00000  Uiso   1.00
C2039  C     0.96888   0.77675   0.69884   0.00000  Uiso   1.00
C2040  C     0.83481   0.91258   0.83319   0.00000  Uiso   1.00
C2041  C     0.95623   0.73748   0.71330   0.00000  Uiso   1.00
C2042  C     0.96217   0.72736   0.76125   0.00000  Uiso   1.00
C2043  C     0.97932   0.75662   0.79481   0.00000  Uiso   1.00
C2044  C     0.67370   0.87078   0.88611   0.00000  Uiso   1.00
C2045  C     0.68736   0.91003   0.87187   0.00000  Uiso   1.00
C2046  C     0.70452   0.93929   0.90544   0.00000  Uiso   1.00
C2047  C     0.71045   0.92916   0.95339   0.00000  Uiso   1.00
C2048  C     0.69779   0.88989   0.96784   0.00000  Uiso   1.00
C2049  C     0.67859   0.86094   0.93437   0.00000  Uiso   1.00
C2050  C     0.87489   0.96216   0.75641   0.00000  Uiso   1.00
C2051  C     0.73480   0.83268   0.82153   0.00000  Uiso   1.00
C2052  C     0.92661   0.95115   0.76359   0.00000  Uiso   1.00
C2053  C     0.95164   0.94068   0.72529   0.00000  Uiso   1.00
C2054  C     0.92478   0.94070   0.67980   0.00000  Uiso   1.00
C2055  C     0.87272   0.94993   0.67282   0.00000  Uiso   1.00
C2056  C     0.84778   0.96087   0.71093   0.00000  Uiso   1.00
C2057  C     0.79178   0.70450   0.91026   0.00000  Uiso   1.00
C2058  C     0.81892   0.70583   0.95573   0.00000  Uiso   1.00
C2059  C     0.79400   0.71676   0.99385   0.00000  Uiso   1.00
C2060  C     0.74192   0.72597   0.98689   0.00000  Uiso   1.00
C2061  C     0.71504   0.72595   0.94141   0.00000  Uiso   1.00
C2062  C     0.93187   0.83398   0.84513   0.00000  Uiso   1.00
C2063  C     0.74005   0.71549   0.90310   0.00000  Uiso   1.00
C2064  C     0.68031   0.82620   0.81656   0.00000  Uiso   1.00
C2065  C     0.98636   0.84046   0.85011   0.00000  Uiso   1.00
C2066  C     0.84849   0.68935   0.79620   0.00000  Uiso   1.00
C2067  C     0.81818   0.97732   0.87047   0.00000  Uiso   1.00
C2068  C     0.85133   0.98027   0.79528   0.00000  Uiso   1.00
Cu2069 Cu    0.83333   0.83334   0.88022   0.00000  Uiso   1.00
Cu2070 Cu    0.83333   0.83333   0.78645   0.00000  Uiso   1.00
H2071  H     0.86157   0.70685   0.76780   0.00000  Uiso   1.00
H2072  H     0.95322   0.69695   0.77261   0.00000  Uiso   1.00
H2073  H     0.98208   0.74876   0.83188   0.00000  Uiso   1.00
H2074  H     0.68461   0.91790   0.83480   0.00000  Uiso   1.00
H2075  H     0.71348   0.96970   0.89409   0.00000  Uiso   1.00
H2076  H     0.72453   0.95178   0.97929   0.00000  Uiso   1.00
H2077  H     0.70249   0.88210   0.67163   0.00000  Uiso   1.00
H2078  H     0.66846   0.83073   0.94586   0.00000  Uiso   1.00
H2079  H     0.94787   0.95280   0.79847   0.00000  Uiso   1.00
H2080  H     0.99187   0.93310   0.73078   0.00000  Uiso   1.00
H2081  H     0.94391   0.93300   0.98330   0.00000  Uiso   1.00
H2082  H     0.80510   0.95982   0.89887   0.00000  Uiso   1.00
H2083  H     0.85186   0.94895   0.97114   0.00000  Uiso   1.00
H2084  H     0.80777   0.96916   0.70495   0.00000  Uiso   1.00
H2085  H     0.85894   0.69756   0.96169   0.00000  Uiso   1.00
H2086  H     0.81488   0.71777   0.69552   0.00000  Uiso   1.00
H2087  H     0.72281   0.73366   0.68340   0.00000  Uiso   1.00
H2088  H     0.67480   0.73351   0.93594   0.00000  Uiso   1.00
H2089  H     0.71878   0.71381   0.86823   0.00000  Uiso   1.00
H2090  H     0.76062   0.80505   0.70139   0.00000  Uiso   1.00
H2091  H     0.90605   0.86162   0.96527   0.00000  Uiso   1.00
H2092  H     0.76097   0.80487   0.94821   0.00000  Uiso   1.00
H2093  H     0.90569   0.86180   0.71846   0.00000  Uiso   1.00
H2094  H     0.99819   0.83592   0.72080   0.00000  Uiso   1.00
H2095  H     0.96418   0.78454   0.99505   0.00000  Uiso   1.00
H2096  H     0.94216   0.71486   0.68740   0.00000  Uiso   1.00
N2097  N     0.83335   0.83334   0.95069   0.00000  Uiso   1.00
N2098  N     0.83332   0.83332   0.71597   0.00000  Uiso   1.00
O2099  O     0.83333   0.77322   0.87291   0.00000  Uiso   1.00
O2100  O     0.83334   0.89345   0.79375   0.00000  Uiso   1.00
O2101  O     0.83333   0.77321   0.79372   0.00000  Uiso   1.00
O2102  O     0.83334   0.89346   0.87294   0.00000  Uiso   1.00
O2103  O     0.75828   0.83334   0.86379   0.00000  Uiso   1.00
O2104  O     0.90839   0.83333   0.80288   0.00000  Uiso   1.00
O2105  O     0.75828   0.83333   0.78460   0.00000  Uiso   1.00
O2106  O     0.90839   0.83334   0.88207   0.00000  Uiso   1.00
loop_
_geom_bond_atom_site_label_1
_geom_bond_atom_site_label_2
_geom_bond_distance
_geom_bond_site_symmetry_2
_ccdc_geom_bond_type
C1     O71     1.292   .     A
C1     C4      1.459   .     S
C1     O73     1.297   .     A
C2     C29     1.474   .     S
C2     C4      1.410   .     A
C2     C507    1.389   1_545 S
C3     C12     1.459   .     S
C3     C39     1.397   .     A
C3     C40     1.410   .     A
C4     C38     1.397   .     A
C5     N70     1.366   .     A
C5     H62     1.080   .     S
C5     C1411   1.417   1_554 S
C6     N69     1.366   .     A
C6     H63     1.080   .     S
C6     C710    1.417   .     S
C7     N69     1.365   .     A
C7     H64     1.079   .     S
C7     C707    1.417   .     S
C8     H65     1.079   .     S
C8     N70     1.365   .     A
C8     C1410   1.417   1_554 S
C9     C10     1.403   .     A
C9     C15     1.402   .     A
C9     C114    1.487   .     S
C10    H66     1.081   .     S
C10    C11     1.399   .     A
C11    C13     1.397   .     A
C11    H1471   1.081   1_554 S
C12    O74     1.297   .     A
C12    O72     1.292   .     A
C13    C14     1.396   .     A
C13    H68     1.082   .     S
C14    H44     1.077   .     S
C14    C15     1.395   .     A
C15    H45     1.081   .     S
C16    C21     1.403   .     A
C16    C17     1.402   .     A
C16    C193    1.487   1_455 S
C17    H46     1.081   .     S
C17    C18     1.395   .     A
C18    H47     1.077   .     S
C18    C19     1.396   .     A
C19    C20     1.397   .     A
C19    H48     1.082   .     S
C20    C21     1.399   .     A
C20    H751    1.081   .     S
C21    H50     1.081   .     S
C22    C28     1.401   .     A
C22    C40     1.474   .     S
C22    C24     1.402   .     A
C23    O77     1.293   .     A
C23    O75     1.284   .     A
C23    C36     1.442   .     S
C24    C25     1.398   .     A
C24    H51     1.081   .     S
C25    C26     1.398   .     A
C25    H52     1.082   .     S
C26    C27     1.397   .     A
C26    H1457   1.080   1_554 S
C27    C28     1.396   .     A
C27    H1459   1.078   1_554 S
C28    H56     1.083   .     S
C29    C30     1.401   .     A
C29    C35     1.402   .     A
C30    C31     1.396   .     A
C30    H57     1.083   .     S
C31    C32     1.397   .     A
C31    H760    1.078   .     S
C32    C33     1.398   .     A
C32    H761    1.080   .     S
C33    H60     1.082   .     S
C33    C35     1.398   .     A
C34    C37     1.442   .     S
C34    O78     1.293   .     A
C34    O76     1.284   .     A
C35    H61     1.081   .     S
C36    C165    1.487   1_455 S
C36    C193    1.360   1_455 S
C37    C94     1.487   .     S
C37    C114    1.360   .     S
C38    H43     1.081   .     S
C38    C508    1.389   1_545 S
C39    H54     1.081   .     S
C39    C236    1.389   .     S
C40    C272    1.389   .     S
Cu41   Cu42    2.683   .     S
Cu41   O74     1.974   .     S
Cu41   O71     1.979   .     S
Cu41   O78     1.976   .     S
Cu41   O75     1.976   .     S
Cu41   N69     2.016   .     S
Cu42   N70     2.016   .     S
Cu42   O72     1.979   .     S
Cu42   O73     1.974   .     S
Cu42   O76     1.976   .     S
Cu42   O77     1.976   .     S
H49    C1424   1.081   1_554 S
H53    C728    1.080   .     S
H55    C729    1.078   .     S
H58    C1435   1.078   1_554 S
H59    C1436   1.080   1_554 S
H67    C713    1.081   .     S
C79    O149    1.292   .     A
C79    C82     1.459   .     S
C79    O151    1.297   .     A
C80    C107    1.474   .     S
C80    C82     1.410   .     A
C80    C585    1.389   1_545 S
C81    C90     1.459   .     S
C81    C117    1.397   .     A
C81    C118    1.410   .     A
C82    C116    1.397   .     A
C83    N148    1.366   .     A
C83    H140    1.080   .     S
C83    C1489   1.417   1_554 S
C84    N147    1.366   .     A
C84    H141    1.080   .     S
C84    C788    1.417   .     S
C85    N147    1.365   .     A
C85    H142    1.079   .     S
C85    C785    1.417   .     S
C86    H143    1.079   .     S
C86    N148    1.365   .     A
C86    C1488   1.417   1_554 S
C87    C88     1.403   .     A
C87    C93     1.402   .     A
C87    C192    1.487   .     S
C88    H144    1.081   .     S
C88    C89     1.399   .     A
C89    C91     1.397   .     A
C89    H1549   1.081   1_554 S
C90    O152    1.297   .     A
C90    O150    1.292   .     A
C91    C92     1.396   .     A
C91    H146    1.082   .     S
C92    H122    1.077   .     S
C92    C93     1.395   .     A
C93    H123    1.081   .     S
C94    C99     1.403   .     A
C94    C95     1.402   .     A
C95    H124    1.081   .     S
C95    C96     1.395   .     A
C96    H125    1.077   .     S
C96    C97     1.396   .     A
C97    C98     1.397   .     A
C97    H126    1.082   .     S
C98    C99     1.399   .     A
C98    H829    1.081   .     S
C99    H128    1.081   .     S
C100   C106    1.401   .     A
C100   C118    1.474   .     S
C100   C102    1.402   .     A
C101   O155    1.293   .     A
C101   O153    1.284   .     A
C101   C114    1.442   .     S
C102   C103    1.398   .     A
C102   H129    1.081   .     S
C103   C104    1.398   .     A
C103   H130    1.082   .     S
C104   C105    1.397   .     A
C104   H1535   1.080   1_554 S
C105   C106    1.396   .     A
C105   H1537   1.078   1_554 S
C106   H134    1.083   .     S
C107   C108    1.401   .     A
C107   C113    1.402   .     A
C108   C109    1.396   .     A
C108   H135    1.083   .     S
C109   C110    1.397   .     A
C109   H838    1.078   .     S
C110   C111    1.398   .     A
C110   H839    1.080   .     S
C111   H138    1.082   .     S
C111   C113    1.398   .     A
C112   C115    1.442   .     S
C112   O156    1.293   .     A
C112   O154    1.284   .     A
C113   H139    1.081   .     S
C115   C172    1.487   .     S
C115   C192    1.360   .     S
C116   H121    1.081   .     S
C116   C586    1.389   1_545 S
C117   H132    1.081   .     S
C117   C314    1.389   .     S
C118   C350    1.389   .     S
Cu119  Cu120   2.683   .     S
Cu119  O152    1.974   .     S
Cu119  O149    1.979   .     S
Cu119  O156    1.976   .     S
Cu119  O153    1.976   .     S
Cu119  N147    2.016   .     S
Cu120  N148    2.016   .     S
Cu120  O150    1.979   .     S
Cu120  O151    1.974   .     S
Cu120  O154    1.976   .     S
Cu120  O155    1.976   .     S
H127   C1502   1.081   1_554 S
H131   C806    1.080   .     S
H133   C807    1.078   .     S
H136   C1513   1.078   1_554 S
H137   C1514   1.080   1_554 S
H145   C791    1.081   .     S
C157   O227    1.292   .     A
C157   C160    1.459   .     S
C157   O229    1.297   .     A
C158   C185    1.474   .     S
C158   C160    1.410   .     A
C158   C663    1.389   1_545 S
C159   C168    1.459   .     S
C159   C195    1.397   .     A
C159   C196    1.410   .     A
C160   C194    1.397   .     A
C161   N226    1.366   .     A
C161   H218    1.080   .     S
C161   C1567   1.417   1_554 S
C162   N225    1.366   .     A
C162   H219    1.080   .     S
C162   C866    1.417   .     S
C163   N225    1.365   .     A
C163   H220    1.079   .     S
C163   C863    1.417   .     S
C164   H221    1.079   .     S
C164   N226    1.365   .     A
C164   C1566   1.417   1_554 S
C165   C166    1.403   .     A
C165   C171    1.402   .     A
C165   C36     1.487   1_655 S
C166   H222    1.081   .     S
C166   C167    1.399   .     A
C167   C169    1.397   .     A
C167   H1627   1.081   1_554 S
C168   O230    1.297   .     A
C168   O228    1.292   .     A
C169   C170    1.396   .     A
C169   H224    1.082   .     S
C170   H200    1.077   .     S
C170   C171    1.395   .     A
C171   H201    1.081   .     S
C172   C177    1.403   .     A
C172   C173    1.402   .     A
C173   H202    1.081   .     S
C173   C174    1.395   .     A
C174   H203    1.077   .     S
C174   C175    1.396   .     A
C175   C176    1.397   .     A
C175   H204    1.082   .     S
C176   C177    1.399   .     A
C176   H907    1.081   .     S
C177   H206    1.081   .     S
C178   C184    1.401   .     A
C178   C196    1.474   .     S
C178   C180    1.402   .     A
C179   O233    1.293   .     A
C179   O231    1.284   .     A
C179   C192    1.442   .     S
C180   C181    1.398   .     A
C180   H207    1.081   .     S
C181   C182    1.398   .     A
C181   H208    1.082   .     S
C182   C183    1.397   .     A
C182   H1613   1.080   1_554 S
C183   C184    1.396   .     A
C183   H1615   1.078   1_554 S
C184   H212    1.083   .     S
C185   C186    1.401   .     A
C185   C191    1.402   .     A
C186   C187    1.396   .     A
C186   H213    1.083   .     S
C187   C188    1.397   .     A
C187   H916    1.078   .     S
C188   C189    1.398   .     A
C188   H917    1.080   .     S
C189   H216    1.082   .     S
C189   C191    1.398   .     A
C190   C193    1.442   .     S
C190   O234    1.293   .     A
C190   O232    1.284   .     A
C191   H217    1.081   .     S
C193   C16     1.487   1_655 S
C193   C36     1.360   1_655 S
C194   H199    1.081   .     S
C194   C664    1.389   1_545 S
C195   H210    1.081   .     S
C195   C392    1.389   .     S
C196   C428    1.389   .     S
Cu197  Cu198   2.683   .     S
Cu197  O230    1.974   .     S
Cu197  O227    1.979   .     S
Cu197  O234    1.976   .     S
Cu197  O231    1.976   .     S
Cu197  N225    2.016   .     S
Cu198  N226    2.016   .     S
Cu198  O228    1.979   .     S
Cu198  O229    1.974   .     S
Cu198  O232    1.976   .     S
Cu198  O233    1.976   .     S
H205   C1580   1.081   1_554 S
H209   C884    1.080   .     S
H211   C885    1.078   .     S
H214   C1591   1.078   1_554 S
H215   C1592   1.080   1_554 S
H223   C869    1.081   .     S
C235   O305    1.292   .     A
C235   C238    1.459   .     S
C235   O307    1.297   .     A
C236   C263    1.474   .     S
C236   C238    1.410   .     A
C237   C246    1.459   .     S
C237   C273    1.397   .     A
C237   C274    1.410   .     A
C238   C272    1.397   .     A
C239   N304    1.366   .     A
C239   H296    1.080   .     S
C239   C1645   1.417   1_554 S
C240   N303    1.366   .     A
C240   H297    1.080   .     S
C240   C944    1.417   .     S
C241   N303    1.365   .     A
C241   H298    1.079   .     S
C241   C941    1.417   .     S
C242   H299    1.079   .     S
C242   N304    1.365   .     A
C242   C1644   1.417   1_554 S
C243   C244    1.403   .     A
C243   C249    1.402   .     A
C243   C348    1.487   .     S
C244   H300    1.081   .     S
C244   C245    1.399   .     A
C245   C247    1.397   .     A
C245   H1705   1.081   1_554 S
C246   O308    1.297   .     A
C246   O306    1.292   .     A
C247   C248    1.396   .     A
C247   H302    1.082   .     S
C248   H278    1.077   .     S
C248   C249    1.395   .     A
C249   H279    1.081   .     S
C250   C255    1.403   .     A
C250   C251    1.402   .     A
C250   C427    1.487   1_455 S
C251   H280    1.081   .     S
C251   C252    1.395   .     A
C252   H281    1.077   .     S
C252   C253    1.396   .     A
C253   C254    1.397   .     A
C253   H282    1.082   .     S
C254   C255    1.399   .     A
C254   H985    1.081   .     S
C255   H284    1.081   .     S
C256   C262    1.401   .     A
C256   C274    1.474   .     S
C256   C258    1.402   .     A
C257   O311    1.293   .     A
C257   O309    1.284   .     A
C257   C270    1.442   .     S
C258   C259    1.398   .     A
C258   H285    1.081   .     S
C259   C260    1.398   .     A
C259   H286    1.082   .     S
C260   C261    1.397   .     A
C260   H1691   1.080   1_554 S
C261   C262    1.396   .     A
C261   H1693   1.078   1_554 S
C262   H290    1.083   .     S
C263   C264    1.401   .     A
C263   C269    1.402   .     A
C264   C265    1.396   .     A
C264   H291    1.083   .     S
C265   C266    1.397   .     A
C265   H994    1.078   .     S
C266   C267    1.398   .     A
C266   H995    1.080   .     S
C267   H294    1.082   .     S
C267   C269    1.398   .     A
C268   C271    1.442   .     S
C268   O312    1.293   .     A
C268   O310    1.284   .     A
C269   H295    1.081   .     S
C270   C399    1.487   1_455 S
C270   C427    1.360   1_455 S
C271   C328    1.487   .     S
C271   C348    1.360   .     S
C272   H277    1.081   .     S
C273   H288    1.081   .     S
C273   C470    1.389   .     S
C274   C506    1.389   .     S
Cu275  Cu276   2.683   .     S
Cu275  O308    1.974   .     S
Cu275  O305    1.979   .     S
Cu275  O312    1.976   .     S
Cu275  O309    1.976   .     S
Cu275  N303    2.016   .     S
Cu276  N304    2.016   .     S
Cu276  O306    1.979   .     S
Cu276  O307    1.974   .     S
Cu276  O310    1.976   .     S
Cu276  O311    1.976   .     S
H283   C1658   1.081   1_554 S
H287   C962    1.080   .     S
H289   C963    1.078   .     S
H292   C1669   1.078   1_554 S
H293   C1670   1.080   1_554 S
H301   C947    1.081   .     S
C313   O383    1.292   .     A
C313   C316    1.459   .     S
C313   O385    1.297   .     A
C314   C341    1.474   .     S
C314   C316    1.410   .     A
C315   C324    1.459   .     S
C315   C351    1.397   .     A
C315   C352    1.410   .     A
C316   C350    1.397   .     A
C317   N382    1.366   .     A
C317   H374    1.080   .     S
C317   C1723   1.417   1_554 S
C318   N381    1.366   .     A
C318   H375    1.080   .     S
C318   C1022   1.417   .     S
C319   N381    1.365   .     A
C319   H376    1.079   .     S
C319   C1019   1.417   .     S
C320   H377    1.079   .     S
C320   N382    1.365   .     A
C320   C1722   1.417   1_554 S
C321   C322    1.403   .     A
C321   C327    1.402   .     A
C321   C426    1.487   .     S
C322   H378    1.081   .     S
C322   C323    1.399   .     A
C323   C325    1.397   .     A
C323   H1783   1.081   1_554 S
C324   O386    1.297   .     A
C324   O384    1.292   .     A
C325   C326    1.396   .     A
C325   H380    1.082   .     S
C326   H356    1.077   .     S
C326   C327    1.395   .     A
C327   H357    1.081   .     S
C328   C333    1.403   .     A
C328   C329    1.402   .     A
C329   H358    1.081   .     S
C329   C330    1.395   .     A
C330   H359    1.077   .     S
C330   C331    1.396   .     A
C331   C332    1.397   .     A
C331   H360    1.082   .     S
C332   C333    1.399   .     A
C332   H1063   1.081   .     S
C333   H362    1.081   .     S
C334   C340    1.401   .     A
C334   C352    1.474   .     S
C334   C336    1.402   .     A
C335   O389    1.293   .     A
C335   O387    1.284   .     A
C335   C348    1.442   .     S
C336   C337    1.398   .     A
C336   H363    1.081   .     S
C337   C338    1.398   .     A
C337   H364    1.082   .     S
C338   C339    1.397   .     A
C338   H1769   1.080   1_554 S
C339   C340    1.396   .     A
C339   H1771   1.078   1_554 S
C340   H368    1.083   .     S
C341   C342    1.401   .     A
C341   C347    1.402   .     A
C342   C343    1.396   .     A
C342   H369    1.083   .     S
C343   C344    1.397   .     A
C343   H1072   1.078   .     S
C344   C345    1.398   .     A
C344   H1073   1.080   .     S
C345   H372    1.082   .     S
C345   C347    1.398   .     A
C346   C349    1.442   .     S
C346   O390    1.293   .     A
C346   O388    1.284   .     A
C347   H373    1.081   .     S
C349   C406    1.487   .     S
C349   C426    1.360   .     S
C350   H355    1.081   .     S
C351   H366    1.081   .     S
C351   C548    1.389   .     S
C352   C584    1.389   .     S
Cu353  Cu354   2.683   .     S
Cu353  O386    1.974   .     S
Cu353  O383    1.979   .     S
Cu353  O390    1.976   .     S
Cu353  O387    1.976   .     S
Cu353  N381    2.016   .     S
Cu354  N382    2.016   .     S
Cu354  O384    1.979   .     S
Cu354  O385    1.974   .     S
Cu354  O388    1.976   .     S
Cu354  O389    1.976   .     S
H361   C1736   1.081   1_554 S
H365   C1040   1.080   .     S
H367   C1041   1.078   .     S
H370   C1747   1.078   1_554 S
H371   C1748   1.080   1_554 S
H379   C1025   1.081   .     S
C391   O461    1.292   .     A
C391   C394    1.459   .     S
C391   O463    1.297   .     A
C392   C419    1.474   .     S
C392   C394    1.410   .     A
C393   C402    1.459   .     S
C393   C429    1.397   .     A
C393   C430    1.410   .     A
C394   C428    1.397   .     A
C395   N460    1.366   .     A
C395   H452    1.080   .     S
C395   C1801   1.417   1_554 S
C396   N459    1.366   .     A
C396   H453    1.080   .     S
C396   C1100   1.417   .     S
C397   N459    1.365   .     A
C397   H454    1.079   .     S
C397   C1097   1.417   .     S
C398   H455    1.079   .     S
C398   N460    1.365   .     A
C398   C1800   1.417   1_554 S
C399   C400    1.403   .     A
C399   C405    1.402   .     A
C399   C270    1.487   1_655 S
C400   H456    1.081   .     S
C400   C401    1.399   .     A
C401   C403    1.397   .     A
C401   H1861   1.081   1_554 S
C402   O464    1.297   .     A
C402   O462    1.292   .     A
C403   C404    1.396   .     A
C403   H458    1.082   .     S
C404   H434    1.077   .     S
C404   C405    1.395   .     A
C405   H435    1.081   .     S
C406   C411    1.403   .     A
C406   C407    1.402   .     A
C407   H436    1.081   .     S
C407   C408    1.395   .     A
C408   H437    1.077   .     S
C408   C409    1.396   .     A
C409   C410    1.397   .     A
C409   H438    1.082   .     S
C410   C411    1.399   .     A
C410   H1141   1.081   .     S
C411   H440    1.081   .     S
C412   C418    1.401   .     A
C412   C430    1.474   .     S
C412   C414    1.402   .     A
C413   O467    1.293   .     A
C413   O465    1.284   .     A
C413   C426    1.442   .     S
C414   C415    1.398   .     A
C414   H441    1.081   .     S
C415   C416    1.398   .     A
C415   H442    1.082   .     S
C416   C417    1.397   .     A
C416   H1847   1.080   1_554 S
C417   C418    1.396   .     A
C417   H1849   1.078   1_554 S
C418   H446    1.083   .     S
C419   C420    1.401   .     A
C419   C425    1.402   .     A
C420   C421    1.396   .     A
C420   H447    1.083   .     S
C421   C422    1.397   .     A
C421   H1150   1.078   .     S
C422   C423    1.398   .     A
C422   H1151   1.080   .     S
C423   H450    1.082   .     S
C423   C425    1.398   .     A
C424   C427    1.442   .     S
C424   O468    1.293   .     A
C424   O466    1.284   .     A
C425   H451    1.081   .     S
C427   C250    1.487   1_655 S
C427   C270    1.360   1_655 S
C428   H433    1.081   .     S
C429   H444    1.081   .     S
C429   C626    1.389   .     S
C430   C662    1.389   .     S
Cu431  Cu432   2.683   .     S
Cu431  O464    1.974   .     S
Cu431  O461    1.979   .     S
Cu431  O468    1.976   .     S
Cu431  O465    1.976   .     S
Cu431  N459    2.016   .     S
Cu432  N460    2.016   .     S
Cu432  O462    1.979   .     S
Cu432  O463    1.974   .     S
Cu432  O466    1.976   .     S
Cu432  O467    1.976   .     S
H439   C1814   1.081   1_554 S
H443   C1118   1.080   .     S
H445   C1119   1.078   .     S
H448   C1825   1.078   1_554 S
H449   C1826   1.080   1_554 S
H457   C1103   1.081   .     S
C469   O539    1.292   .     A
C469   C472    1.459   .     S
C469   O541    1.297   .     A
C470   C497    1.474   .     S
C470   C472    1.410   .     A
C471   C480    1.459   .     S
C471   C507    1.397   .     A
C471   C508    1.410   .     A
C472   C506    1.397   .     A
C473   N538    1.366   .     A
C473   H530    1.080   .     S
C473   C1879   1.417   1_554 S
C474   N537    1.366   .     A
C474   H531    1.080   .     S
C474   C1178   1.417   .     S
C475   N537    1.365   .     A
C475   H532    1.079   .     S
C475   C1175   1.417   .     S
C476   H533    1.079   .     S
C476   N538    1.365   .     A
C476   C1878   1.417   1_554 S
C477   C478    1.403   .     A
C477   C483    1.402   .     A
C477   C582    1.487   .     S
C478   H534    1.081   .     S
C478   C479    1.399   .     A
C479   C481    1.397   .     A
C479   H1939   1.081   1_554 S
C480   O542    1.297   .     A
C480   O540    1.292   .     A
C481   C482    1.396   .     A
C481   H536    1.082   .     S
C482   H512    1.077   .     S
C482   C483    1.395   .     A
C483   H513    1.081   .     S
C484   C489    1.403   .     A
C484   C485    1.402   .     A
C484   C661    1.487   1_455 S
C485   H514    1.081   .     S
C485   C486    1.395   .     A
C486   H515    1.077   .     S
C486   C487    1.396   .     A
C487   C488    1.397   .     A
C487   H516    1.082   .     S
C488   C489    1.399   .     A
C488   H1219   1.081   .     S
C489   H518    1.081   .     S
C490   C496    1.401   .     A
C490   C508    1.474   .     S
C490   C492    1.402   .     A
C491   O545    1.293   .     A
C491   O543    1.284   .     A
C491   C504    1.442   .     S
C492   C493    1.398   .     A
C492   H519    1.081   .     S
C493   C494    1.398   .     A
C493   H520    1.082   .     S
C494   C495    1.397   .     A
C494   H1925   1.080   1_554 S
C495   C496    1.396   .     A
C495   H1927   1.078   1_554 S
C496   H524    1.083   .     S
C497   C498    1.401   .     A
C497   C503    1.402   .     A
C498   C499    1.396   .     A
C498   H525    1.083   .     S
C499   C500    1.397   .     A
C499   H1228   1.078   .     S
C500   C501    1.398   .     A
C500   H1229   1.080   .     S
C501   H528    1.082   .     S
C501   C503    1.398   .     A
C502   C505    1.442   .     S
C502   O546    1.293   .     A
C502   O544    1.284   .     A
C503   H529    1.081   .     S
C504   C633    1.487   1_455 S
C504   C661    1.360   1_455 S
C505   C562    1.487   .     S
C505   C582    1.360   .     S
C506   H511    1.081   .     S
C507   H522    1.081   .     S
C507   C2      1.389   1_565 S
C508   C38     1.389   1_565 S
Cu509  Cu510   2.683   .     S
Cu509  O542    1.974   .     S
Cu509  O539    1.979   .     S
Cu509  O546    1.976   .     S
Cu509  O543    1.976   .     S
Cu509  N537    2.016   .     S
Cu510  N538    2.016   .     S
Cu510  O540    1.979   .     S
Cu510  O541    1.974   .     S
Cu510  O544    1.976   .     S
Cu510  O545    1.976   .     S
H517   C1892   1.081   1_554 S
H521   C1196   1.080   .     S
H523   C1197   1.078   .     S
H526   C1903   1.078   1_554 S
H527   C1904   1.080   1_554 S
H535   C1181   1.081   .     S
C547   O617    1.292   .     A
C547   C550    1.459   .     S
C547   O619    1.297   .     A
C548   C575    1.474   .     S
C548   C550    1.410   .     A
C549   C558    1.459   .     S
C549   C585    1.397   .     A
C549   C586    1.410   .     A
C550   C584    1.397   .     A
C551   N616    1.366   .     A
C551   H608    1.080   .     S
C551   C1957   1.417   1_554 S
C552   N615    1.366   .     A
C552   H609    1.080   .     S
C552   C1256   1.417   .     S
C553   N615    1.365   .     A
C553   H610    1.079   .     S
C553   C1253   1.417   .     S
C554   H611    1.079   .     S
C554   N616    1.365   .     A
C554   C1956   1.417   1_554 S
C555   C556    1.403   .     A
C555   C561    1.402   .     A
C555   C660    1.487   .     S
C556   H612    1.081   .     S
C556   C557    1.399   .     A
C557   C559    1.397   .     A
C557   H2017   1.081   1_554 S
C558   O620    1.297   .     A
C558   O618    1.292   .     A
C559   C560    1.396   .     A
C559   H614    1.082   .     S
C560   H590    1.077   .     S
C560   C561    1.395   .     A
C561   H591    1.081   .     S
C562   C567    1.403   .     A
C562   C563    1.402   .     A
C563   H592    1.081   .     S
C563   C564    1.395   .     A
C564   H593    1.077   .     S
C564   C565    1.396   .     A
C565   C566    1.397   .     A
C565   H594    1.082   .     S
C566   C567    1.399   .     A
C566   H1297   1.081   .     S
C567   H596    1.081   .     S
C568   C574    1.401   .     A
C568   C586    1.474   .     S
C568   C570    1.402   .     A
C569   O623    1.293   .     A
C569   O621    1.284   .     A
C569   C582    1.442   .     S
C570   C571    1.398   .     A
C570   H597    1.081   .     S
C571   C572    1.398   .     A
C571   H598    1.082   .     S
C572   C573    1.397   .     A
C572   H2003   1.080   1_554 S
C573   C574    1.396   .     A
C573   H2005   1.078   1_554 S
C574   H602    1.083   .     S
C575   C576    1.401   .     A
C575   C581    1.402   .     A
C576   C577    1.396   .     A
C576   H603    1.083   .     S
C577   C578    1.397   .     A
C577   H1306   1.078   .     S
C578   C579    1.398   .     A
C578   H1307   1.080   .     S
C579   H606    1.082   .     S
C579   C581    1.398   .     A
C580   C583    1.442   .     S
C580   O624    1.293   .     A
C580   O622    1.284   .     A
C581   H607    1.081   .     S
C583   C640    1.487   .     S
C583   C660    1.360   .     S
C584   H589    1.081   .     S
C585   H600    1.081   .     S
C585   C80     1.389   1_565 S
C586   C116    1.389   1_565 S
Cu587  Cu588   2.683   .     S
Cu587  O620    1.974   .     S
Cu587  O617    1.979   .     S
Cu587  O624    1.976   .     S
Cu587  O621    1.976   .     S
Cu587  N615    2.016   .     S
Cu588  N616    2.016   .     S
Cu588  O618    1.979   .     S
Cu588  O619    1.974   .     S
Cu588  O622    1.976   .     S
Cu588  O623    1.976   .     S
H595   C1970   1.081   1_554 S
H599   C1274   1.080   .     S
H601   C1275   1.078   .     S
H604   C1981   1.078   1_554 S
H605   C1982   1.080   1_554 S
H613   C1259   1.081   .     S
C625   O695    1.292   .     A
C625   C628    1.459   .     S
C625   O697    1.297   .     A
C626   C653    1.474   .     S
C626   C628    1.410   .     A
C627   C636    1.459   .     S
C627   C663    1.397   .     A
C627   C664    1.410   .     A
C628   C662    1.397   .     A
C629   N694    1.366   .     A
C629   H686    1.080   .     S
C629   C2035   1.417   1_554 S
C630   N693    1.366   .     A
C630   H687    1.080   .     S
C630   C1334   1.417   .     S
C631   N693    1.365   .     A
C631   H688    1.079   .     S
C631   C1331   1.417   .     S
C632   H689    1.079   .     S
C632   N694    1.365   .     A
C632   C2034   1.417   1_554 S
C633   C634    1.403   .     A
C633   C639    1.402   .     A
C633   C504    1.487   1_655 S
C634   H690    1.081   .     S
C634   C635    1.399   .     A
C635   C637    1.397   .     A
C635   H2095   1.081   1_554 S
C636   O698    1.297   .     A
C636   O696    1.292   .     A
C637   C638    1.396   .     A
C637   H692    1.082   .     S
C638   H668    1.077   .     S
C638   C639    1.395   .     A
C639   H669    1.081   .     S
C640   C645    1.403   .     A
C640   C641    1.402   .     A
C641   H670    1.081   .     S
C641   C642    1.395   .     A
C642   H671    1.077   .     S
C642   C643    1.396   .     A
C643   C644    1.397   .     A
C643   H672    1.082   .     S
C644   C645    1.399   .     A
C644   H1375   1.081   .     S
C645   H674    1.081   .     S
C646   C652    1.401   .     A
C646   C664    1.474   .     S
C646   C648    1.402   .     A
C647   O701    1.293   .     A
C647   O699    1.284   .     A
C647   C660    1.442   .     S
C648   C649    1.398   .     A
C648   H675    1.081   .     S
C649   C650    1.398   .     A
C649   H676    1.082   .     S
C650   C651    1.397   .     A
C650   H2081   1.080   1_554 S
C651   C652    1.396   .     A
C651   H2083   1.078   1_554 S
C652   H680    1.083   .     S
C653   C654    1.401   .     A
C653   C659    1.402   .     A
C654   C655    1.396   .     A
C654   H681    1.083   .     S
C655   C656    1.397   .     A
C655   H1384   1.078   .     S
C656   C657    1.398   .     A
C656   H1385   1.080   .     S
C657   H684    1.082   .     S
C657   C659    1.398   .     A
C658   C661    1.442   .     S
C658   O702    1.293   .     A
C658   O700    1.284   .     A
C659   H685    1.081   .     S
C661   C484    1.487   1_655 S
C661   C504    1.360   1_655 S
C662   H667    1.081   .     S
C663   H678    1.081   .     S
C663   C158    1.389   1_565 S
C664   C194    1.389   1_565 S
Cu665  Cu666   2.683   .     S
Cu665  O698    1.974   .     S
Cu665  O695    1.979   .     S
Cu665  O702    1.976   .     S
Cu665  O699    1.976   .     S
Cu665  N693    2.016   .     S
Cu666  N694    2.016   .     S
Cu666  O696    1.979   .     S
Cu666  O697    1.974   .     S
Cu666  O700    1.976   .     S
Cu666  O701    1.976   .     S
H673   C2048   1.081   1_554 S
H677   C1352   1.080   .     S
H679   C1353   1.078   .     S
H682   C2059   1.078   1_554 S
H683   C2060   1.080   1_554 S
H691   C1337   1.081   .     S
C703   O773    1.292   .     A
C703   C706    1.459   .     S
C703   O775    1.297   .     A
C704   C731    1.474   .     S
C704   C706    1.410   .     A
C704   C1209   1.389   1_545 S
C705   C714    1.459   .     S
C705   C741    1.397   .     A
C705   C742    1.410   .     A
C706   C740    1.397   .     A
C707   N772    1.366   .     A
C707   H764    1.080   .     S
C708   N771    1.366   .     A
C708   H765    1.080   .     S
C708   C1412   1.417   .     S
C709   N771    1.365   .     A
C709   H766    1.079   .     S
C709   C1409   1.417   .     S
C710   H767    1.079   .     S
C710   N772    1.365   .     A
C711   C712    1.403   .     A
C711   C717    1.402   .     A
C711   C816    1.487   .     S
C712   H768    1.081   .     S
C712   C713    1.399   .     A
C713   C715    1.397   .     A
C714   O776    1.297   .     A
C714   O774    1.292   .     A
C715   C716    1.396   .     A
C715   H770    1.082   .     S
C716   H746    1.077   .     S
C716   C717    1.395   .     A
C717   H747    1.081   .     S
C718   C723    1.403   .     A
C718   C719    1.402   .     A
C718   C895    1.487   1_455 S
C719   H748    1.081   .     S
C719   C720    1.395   .     A
C720   H749    1.077   .     S
C720   C721    1.396   .     A
C721   C722    1.397   .     A
C721   H750    1.082   .     S
C722   C723    1.399   .     A
C722   H1453   1.081   .     S
C723   H752    1.081   .     S
C724   C730    1.401   .     A
C724   C742    1.474   .     S
C724   C726    1.402   .     A
C725   O779    1.293   .     A
C725   O777    1.284   .     A
C725   C738    1.442   .     S
C726   C727    1.398   .     A
C726   H753    1.081   .     S
C727   C728    1.398   .     A
C727   H754    1.082   .     S
C728   C729    1.397   .     A
C729   C730    1.396   .     A
C730   H758    1.083   .     S
C731   C732    1.401   .     A
C731   C737    1.402   .     A
C732   C733    1.396   .     A
C732   H759    1.083   .     S
C733   C734    1.397   .     A
C733   H1462   1.078   .     S
C734   C735    1.398   .     A
C734   H1463   1.080   .     S
C735   H762    1.082   .     S
C735   C737    1.398   .     A
C736   C739    1.442   .     S
C736   O780    1.293   .     A
C736   O778    1.284   .     A
C737   H763    1.081   .     S
C738   C867    1.487   1_455 S
C738   C895    1.360   1_455 S
C739   C796    1.487   .     S
C739   C816    1.360   .     S
C740   H745    1.081   .     S
C740   C1210   1.389   1_545 S
C741   H756    1.081   .     S
C741   C938    1.389   .     S
C742   C974    1.389   .     S
Cu743  Cu744   2.683   .     S
Cu743  O776    1.974   .     S
Cu743  O773    1.979   .     S
Cu743  O780    1.976   .     S
Cu743  O777    1.976   .     S
Cu743  N771    2.016   .     S
Cu744  N772    2.016   .     S
Cu744  O774    1.979   .     S
Cu744  O775    1.974   .     S
Cu744  O778    1.976   .     S
Cu744  O779    1.976   .     S
H755   C1430   1.080   .     S
H757   C1431   1.078   .     S
H769   C1415   1.081   .     S
C781   O851    1.292   .     A
C781   C784    1.459   .     S
C781   O853    1.297   .     A
C782   C809    1.474   .     S
C782   C784    1.410   .     A
C782   C1287   1.389   1_545 S
C783   C792    1.459   .     S
C783   C819    1.397   .     A
C783   C820    1.410   .     A
C784   C818    1.397   .     A
C785   N850    1.366   .     A
C785   H842    1.080   .     S
C786   N849    1.366   .     A
C786   H843    1.080   .     S
C786   C1490   1.417   .     S
C787   N849    1.365   .     A
C787   H844    1.079   .     S
C787   C1487   1.417   .     S
C788   H845    1.079   .     S
C788   N850    1.365   .     A
C789   C790    1.403   .     A
C789   C795    1.402   .     A
C789   C894    1.487   .     S
C790   H846    1.081   .     S
C790   C791    1.399   .     A
C791   C793    1.397   .     A
C792   O854    1.297   .     A
C792   O852    1.292   .     A
C793   C794    1.396   .     A
C793   H848    1.082   .     S
C794   H824    1.077   .     S
C794   C795    1.395   .     A
C795   H825    1.081   .     S
C796   C801    1.403   .     A
C796   C797    1.402   .     A
C797   H826    1.081   .     S
C797   C798    1.395   .     A
C798   H827    1.077   .     S
C798   C799    1.396   .     A
C799   C800    1.397   .     A
C799   H828    1.082   .     S
C800   C801    1.399   .     A
C800   H1531   1.081   .     S
C801   H830    1.081   .     S
C802   C808    1.401   .     A
C802   C820    1.474   .     S
C802   C804    1.402   .     A
C803   O857    1.293   .     A
C803   O855    1.284   .     A
C803   C816    1.442   .     S
C804   C805    1.398   .     A
C804   H831    1.081   .     S
C805   C806    1.398   .     A
C805   H832    1.082   .     S
C806   C807    1.397   .     A
C807   C808    1.396   .     A
C808   H836    1.083   .     S
C809   C810    1.401   .     A
C809   C815    1.402   .     A
C810   C811    1.396   .     A
C810   H837    1.083   .     S
C811   C812    1.397   .     A
C811   H1540   1.078   .     S
C812   C813    1.398   .     A
C812   H1541   1.080   .     S
C813   H840    1.082   .     S
C813   C815    1.398   .     A
C814   C817    1.442   .     S
C814   O858    1.293   .     A
C814   O856    1.284   .     A
C815   H841    1.081   .     S
C817   C874    1.487   .     S
C817   C894    1.360   .     S
C818   H823    1.081   .     S
C818   C1288   1.389   1_545 S
C819   H834    1.081   .     S
C819   C1016   1.389   .     S
C820   C1052   1.389   .     S
Cu821  Cu822   2.683   .     S
Cu821  O854    1.974   .     S
Cu821  O851    1.979   .     S
Cu821  O858    1.976   .     S
Cu821  O855    1.976   .     S
Cu821  N849    2.016   .     S
Cu822  N850    2.016   .     S
Cu822  O852    1.979   .     S
Cu822  O853    1.974   .     S
Cu822  O856    1.976   .     S
Cu822  O857    1.976   .     S
H833   C1508   1.080   .     S
H835   C1509   1.078   .     S
H847   C1493   1.081   .     S
C859   O929    1.292   .     A
C859   C862    1.459   .     S
C859   O931    1.297   .     A
C860   C887    1.474   .     S
C860   C862    1.410   .     A
C860   C1365   1.389   1_545 S
C861   C870    1.459   .     S
C861   C897    1.397   .     A
C861   C898    1.410   .     A
C862   C896    1.397   .     A
C863   N928    1.366   .     A
C863   H920    1.080   .     S
C864   N927    1.366   .     A
C864   H921    1.080   .     S
C864   C1568   1.417   .     S
C865   N927    1.365   .     A
C865   H922    1.079   .     S
C865   C1565   1.417   .     S
C866   H923    1.079   .     S
C866   N928    1.365   .     A
C867   C868    1.403   .     A
C867   C873    1.402   .     A
C867   C738    1.487   1_655 S
C868   H924    1.081   .     S
C868   C869    1.399   .     A
C869   C871    1.397   .     A
C870   O932    1.297   .     A
C870   O930    1.292   .     A
C871   C872    1.396   .     A
C871   H926    1.082   .     S
C872   H902    1.077   .     S
C872   C873    1.395   .     A
C873   H903    1.081   .     S
C874   C879    1.403   .     A
C874   C875    1.402   .     A
C875   H904    1.081   .     S
C875   C876    1.395   .     A
C876   H905    1.077   .     S
C876   C877    1.396   .     A
C877   C878    1.397   .     A
C877   H906    1.082   .     S
C878   C879    1.399   .     A
C878   H1609   1.081   .     S
C879   H908    1.081   .     S
C880   C886    1.401   .     A
C880   C898    1.474   .     S
C880   C882    1.402   .     A
C881   O935    1.293   .     A
C881   O933    1.284   .     A
C881   C894    1.442   .     S
C882   C883    1.398   .     A
C882   H909    1.081   .     S
C883   C884    1.398   .     A
C883   H910    1.082   .     S
C884   C885    1.397   .     A
C885   C886    1.396   .     A
C886   H914    1.083   .     S
C887   C888    1.401   .     A
C887   C893    1.402   .     A
C888   C889    1.396   .     A
C888   H915    1.083   .     S
C889   C890    1.397   .     A
C889   H1618   1.078   .     S
C890   C891    1.398   .     A
C890   H1619   1.080   .     S
C891   H918    1.082   .     S
C891   C893    1.398   .     A
C892   C895    1.442   .     S
C892   O936    1.293   .     A
C892   O934    1.284   .     A
C893   H919    1.081   .     S
C895   C718    1.487   1_655 S
C895   C738    1.360   1_655 S
C896   H901    1.081   .     S
C896   C1366   1.389   1_545 S
C897   H912    1.081   .     S
C897   C1094   1.389   .     S
C898   C1130   1.389   .     S
Cu899  Cu900   2.683   .     S
Cu899  O932    1.974   .     S
Cu899  O929    1.979   .     S
Cu899  O936    1.976   .     S
Cu899  O933    1.976   .     S
Cu899  N927    2.016   .     S
Cu900  N928    2.016   .     S
Cu900  O930    1.979   .     S
Cu900  O931    1.974   .     S
Cu900  O934    1.976   .     S
Cu900  O935    1.976   .     S
H911   C1586   1.080   .     S
H913   C1587   1.078   .     S
H925   C1571   1.081   .     S
C937   O1007   1.292   .     A
C937   C940    1.459   .     S
C937   O1009   1.297   .     A
C938   C965    1.474   .     S
C938   C940    1.410   .     A
C939   C948    1.459   .     S
C939   C975    1.397   .     A
C939   C976    1.410   .     A
C940   C974    1.397   .     A
C941   N1006   1.366   .     A
C941   H998    1.080   .     S
C942   N1005   1.366   .     A
C942   H999    1.080   .     S
C942   C1646   1.417   .     S
C943   N1005   1.365   .     A
C943   H1000   1.079   .     S
C943   C1643   1.417   .     S
C944   H1001   1.079   .     S
C944   N1006   1.365   .     A
C945   C946    1.403   .     A
C945   C951    1.402   .     A
C945   C1050   1.487   .     S
C946   H1002   1.081   .     S
C946   C947    1.399   .     A
C947   C949    1.397   .     A
C948   O1010   1.297   .     A
C948   O1008   1.292   .     A
C949   C950    1.396   .     A
C949   H1004   1.082   .     S
C950   H980    1.077   .     S
C950   C951    1.395   .     A
C951   H981    1.081   .     S
C952   C957    1.403   .     A
C952   C953    1.402   .     A
C952   C1129   1.487   1_455 S
C953   H982    1.081   .     S
C953   C954    1.395   .     A
C954   H983    1.077   .     S
C954   C955    1.396   .     A
C955   C956    1.397   .     A
C955   H984    1.082   .     S
C956   C957    1.399   .     A
C956   H1687   1.081   .     S
C957   H986    1.081   .     S
C958   C964    1.401   .     A
C958   C976    1.474   .     S
C958   C960    1.402   .     A
C959   O1013   1.293   .     A
C959   O1011   1.284   .     A
C959   C972    1.442   .     S
C960   C961    1.398   .     A
C960   H987    1.081   .     S
C961   C962    1.398   .     A
C961   H988    1.082   .     S
C962   C963    1.397   .     A
C963   C964    1.396   .     A
C964   H992    1.083   .     S
C965   C966    1.401   .     A
C965   C971    1.402   .     A
C966   C967    1.396   .     A
C966   H993    1.083   .     S
C967   C968    1.397   .     A
C967   H1696   1.078   .     S
C968   C969    1.398   .     A
C968   H1697   1.080   .     S
C969   H996    1.082   .     S
C969   C971    1.398   .     A
C970   C973    1.442   .     S
C970   O1014   1.293   .     A
C970   O1012   1.284   .     A
C971   H997    1.081   .     S
C972   C1101   1.487   1_455 S
C972   C1129   1.360   1_455 S
C973   C1030   1.487   .     S
C973   C1050   1.360   .     S
C974   H979    1.081   .     S
C975   H990    1.081   .     S
C975   C1172   1.389   .     S
C976   C1208   1.389   .     S
Cu977  Cu978   2.683   .     S
Cu977  O1010   1.974   .     S
Cu977  O1007   1.979   .     S
Cu977  O1014   1.976   .     S
Cu977  O1011   1.976   .     S
Cu977  N1005   2.016   .     S
Cu978  N1006   2.016   .     S
Cu978  O1008   1.979   .     S
Cu978  O1009   1.974   .     S
Cu978  O1012   1.976   .     S
Cu978  O1013   1.976   .     S
H989   C1664   1.080   .     S
H991   C1665   1.078   .     S
H1003  C1649   1.081   .     S
C1015  O1085   1.292   .     A
C1015  C1018   1.459   .     S
C1015  O1087   1.297   .     A
C1016  C1043   1.474   .     S
C1016  C1018   1.410   .     A
C1017  C1026   1.459   .     S
C1017  C1053   1.397   .     A
C1017  C1054   1.410   .     A
C1018  C1052   1.397   .     A
C1019  N1084   1.366   .     A
C1019  H1076   1.080   .     S
C1020  N1083   1.366   .     A
C1020  H1077   1.080   .     S
C1020  C1724   1.417   .     S
C1021  N1083   1.365   .     A
C1021  H1078   1.079   .     S
C1021  C1721   1.417   .     S
C1022  H1079   1.079   .     S
C1022  N1084   1.365   .     A
C1023  C1024   1.403   .     A
C1023  C1029   1.402   .     A
C1023  C1128   1.487   .     S
C1024  H1080   1.081   .     S
C1024  C1025   1.399   .     A
C1025  C1027   1.397   .     A
C1026  O1088   1.297   .     A
C1026  O1086   1.292   .     A
C1027  C1028   1.396   .     A
C1027  H1082   1.082   .     S
C1028  H1058   1.077   .     S
C1028  C1029   1.395   .     A
C1029  H1059   1.081   .     S
C1030  C1035   1.403   .     A
C1030  C1031   1.402   .     A
C1031  H1060   1.081   .     S
C1031  C1032   1.395   .     A
C1032  H1061   1.077   .     S
C1032  C1033   1.396   .     A
C1033  C1034   1.397   .     A
C1033  H1062   1.082   .     S
C1034  C1035   1.399   .     A
C1034  H1765   1.081   .     S
C1035  H1064   1.081   .     S
C1036  C1042   1.401   .     A
C1036  C1054   1.474   .     S
C1036  C1038   1.402   .     A
C1037  O1091   1.293   .     A
C1037  O1089   1.284   .     A
C1037  C1050   1.442   .     S
C1038  C1039   1.398   .     A
C1038  H1065   1.081   .     S
C1039  C1040   1.398   .     A
C1039  H1066   1.082   .     S
C1040  C1041   1.397   .     A
C1041  C1042   1.396   .     A
C1042  H1070   1.083   .     S
C1043  C1044   1.401   .     A
C1043  C1049   1.402   .     A
C1044  C1045   1.396   .     A
C1044  H1071   1.083   .     S
C1045  C1046   1.397   .     A
C1045  H1774   1.078   .     S
C1046  C1047   1.398   .     A
C1046  H1775   1.080   .     S
C1047  H1074   1.082   .     S
C1047  C1049   1.398   .     A
C1048  C1051   1.442   .     S
C1048  O1092   1.293   .     A
C1048  O1090   1.284   .     A
C1049  H1075   1.081   .     S
C1051  C1108   1.487   .     S
C1051  C1128   1.360   .     S
C1052  H1057   1.081   .     S
C1053  H1068   1.081   .     S
C1053  C1250   1.389   .     S
C1054  C1286   1.389   .     S
Cu1055 Cu1056  2.683   .     S
Cu1055 O1088   1.974   .     S
Cu1055 O1085   1.979   .     S
Cu1055 O1092   1.976   .     S
Cu1055 O1089   1.976   .     S
Cu1055 N1083   2.016   .     S
Cu1056 N1084   2.016   .     S
Cu1056 O1086   1.979   .     S
Cu1056 O1087   1.974   .     S
Cu1056 O1090   1.976   .     S
Cu1056 O1091   1.976   .     S
H1067  C1742   1.080   .     S
H1069  C1743   1.078   .     S
H1081  C1727   1.081   .     S
C1093  O1163   1.292   .     A
C1093  C1096   1.459   .     S
C1093  O1165   1.297   .     A
C1094  C1121   1.474   .     S
C1094  C1096   1.410   .     A
C1095  C1104   1.459   .     S
C1095  C1131   1.397   .     A
C1095  C1132   1.410   .     A
C1096  C1130   1.397   .     A
C1097  N1162   1.366   .     A
C1097  H1154   1.080   .     S
C1098  N1161   1.366   .     A
C1098  H1155   1.080   .     S
C1098  C1802   1.417   .     S
C1099  N1161   1.365   .     A
C1099  H1156   1.079   .     S
C1099  C1799   1.417   .     S
C1100  H1157   1.079   .     S
C1100  N1162   1.365   .     A
C1101  C1102   1.403   .     A
C1101  C1107   1.402   .     A
C1101  C972    1.487   1_655 S
C1102  H1158   1.081   .     S
C1102  C1103   1.399   .     A
C1103  C1105   1.397   .     A
C1104  O1166   1.297   .     A
C1104  O1164   1.292   .     A
C1105  C1106   1.396   .     A
C1105  H1160   1.082   .     S
C1106  H1136   1.077   .     S
C1106  C1107   1.395   .     A
C1107  H1137   1.081   .     S
C1108  C1113   1.403   .     A
C1108  C1109   1.402   .     A
C1109  H1138   1.081   .     S
C1109  C1110   1.395   .     A
C1110  H1139   1.077   .     S
C1110  C1111   1.396   .     A
C1111  C1112   1.397   .     A
C1111  H1140   1.082   .     S
C1112  C1113   1.399   .     A
C1112  H1843   1.081   .     S
C1113  H1142   1.081   .     S
C1114  C1120   1.401   .     A
C1114  C1132   1.474   .     S
C1114  C1116   1.402   .     A
C1115  O1169   1.293   .     A
C1115  O1167   1.284   .     A
C1115  C1128   1.442   .     S
C1116  C1117   1.398   .     A
C1116  H1143   1.081   .     S
C1117  C1118   1.398   .     A
C1117  H1144   1.082   .     S
C1118  C1119   1.397   .     A
C1119  C1120   1.396   .     A
C1120  H1148   1.083   .     S
C1121  C1122   1.401   .     A
C1121  C1127   1.402   .     A
C1122  C1123   1.396   .     A
C1122  H1149   1.083   .     S
C1123  C1124   1.397   .     A
C1123  H1852   1.078   .     S
C1124  C1125   1.398   .     A
C1124  H1853   1.080   .     S
C1125  H1152   1.082   .     S
C1125  C1127   1.398   .     A
C1126  C1129   1.442   .     S
C1126  O1170   1.293   .     A
C1126  O1168   1.284   .     A
C1127  H1153   1.081   .     S
C1129  C952    1.487   1_655 S
C1129  C972    1.360   1_655 S
C1130  H1135   1.081   .     S
C1131  H1146   1.081   .     S
C1131  C1328   1.389   .     S
C1132  C1364   1.389   .     S
Cu1133 Cu1134  2.683   .     S
Cu1133 O1166   1.974   .     S
Cu1133 O1163   1.979   .     S
Cu1133 O1170   1.976   .     S
Cu1133 O1167   1.976   .     S
Cu1133 N1161   2.016   .     S
Cu1134 N1162   2.016   .     S
Cu1134 O1164   1.979   .     S
Cu1134 O1165   1.974   .     S
Cu1134 O1168   1.976   .     S
Cu1134 O1169   1.976   .     S
H1145  C1820   1.080   .     S
H1147  C1821   1.078   .     S
H1159  C1805   1.081   .     S
C1171  O1241   1.292   .     A
C1171  C1174   1.459   .     S
C1171  O1243   1.297   .     A
C1172  C1199   1.474   .     S
C1172  C1174   1.410   .     A
C1173  C1182   1.459   .     S
C1173  C1209   1.397   .     A
C1173  C1210   1.410   .     A
C1174  C1208   1.397   .     A
C1175  N1240   1.366   .     A
C1175  H1232   1.080   .     S
C1176  N1239   1.366   .     A
C1176  H1233   1.080   .     S
C1176  C1880   1.417   .     S
C1177  N1239   1.365   .     A
C1177  H1234   1.079   .     S
C1177  C1877   1.417   .     S
C1178  H1235   1.079   .     S
C1178  N1240   1.365   .     A
C1179  C1180   1.403   .     A
C1179  C1185   1.402   .     A
C1179  C1284   1.487   .     S
C1180  H1236   1.081   .     S
C1180  C1181   1.399   .     A
C1181  C1183   1.397   .     A
C1182  O1244   1.297   .     A
C1182  O1242   1.292   .     A
C1183  C1184   1.396   .     A
C1183  H1238   1.082   .     S
C1184  H1214   1.077   .     S
C1184  C1185   1.395   .     A
C1185  H1215   1.081   .     S
C1186  C1191   1.403   .     A
C1186  C1187   1.402   .     A
C1186  C1363   1.487   1_455 S
C1187  H1216   1.081   .     S
C1187  C1188   1.395   .     A
C1188  H1217   1.077   .     S
C1188  C1189   1.396   .     A
C1189  C1190   1.397   .     A
C1189  H1218   1.082   .     S
C1190  C1191   1.399   .     A
C1190  H1921   1.081   .     S
C1191  H1220   1.081   .     S
C1192  C1198   1.401   .     A
C1192  C1210   1.474   .     S
C1192  C1194   1.402   .     A
C1193  O1247   1.293   .     A
C1193  O1245   1.284   .     A
C1193  C1206   1.442   .     S
C1194  C1195   1.398   .     A
C1194  H1221   1.081   .     S
C1195  C1196   1.398   .     A
C1195  H1222   1.082   .     S
C1196  C1197   1.397   .     A
C1197  C1198   1.396   .     A
C1198  H1226   1.083   .     S
C1199  C1200   1.401   .     A
C1199  C1205   1.402   .     A
C1200  C1201   1.396   .     A
C1200  H1227   1.083   .     S
C1201  C1202   1.397   .     A
C1201  H1930   1.078   .     S
C1202  C1203   1.398   .     A
C1202  H1931   1.080   .     S
C1203  H1230   1.082   .     S
C1203  C1205   1.398   .     A
C1204  C1207   1.442   .     S
C1204  O1248   1.293   .     A
C1204  O1246   1.284   .     A
C1205  H1231   1.081   .     S
C1206  C1335   1.487   1_455 S
C1206  C1363   1.360   1_455 S
C1207  C1264   1.487   .     S
C1207  C1284   1.360   .     S
C1208  H1213   1.081   .     S
C1209  H1224   1.081   .     S
C1209  C704    1.389   1_565 S
C1210  C740    1.389   1_565 S
Cu1211 Cu1212  2.683   .     S
Cu1211 O1244   1.974   .     S
Cu1211 O1241   1.979   .     S
Cu1211 O1248   1.976   .     S
Cu1211 O1245   1.976   .     S
Cu1211 N1239   2.016   .     S
Cu1212 N1240   2.016   .     S
Cu1212 O1242   1.979   .     S
Cu1212 O1243   1.974   .     S
Cu1212 O1246   1.976   .     S
Cu1212 O1247   1.976   .     S
H1223  C1898   1.080   .     S
H1225  C1899   1.078   .     S
H1237  C1883   1.081   .     S
C1249  O1319   1.292   .     A
C1249  C1252   1.459   .     S
C1249  O1321   1.297   .     A
C1250  C1277   1.474   .     S
C1250  C1252   1.410   .     A
C1251  C1260   1.459   .     S
C1251  C1287   1.397   .     A
C1251  C1288   1.410   .     A
C1252  C1286   1.397   .     A
C1253  N1318   1.366   .     A
C1253  H1310   1.080   .     S
C1254  N1317   1.366   .     A
C1254  H1311   1.080   .     S
C1254  C1958   1.417   .     S
C1255  N1317   1.365   .     A
C1255  H1312   1.079   .     S
C1255  C1955   1.417   .     S
C1256  H1313   1.079   .     S
C1256  N1318   1.365   .     A
C1257  C1258   1.403   .     A
C1257  C1263   1.402   .     A
C1257  C1362   1.487   .     S
C1258  H1314   1.081   .     S
C1258  C1259   1.399   .     A
C1259  C1261   1.397   .     A
C1260  O1322   1.297   .     A
C1260  O1320   1.292   .     A
C1261  C1262   1.396   .     A
C1261  H1316   1.082   .     S
C1262  H1292   1.077   .     S
C1262  C1263   1.395   .     A
C1263  H1293   1.081   .     S
C1264  C1269   1.403   .     A
C1264  C1265   1.402   .     A
C1265  H1294   1.081   .     S
C1265  C1266   1.395   .     A
C1266  H1295   1.077   .     S
C1266  C1267   1.396   .     A
C1267  C1268   1.397   .     A
C1267  H1296   1.082   .     S
C1268  C1269   1.399   .     A
C1268  H1999   1.081   .     S
C1269  H1298   1.081   .     S
C1270  C1276   1.401   .     A
C1270  C1288   1.474   .     S
C1270  C1272   1.402   .     A
C1271  O1325   1.293   .     A
C1271  O1323   1.284   .     A
C1271  C1284   1.442   .     S
C1272  C1273   1.398   .     A
C1272  H1299   1.081   .     S
C1273  C1274   1.398   .     A
C1273  H1300   1.082   .     S
C1274  C1275   1.397   .     A
C1275  C1276   1.396   .     A
C1276  H1304   1.083   .     S
C1277  C1278   1.401   .     A
C1277  C1283   1.402   .     A
C1278  C1279   1.396   .     A
C1278  H1305   1.083   .     S
C1279  C1280   1.397   .     A
C1279  H2008   1.078   .     S
C1280  C1281   1.398   .     A
C1280  H2009   1.080   .     S
C1281  H1308   1.082   .     S
C1281  C1283   1.398   .     A
C1282  C1285   1.442   .     S
C1282  O1326   1.293   .     A
C1282  O1324   1.284   .     A
C1283  H1309   1.081   .     S
C1285  C1342   1.487   .     S
C1285  C1362   1.360   .     S
C1286  H1291   1.081   .     S
C1287  H1302   1.081   .     S
C1287  C782    1.389   1_565 S
C1288  C818    1.389   1_565 S
Cu1289 Cu1290  2.683   .     S
Cu1289 O1322   1.974   .     S
Cu1289 O1319   1.979   .     S
Cu1289 O1326   1.976   .     S
Cu1289 O1323   1.976   .     S
Cu1289 N1317   2.016   .     S
Cu1290 N1318   2.016   .     S
Cu1290 O1320   1.979   .     S
Cu1290 O1321   1.974   .     S
Cu1290 O1324   1.976   .     S
Cu1290 O1325   1.976   .     S
H1301  C1976   1.080   .     S
H1303  C1977   1.078   .     S
H1315  C1961   1.081   .     S
C1327  O1397   1.292   .     A
C1327  C1330   1.459   .     S
C1327  O1399   1.297   .     A
C1328  C1355   1.474   .     S
C1328  C1330   1.410   .     A
C1329  C1338   1.459   .     S
C1329  C1365   1.397   .     A
C1329  C1366   1.410   .     A
C1330  C1364   1.397   .     A
C1331  N1396   1.366   .     A
C1331  H1388   1.080   .     S
C1332  N1395   1.366   .     A
C1332  H1389   1.080   .     S
C1332  C2036   1.417   .     S
C1333  N1395   1.365   .     A
C1333  H1390   1.079   .     S
C1333  C2033   1.417   .     S
C1334  H1391   1.079   .     S
C1334  N1396   1.365   .     A
C1335  C1336   1.403   .     A
C1335  C1341   1.402   .     A
C1335  C1206   1.487   1_655 S
C1336  H1392   1.081   .     S
C1336  C1337   1.399   .     A
C1337  C1339   1.397   .     A
C1338  O1400   1.297   .     A
C1338  O1398   1.292   .     A
C1339  C1340   1.396   .     A
C1339  H1394   1.082   .     S
C1340  H1370   1.077   .     S
C1340  C1341   1.395   .     A
C1341  H1371   1.081   .     S
C1342  C1347   1.403   .     A
C1342  C1343   1.402   .     A
C1343  H1372   1.081   .     S
C1343  C1344   1.395   .     A
C1344  H1373   1.077   .     S
C1344  C1345   1.396   .     A
C1345  C1346   1.397   .     A
C1345  H1374   1.082   .     S
C1346  C1347   1.399   .     A
C1346  H2077   1.081   .     S
C1347  H1376   1.081   .     S
C1348  C1354   1.401   .     A
C1348  C1366   1.474   .     S
C1348  C1350   1.402   .     A
C1349  O1403   1.293   .     A
C1349  O1401   1.284   .     A
C1349  C1362   1.442   .     S
C1350  C1351   1.398   .     A
C1350  H1377   1.081   .     S
C1351  C1352   1.398   .     A
C1351  H1378   1.082   .     S
C1352  C1353   1.397   .     A
C1353  C1354   1.396   .     A
C1354  H1382   1.083   .     S
C1355  C1356   1.401   .     A
C1355  C1361   1.402   .     A
C1356  C1357   1.396   .     A
C1356  H1383   1.083   .     S
C1357  C1358   1.397   .     A
C1357  H2086   1.078   .     S
C1358  C1359   1.398   .     A
C1358  H2087   1.080   .     S
C1359  H1386   1.082   .     S
C1359  C1361   1.398   .     A
C1360  C1363   1.442   .     S
C1360  O1404   1.293   .     A
C1360  O1402   1.284   .     A
C1361  H1387   1.081   .     S
C1363  C1186   1.487   1_655 S
C1363  C1206   1.360   1_655 S
C1364  H1369   1.081   .     S
C1365  H1380   1.081   .     S
C1365  C860    1.389   1_565 S
C1366  C896    1.389   1_565 S
Cu1367 Cu1368  2.683   .     S
Cu1367 O1400   1.974   .     S
Cu1367 O1397   1.979   .     S
Cu1367 O1404   1.976   .     S
Cu1367 O1401   1.976   .     S
Cu1367 N1395   2.016   .     S
Cu1368 N1396   2.016   .     S
Cu1368 O1398   1.979   .     S
Cu1368 O1399   1.974   .     S
Cu1368 O1402   1.976   .     S
Cu1368 O1403   1.976   .     S
H1379  C2054   1.080   .     S
H1381  C2055   1.078   .     S
H1393  C2039   1.081   .     S
C1405  O1475   1.292   .     A
C1405  C1408   1.459   .     S
C1405  O1477   1.297   .     A
C1406  C1433   1.474   .     S
C1406  C1408   1.410   .     A
C1406  C1911   1.389   1_545 S
C1407  C1416   1.459   .     S
C1407  C1443   1.397   .     A
C1407  C1444   1.410   .     A
C1408  C1442   1.397   .     A
C1409  N1474   1.366   .     A
C1409  H1466   1.080   .     S
C1410  N1473   1.366   .     A
C1410  H1467   1.080   .     S
C1410  C8      1.417   1_556 S
C1411  N1473   1.365   .     A
C1411  H1468   1.079   .     S
C1411  C5      1.417   1_556 S
C1412  H1469   1.079   .     S
C1412  N1474   1.365   .     A
C1413  C1414   1.403   .     A
C1413  C1419   1.402   .     A
C1413  C1518   1.487   .     S
C1414  H1470   1.081   .     S
C1414  C1415   1.399   .     A
C1415  C1417   1.397   .     A
C1416  O1478   1.297   .     A
C1416  O1476   1.292   .     A
C1417  C1418   1.396   .     A
C1417  H1472   1.082   .     S
C1418  H1448   1.077   .     S
C1418  C1419   1.395   .     A
C1419  H1449   1.081   .     S
C1420  C1425   1.403   .     A
C1420  C1421   1.402   .     A
C1420  C1597   1.487   1_455 S
C1421  H1450   1.081   .     S
C1421  C1422   1.395   .     A
C1422  H1451   1.077   .     S
C1422  C1423   1.396   .     A
C1423  C1424   1.397   .     A
C1423  H1452   1.082   .     S
C1424  C1425   1.399   .     A
C1424  H49     1.081   1_556 S
C1425  H1454   1.081   .     S
C1426  C1432   1.401   .     A
C1426  C1444   1.474   .     S
C1426  C1428   1.402   .     A
C1427  O1481   1.293   .     A
C1427  O1479   1.284   .     A
C1427  C1440   1.442   .     S
C1428  C1429   1.398   .     A
C1428  H1455   1.081   .     S
C1429  C1430   1.398   .     A
C1429  H1456   1.082   .     S
C1430  C1431   1.397   .     A
C1431  C1432   1.396   .     A
C1432  H1460   1.083   .     S
C1433  C1434   1.401   .     A
C1433  C1439   1.402   .     A
C1434  C1435   1.396   .     A
C1434  H1461   1.083   .     S
C1435  C1436   1.397   .     A
C1435  H58     1.078   1_556 S
C1436  C1437   1.398   .     A
C1436  H59     1.080   1_556 S
C1437  H1464   1.082   .     S
C1437  C1439   1.398   .     A
C1438  C1441   1.442   .     S
C1438  O1482   1.293   .     A
C1438  O1480   1.284   .     A
C1439  H1465   1.081   .     S
C1440  C1569   1.487   1_455 S
C1440  C1597   1.360   1_455 S
C1441  C1498   1.487   .     S
C1441  C1518   1.360   .     S
C1442  H1447   1.081   .     S
C1442  C1912   1.389   1_545 S
C1443  H1458   1.081   .     S
C1443  C1640   1.389   .     S
C1444  C1676   1.389   .     S
Cu1445 Cu1446  2.683   .     S
Cu1445 O1478   1.974   .     S
Cu1445 O1475   1.979   .     S
Cu1445 O1482   1.976   .     S
Cu1445 O1479   1.976   .     S
Cu1445 N1473   2.016   .     S
Cu1446 N1474   2.016   .     S
Cu1446 O1476   1.979   .     S
Cu1446 O1477   1.974   .     S
Cu1446 O1480   1.976   .     S
Cu1446 O1481   1.976   .     S
H1457  C26     1.080   1_556 S
H1459  C27     1.078   1_556 S
H1471  C11     1.081   1_556 S
C1483  O1553   1.292   .     A
C1483  C1486   1.459   .     S
C1483  O1555   1.297   .     A
C1484  C1511   1.474   .     S
C1484  C1486   1.410   .     A
C1484  C1989   1.389   1_545 S
C1485  C1494   1.459   .     S
C1485  C1521   1.397   .     A
C1485  C1522   1.410   .     A
C1486  C1520   1.397   .     A
C1487  N1552   1.366   .     A
C1487  H1544   1.080   .     S
C1488  N1551   1.366   .     A
C1488  H1545   1.080   .     S
C1488  C86     1.417   1_556 S
C1489  N1551   1.365   .     A
C1489  H1546   1.079   .     S
C1489  C83     1.417   1_556 S
C1490  H1547   1.079   .     S
C1490  N1552   1.365   .     A
C1491  C1492   1.403   .     A
C1491  C1497   1.402   .     A
C1491  C1596   1.487   .     S
C1492  H1548   1.081   .     S
C1492  C1493   1.399   .     A
C1493  C1495   1.397   .     A
C1494  O1556   1.297   .     A
C1494  O1554   1.292   .     A
C1495  C1496   1.396   .     A
C1495  H1550   1.082   .     S
C1496  H1526   1.077   .     S
C1496  C1497   1.395   .     A
C1497  H1527   1.081   .     S
C1498  C1503   1.403   .     A
C1498  C1499   1.402   .     A
C1499  H1528   1.081   .     S
C1499  C1500   1.395   .     A
C1500  H1529   1.077   .     S
C1500  C1501   1.396   .     A
C1501  C1502   1.397   .     A
C1501  H1530   1.082   .     S
C1502  C1503   1.399   .     A
C1502  H127    1.081   1_556 S
C1503  H1532   1.081   .     S
C1504  C1510   1.401   .     A
C1504  C1522   1.474   .     S
C1504  C1506   1.402   .     A
C1505  O1559   1.293   .     A
C1505  O1557   1.284   .     A
C1505  C1518   1.442   .     S
C1506  C1507   1.398   .     A
C1506  H1533   1.081   .     S
C1507  C1508   1.398   .     A
C1507  H1534   1.082   .     S
C1508  C1509   1.397   .     A
C1509  C1510   1.396   .     A
C1510  H1538   1.083   .     S
C1511  C1512   1.401   .     A
C1511  C1517   1.402   .     A
C1512  C1513   1.396   .     A
C1512  H1539   1.083   .     S
C1513  C1514   1.397   .     A
C1513  H136    1.078   1_556 S
C1514  C1515   1.398   .     A
C1514  H137    1.080   1_556 S
C1515  H1542   1.082   .     S
C1515  C1517   1.398   .     A
C1516  C1519   1.442   .     S
C1516  O1560   1.293   .     A
C1516  O1558   1.284   .     A
C1517  H1543   1.081   .     S
C1519  C1576   1.487   .     S
C1519  C1596   1.360   .     S
C1520  H1525   1.081   .     S
C1520  C1990   1.389   1_545 S
C1521  H1536   1.081   .     S
C1521  C1718   1.389   .     S
C1522  C1754   1.389   .     S
Cu1523 Cu1524  2.683   .     S
Cu1523 O1556   1.974   .     S
Cu1523 O1553   1.979   .     S
Cu1523 O1560   1.976   .     S
Cu1523 O1557   1.976   .     S
Cu1523 N1551   2.016   .     S
Cu1524 N1552   2.016   .     S
Cu1524 O1554   1.979   .     S
Cu1524 O1555   1.974   .     S
Cu1524 O1558   1.976   .     S
Cu1524 O1559   1.976   .     S
H1535  C104    1.080   1_556 S
H1537  C105    1.078   1_556 S
H1549  C89     1.081   1_556 S
C1561  O1631   1.292   .     A
C1561  C1564   1.459   .     S
C1561  O1633   1.297   .     A
C1562  C1589   1.474   .     S
C1562  C1564   1.410   .     A
C1562  C2067   1.389   1_545 S
C1563  C1572   1.459   .     S
C1563  C1599   1.397   .     A
C1563  C1600   1.410   .     A
C1564  C1598   1.397   .     A
C1565  N1630   1.366   .     A
C1565  H1622   1.080   .     S
C1566  N1629   1.366   .     A
C1566  H1623   1.080   .     S
C1566  C164    1.417   1_556 S
C1567  N1629   1.365   .     A
C1567  H1624   1.079   .     S
C1567  C161    1.417   1_556 S
C1568  H1625   1.079   .     S
C1568  N1630   1.365   .     A
C1569  C1570   1.403   .     A
C1569  C1575   1.402   .     A
C1569  C1440   1.487   1_655 S
C1570  H1626   1.081   .     S
C1570  C1571   1.399   .     A
C1571  C1573   1.397   .     A
C1572  O1634   1.297   .     A
C1572  O1632   1.292   .     A
C1573  C1574   1.396   .     A
C1573  H1628   1.082   .     S
C1574  H1604   1.077   .     S
C1574  C1575   1.395   .     A
C1575  H1605   1.081   .     S
C1576  C1581   1.403   .     A
C1576  C1577   1.402   .     A
C1577  H1606   1.081   .     S
C1577  C1578   1.395   .     A
C1578  H1607   1.077   .     S
C1578  C1579   1.396   .     A
C1579  C1580   1.397   .     A
C1579  H1608   1.082   .     S
C1580  C1581   1.399   .     A
C1580  H205    1.081   1_556 S
C1581  H1610   1.081   .     S
C1582  C1588   1.401   .     A
C1582  C1600   1.474   .     S
C1582  C1584   1.402   .     A
C1583  O1637   1.293   .     A
C1583  O1635   1.284   .     A
C1583  C1596   1.442   .     S
C1584  C1585   1.398   .     A
C1584  H1611   1.081   .     S
C1585  C1586   1.398   .     A
C1585  H1612   1.082   .     S
C1586  C1587   1.397   .     A
C1587  C1588   1.396   .     A
C1588  H1616   1.083   .     S
C1589  C1590   1.401   .     A
C1589  C1595   1.402   .     A
C1590  C1591   1.396   .     A
C1590  H1617   1.083   .     S
C1591  C1592   1.397   .     A
C1591  H214    1.078   1_556 S
C1592  C1593   1.398   .     A
C1592  H215    1.080   1_556 S
C1593  H1620   1.082   .     S
C1593  C1595   1.398   .     A
C1594  C1597   1.442   .     S
C1594  O1638   1.293   .     A
C1594  O1636   1.284   .     A
C1595  H1621   1.081   .     S
C1597  C1420   1.487   1_655 S
C1597  C1440   1.360   1_655 S
C1598  H1603   1.081   .     S
C1598  C2068   1.389   1_545 S
C1599  H1614   1.081   .     S
C1599  C1796   1.389   .     S
C1600  C1832   1.389   .     S
Cu1601 Cu1602  2.683   .     S
Cu1601 O1634   1.974   .     S
Cu1601 O1631   1.979   .     S
Cu1601 O1638   1.976   .     S
Cu1601 O1635   1.976   .     S
Cu1601 N1629   2.016   .     S
Cu1602 N1630   2.016   .     S
Cu1602 O1632   1.979   .     S
Cu1602 O1633   1.974   .     S
Cu1602 O1636   1.976   .     S
Cu1602 O1637   1.976   .     S
H1613  C182    1.080   1_556 S
H1615  C183    1.078   1_556 S
H1627  C167    1.081   1_556 S
C1639  O1709   1.292   .     A
C1639  C1642   1.459   .     S
C1639  O1711   1.297   .     A
C1640  C1667   1.474   .     S
C1640  C1642   1.410   .     A
C1641  C1650   1.459   .     S
C1641  C1677   1.397   .     A
C1641  C1678   1.410   .     A
C1642  C1676   1.397   .     A
C1643  N1708   1.366   .     A
C1643  H1700   1.080   .     S
C1644  N1707   1.366   .     A
C1644  H1701   1.080   .     S
C1644  C242    1.417   1_556 S
C1645  N1707   1.365   .     A
C1645  H1702   1.079   .     S
C1645  C239    1.417   1_556 S
C1646  H1703   1.079   .     S
C1646  N1708   1.365   .     A
C1647  C1648   1.403   .     A
C1647  C1653   1.402   .     A
C1647  C1752   1.487   .     S
C1648  H1704   1.081   .     S
C1648  C1649   1.399   .     A
C1649  C1651   1.397   .     A
C1650  O1712   1.297   .     A
C1650  O1710   1.292   .     A
C1651  C1652   1.396   .     A
C1651  H1706   1.082   .     S
C1652  H1682   1.077   .     S
C1652  C1653   1.395   .     A
C1653  H1683   1.081   .     S
C1654  C1659   1.403   .     A
C1654  C1655   1.402   .     A
C1654  C1831   1.487   1_455 S
C1655  H1684   1.081   .     S
C1655  C1656   1.395   .     A
C1656  H1685   1.077   .     S
C1656  C1657   1.396   .     A
C1657  C1658   1.397   .     A
C1657  H1686   1.082   .     S
C1658  C1659   1.399   .     A
C1658  H283    1.081   1_556 S
C1659  H1688   1.081   .     S
C1660  C1666   1.401   .     A
C1660  C1678   1.474   .     S
C1660  C1662   1.402   .     A
C1661  O1715   1.293   .     A
C1661  O1713   1.284   .     A
C1661  C1674   1.442   .     S
C1662  C1663   1.398   .     A
C1662  H1689   1.081   .     S
C1663  C1664   1.398   .     A
C1663  H1690   1.082   .     S
C1664  C1665   1.397   .     A
C1665  C1666   1.396   .     A
C1666  H1694   1.083   .     S
C1667  C1668   1.401   .     A
C1667  C1673   1.402   .     A
C1668  C1669   1.396   .     A
C1668  H1695   1.083   .     S
C1669  C1670   1.397   .     A
C1669  H292    1.078   1_556 S
C1670  C1671   1.398   .     A
C1670  H293    1.080   1_556 S
C1671  H1698   1.082   .     S
C1671  C1673   1.398   .     A
C1672  C1675   1.442   .     S
C1672  O1716   1.293   .     A
C1672  O1714   1.284   .     A
C1673  H1699   1.081   .     S
C1674  C1803   1.487   1_455 S
C1674  C1831   1.360   1_455 S
C1675  C1732   1.487   .     S
C1675  C1752   1.360   .     S
C1676  H1681   1.081   .     S
C1677  H1692   1.081   .     S
C1677  C1874   1.389   .     S
C1678  C1910   1.389   .     S
Cu1679 Cu1680  2.683   .     S
Cu1679 O1712   1.974   .     S
Cu1679 O1709   1.979   .     S
Cu1679 O1716   1.976   .     S
Cu1679 O1713   1.976   .     S
Cu1679 N1707   2.016   .     S
Cu1680 N1708   2.016   .     S
Cu1680 O1710   1.979   .     S
Cu1680 O1711   1.974   .     S
Cu1680 O1714   1.976   .     S
Cu1680 O1715   1.976   .     S
H1691  C260    1.080   1_556 S
H1693  C261    1.078   1_556 S
H1705  C245    1.081   1_556 S
C1717  O1787   1.292   .     A
C1717  C1720   1.459   .     S
C1717  O1789   1.297   .     A
C1718  C1745   1.474   .     S
C1718  C1720   1.410   .     A
C1719  C1728   1.459   .     S
C1719  C1755   1.397   .     A
C1719  C1756   1.410   .     A
C1720  C1754   1.397   .     A
C1721  N1786   1.366   .     A
C1721  H1778   1.080   .     S
C1722  N1785   1.366   .     A
C1722  H1779   1.080   .     S
C1722  C320    1.417   1_556 S
C1723  N1785   1.365   .     A
C1723  H1780   1.079   .     S
C1723  C317    1.417   1_556 S
C1724  H1781   1.079   .     S
C1724  N1786   1.365   .     A
C1725  C1726   1.403   .     A
C1725  C1731   1.402   .     A
C1725  C1830   1.487   .     S
C1726  H1782   1.081   .     S
C1726  C1727   1.399   .     A
C1727  C1729   1.397   .     A
C1728  O1790   1.297   .     A
C1728  O1788   1.292   .     A
C1729  C1730   1.396   .     A
C1729  H1784   1.082   .     S
C1730  H1760   1.077   .     S
C1730  C1731   1.395   .     A
C1731  H1761   1.081   .     S
C1732  C1737   1.403   .     A
C1732  C1733   1.402   .     A
C1733  H1762   1.081   .     S
C1733  C1734   1.395   .     A
C1734  H1763   1.077   .     S
C1734  C1735   1.396   .     A
C1735  C1736   1.397   .     A
C1735  H1764   1.082   .     S
C1736  C1737   1.399   .     A
C1736  H361    1.081   1_556 S
C1737  H1766   1.081   .     S
C1738  C1744   1.401   .     A
C1738  C1756   1.474   .     S
C1738  C1740   1.402   .     A
C1739  O1793   1.293   .     A
C1739  O1791   1.284   .     A
C1739  C1752   1.442   .     S
C1740  C1741   1.398   .     A
C1740  H1767   1.081   .     S
C1741  C1742   1.398   .     A
C1741  H1768   1.082   .     S
C1742  C1743   1.397   .     A
C1743  C1744   1.396   .     A
C1744  H1772   1.083   .     S
C1745  C1746   1.401   .     A
C1745  C1751   1.402   .     A
C1746  C1747   1.396   .     A
C1746  H1773   1.083   .     S
C1747  C1748   1.397   .     A
C1747  H370    1.078   1_556 S
C1748  C1749   1.398   .     A
C1748  H371    1.080   1_556 S
C1749  H1776   1.082   .     S
C1749  C1751   1.398   .     A
C1750  C1753   1.442   .     S
C1750  O1794   1.293   .     A
C1750  O1792   1.284   .     A
C1751  H1777   1.081   .     S
C1753  C1810   1.487   .     S
C1753  C1830   1.360   .     S
C1754  H1759   1.081   .     S
C1755  H1770   1.081   .     S
C1755  C1952   1.389   .     S
C1756  C1988   1.389   .     S
Cu1757 Cu1758  2.683   .     S
Cu1757 O1790   1.974   .     S
Cu1757 O1787   1.979   .     S
Cu1757 O1794   1.976   .     S
Cu1757 O1791   1.976   .     S
Cu1757 N1785   2.016   .     S
Cu1758 N1786   2.016   .     S
Cu1758 O1788   1.979   .     S
Cu1758 O1789   1.974   .     S
Cu1758 O1792   1.976   .     S
Cu1758 O1793   1.976   .     S
H1769  C338    1.080   1_556 S
H1771  C339    1.078   1_556 S
H1783  C323    1.081   1_556 S
C1795  O1865   1.292   .     A
C1795  C1798   1.459   .     S
C1795  O1867   1.297   .     A
C1796  C1823   1.474   .     S
C1796  C1798   1.410   .     A
C1797  C1806   1.459   .     S
C1797  C1833   1.397   .     A
C1797  C1834   1.410   .     A
C1798  C1832   1.397   .     A
C1799  N1864   1.366   .     A
C1799  H1856   1.080   .     S
C1800  N1863   1.366   .     A
C1800  H1857   1.080   .     S
C1800  C398    1.417   1_556 S
C1801  N1863   1.365   .     A
C1801  H1858   1.079   .     S
C1801  C395    1.417   1_556 S
C1802  H1859   1.079   .     S
C1802  N1864   1.365   .     A
C1803  C1804   1.403   .     A
C1803  C1809   1.402   .     A
C1803  C1674   1.487   1_655 S
C1804  H1860   1.081   .     S
C1804  C1805   1.399   .     A
C1805  C1807   1.397   .     A
C1806  O1868   1.297   .     A
C1806  O1866   1.292   .     A
C1807  C1808   1.396   .     A
C1807  H1862   1.082   .     S
C1808  H1838   1.077   .     S
C1808  C1809   1.395   .     A
C1809  H1839   1.081   .     S
C1810  C1815   1.403   .     A
C1810  C1811   1.402   .     A
C1811  H1840   1.081   .     S
C1811  C1812   1.395   .     A
C1812  H1841   1.077   .     S
C1812  C1813   1.396   .     A
C1813  C1814   1.397   .     A
C1813  H1842   1.082   .     S
C1814  C1815   1.399   .     A
C1814  H439    1.081   1_556 S
C1815  H1844   1.081   .     S
C1816  C1822   1.401   .     A
C1816  C1834   1.474   .     S
C1816  C1818   1.402   .     A
C1817  O1871   1.293   .     A
C1817  O1869   1.284   .     A
C1817  C1830   1.442   .     S
C1818  C1819   1.398   .     A
C1818  H1845   1.081   .     S
C1819  C1820   1.398   .     A
C1819  H1846   1.082   .     S
C1820  C1821   1.397   .     A
C1821  C1822   1.396   .     A
C1822  H1850   1.083   .     S
C1823  C1824   1.401   .     A
C1823  C1829   1.402   .     A
C1824  C1825   1.396   .     A
C1824  H1851   1.083   .     S
C1825  C1826   1.397   .     A
C1825  H448    1.078   1_556 S
C1826  C1827   1.398   .     A
C1826  H449    1.080   1_556 S
C1827  H1854   1.082   .     S
C1827  C1829   1.398   .     A
C1828  C1831   1.442   .     S
C1828  O1872   1.293   .     A
C1828  O1870   1.284   .     A
C1829  H1855   1.081   .     S
C1831  C1654   1.487   1_655 S
C1831  C1674   1.360   1_655 S
C1832  H1837   1.081   .     S
C1833  H1848   1.081   .     S
C1833  C2030   1.389   .     S
C1834  C2066   1.389   .     S
Cu1835 Cu1836  2.683   .     S
Cu1835 O1868   1.974   .     S
Cu1835 O1865   1.979   .     S
Cu1835 O1872   1.976   .     S
Cu1835 O1869   1.976   .     S
Cu1835 N1863   2.016   .     S
Cu1836 N1864   2.016   .     S
Cu1836 O1866   1.979   .     S
Cu1836 O1867   1.974   .     S
Cu1836 O1870   1.976   .     S
Cu1836 O1871   1.976   .     S
H1847  C416    1.080   1_556 S
H1849  C417    1.078   1_556 S
H1861  C401    1.081   1_556 S
C1873  O1943   1.292   .     A
C1873  C1876   1.459   .     S
C1873  O1945   1.297   .     A
C1874  C1901   1.474   .     S
C1874  C1876   1.410   .     A
C1875  C1884   1.459   .     S
C1875  C1911   1.397   .     A
C1875  C1912   1.410   .     A
C1876  C1910   1.397   .     A
C1877  N1942   1.366   .     A
C1877  H1934   1.080   .     S
C1878  N1941   1.366   .     A
C1878  H1935   1.080   .     S
C1878  C476    1.417   1_556 S
C1879  N1941   1.365   .     A
C1879  H1936   1.079   .     S
C1879  C473    1.417   1_556 S
C1880  H1937   1.079   .     S
C1880  N1942   1.365   .     A
C1881  C1882   1.403   .     A
C1881  C1887   1.402   .     A
C1881  C1986   1.487   .     S
C1882  H1938   1.081   .     S
C1882  C1883   1.399   .     A
C1883  C1885   1.397   .     A
C1884  O1946   1.297   .     A
C1884  O1944   1.292   .     A
C1885  C1886   1.396   .     A
C1885  H1940   1.082   .     S
C1886  H1916   1.077   .     S
C1886  C1887   1.395   .     A
C1887  H1917   1.081   .     S
C1888  C1893   1.403   .     A
C1888  C1889   1.402   .     A
C1888  C2065   1.487   1_455 S
C1889  H1918   1.081   .     S
C1889  C1890   1.395   .     A
C1890  H1919   1.077   .     S
C1890  C1891   1.396   .     A
C1891  C1892   1.397   .     A
C1891  H1920   1.082   .     S
C1892  C1893   1.399   .     A
C1892  H517    1.081   1_556 S
C1893  H1922   1.081   .     S
C1894  C1900   1.401   .     A
C1894  C1912   1.474   .     S
C1894  C1896   1.402   .     A
C1895  O1949   1.293   .     A
C1895  O1947   1.284   .     A
C1895  C1908   1.442   .     S
C1896  C1897   1.398   .     A
C1896  H1923   1.081   .     S
C1897  C1898   1.398   .     A
C1897  H1924   1.082   .     S
C1898  C1899   1.397   .     A
C1899  C1900   1.396   .     A
C1900  H1928   1.083   .     S
C1901  C1902   1.401   .     A
C1901  C1907   1.402   .     A
C1902  C1903   1.396   .     A
C1902  H1929   1.083   .     S
C1903  C1904   1.397   .     A
C1903  H526    1.078   1_556 S
C1904  C1905   1.398   .     A
C1904  H527    1.080   1_556 S
C1905  H1932   1.082   .     S
C1905  C1907   1.398   .     A
C1906  C1909   1.442   .     S
C1906  O1950   1.293   .     A
C1906  O1948   1.284   .     A
C1907  H1933   1.081   .     S
C1908  C2037   1.487   1_455 S
C1908  C2065   1.360   1_455 S
C1909  C1966   1.487   .     S
C1909  C1986   1.360   .     S
C1910  H1915   1.081   .     S
C1911  H1926   1.081   .     S
C1911  C1406   1.389   1_565 S
C1912  C1442   1.389   1_565 S
Cu1913 Cu1914  2.683   .     S
Cu1913 O1946   1.974   .     S
Cu1913 O1943   1.979   .     S
Cu1913 O1950   1.976   .     S
Cu1913 O1947   1.976   .     S
Cu1913 N1941   2.016   .     S
Cu1914 N1942   2.016   .     S
Cu1914 O1944   1.979   .     S
Cu1914 O1945   1.974   .     S
Cu1914 O1948   1.976   .     S
Cu1914 O1949   1.976   .     S
H1925  C494    1.080   1_556 S
H1927  C495    1.078   1_556 S
H1939  C479    1.081   1_556 S
C1951  O2021   1.292   .     A
C1951  C1954   1.459   .     S
C1951  O2023   1.297   .     A
C1952  C1979   1.474   .     S
C1952  C1954   1.410   .     A
C1953  C1962   1.459   .     S
C1953  C1989   1.397   .     A
C1953  C1990   1.410   .     A
C1954  C1988   1.397   .     A
C1955  N2020   1.366   .     A
C1955  H2012   1.080   .     S
C1956  N2019   1.366   .     A
C1956  H2013   1.080   .     S
C1956  C554    1.417   1_556 S
C1957  N2019   1.365   .     A
C1957  H2014   1.079   .     S
C1957  C551    1.417   1_556 S
C1958  H2015   1.079   .     S
C1958  N2020   1.365   .     A
C1959  C1960   1.403   .     A
C1959  C1965   1.402   .     A
C1959  C2064   1.487   .     S
C1960  H2016   1.081   .     S
C1960  C1961   1.399   .     A
C1961  C1963   1.397   .     A
C1962  O2024   1.297   .     A
C1962  O2022   1.292   .     A
C1963  C1964   1.396   .     A
C1963  H2018   1.082   .     S
C1964  H1994   1.077   .     S
C1964  C1965   1.395   .     A
C1965  H1995   1.081   .     S
C1966  C1971   1.403   .     A
C1966  C1967   1.402   .     A
C1967  H1996   1.081   .     S
C1967  C1968   1.395   .     A
C1968  H1997   1.077   .     S
C1968  C1969   1.396   .     A
C1969  C1970   1.397   .     A
C1969  H1998   1.082   .     S
C1970  C1971   1.399   .     A
C1970  H595    1.081   1_556 S
C1971  H2000   1.081   .     S
C1972  C1978   1.401   .     A
C1972  C1990   1.474   .     S
C1972  C1974   1.402   .     A
C1973  O2027   1.293   .     A
C1973  O2025   1.284   .     A
C1973  C1986   1.442   .     S
C1974  C1975   1.398   .     A
C1974  H2001   1.081   .     S
C1975  C1976   1.398   .     A
C1975  H2002   1.082   .     S
C1976  C1977   1.397   .     A
C1977  C1978   1.396   .     A
C1978  H2006   1.083   .     S
C1979  C1980   1.401   .     A
C1979  C1985   1.402   .     A
C1980  C1981   1.396   .     A
C1980  H2007   1.083   .     S
C1981  C1982   1.397   .     A
C1981  H604    1.078   1_556 S
C1982  C1983   1.398   .     A
C1982  H605    1.080   1_556 S
C1983  H2010   1.082   .     S
C1983  C1985   1.398   .     A
C1984  C1987   1.442   .     S
C1984  O2028   1.293   .     A
C1984  O2026   1.284   .     A
C1985  H2011   1.081   .     S
C1987  C2044   1.487   .     S
C1987  C2064   1.360   .     S
C1988  H1993   1.081   .     S
C1989  H2004   1.081   .     S
C1989  C1484   1.389   1_565 S
C1990  C1520   1.389   1_565 S
Cu1991 Cu1992  2.683   .     S
Cu1991 O2024   1.974   .     S
Cu1991 O2021   1.979   .     S
Cu1991 O2028   1.976   .     S
Cu1991 O2025   1.976   .     S
Cu1991 N2019   2.016   .     S
Cu1992 N2020   2.016   .     S
Cu1992 O2022   1.979   .     S
Cu1992 O2023   1.974   .     S
Cu1992 O2026   1.976   .     S
Cu1992 O2027   1.976   .     S
H2003  C572    1.080   1_556 S
H2005  C573    1.078   1_556 S
H2017  C557    1.081   1_556 S
C2029  O2099   1.292   .     A
C2029  C2032   1.459   .     S
C2029  O2101   1.297   .     A
C2030  C2057   1.474   .     S
C2030  C2032   1.410   .     A
C2031  C2040   1.459   .     S
C2031  C2067   1.397   .     A
C2031  C2068   1.410   .     A
C2032  C2066   1.397   .     A
C2033  N2098   1.366   .     A
C2033  H2090   1.080   .     S
C2034  N2097   1.366   .     A
C2034  H2091   1.080   .     S
C2034  C632    1.417   1_556 S
C2035  N2097   1.365   .     A
C2035  H2092   1.079   .     S
C2035  C629    1.417   1_556 S
C2036  H2093   1.079   .     S
C2036  N2098   1.365   .     A
C2037  C2038   1.403   .     A
C2037  C2043   1.402   .     A
C2037  C1908   1.487   1_655 S
C2038  H2094   1.081   .     S
C2038  C2039   1.399   .     A
C2039  C2041   1.397   .     A
C2040  O2102   1.297   .     A
C2040  O2100   1.292   .     A
C2041  C2042   1.396   .     A
C2041  H2096   1.082   .     S
C2042  H2072   1.077   .     S
C2042  C2043   1.395   .     A
C2043  H2073   1.081   .     S
C2044  C2049   1.403   .     A
C2044  C2045   1.402   .     A
C2045  H2074   1.081   .     S
C2045  C2046   1.395   .     A
C2046  H2075   1.077   .     S
C2046  C2047   1.396   .     A
C2047  C2048   1.397   .     A
C2047  H2076   1.082   .     S
C2048  C2049   1.399   .     A
C2048  H673    1.081   1_556 S
C2049  H2078   1.081   .     S
C2050  C2056   1.401   .     A
C2050  C2068   1.474   .     S
C2050  C2052   1.402   .     A
C2051  O2105   1.293   .     A
C2051  O2103   1.284   .     A
C2051  C2064   1.442   .     S
C2052  C2053   1.398   .     A
C2052  H2079   1.081   .     S
C2053  C2054   1.398   .     A
C2053  H2080   1.082   .     S
C2054  C2055   1.397   .     A
C2055  C2056   1.396   .     A
C2056  H2084   1.083   .     S
C2057  C2058   1.401   .     A
C2057  C2063   1.402   .     A
C2058  C2059   1.396   .     A
C2058  H2085   1.083   .     S
C2059  C2060   1.397   .     A
C2059  H682    1.078   1_556 S
C2060  C2061   1.398   .     A
C2060  H683    1.080   1_556 S
C2061  H2088   1.082   .     S
C2061  C2063   1.398   .     A
C2062  C2065   1.442   .     S
C2062  O2106   1.293   .     A
C2062  O2104   1.284   .     A
C2063  H2089   1.081   .     S
C2065  C1888   1.487   1_655 S
C2065  C1908   1.360   1_655 S
C2066  H2071   1.081   .     S
C2067  H2082   1.081   .     S
C2067  C1562   1.389   1_565 S
C2068  C1598   1.389   1_565 S
Cu2069 Cu2070  2.683   .     S
Cu2069 O2102   1.974   .     S
Cu2069 O2099   1.979   .     S
Cu2069 O2106   1.976   .     S
Cu2069 O2103   1.976   .     S
Cu2069 N2097   2.016   .     S
Cu2070 N2098   2.016   .     S
Cu2070 O2100   1.979   .     S
Cu2070 O2101   1.974   .     S
Cu2070 O2104   1.976   .     S
Cu2070 O2105   1.976   .     S
H2081  C650    1.080   1_556 S
H2083  C651    1.078   1_556 S
H2095  C635    1.081   1_556 S
