data_str_m3_o1_o2_pcu_sym.124
_audit_creation_date              2020-01-03
_audit_creation_method            'Materials Studio'
_symmetry_space_group_name_H-M    'P1'
_symmetry_Int_Tables_number       1
_symmetry_cell_setting            triclinic
loop_
_symmetry_equiv_pos_as_xyz
  x,y,z
_cell_length_a                    32.1543
_cell_length_b                    29.5073
_cell_length_c                    29.9640
_cell_angle_alpha                 90.0060
_cell_angle_beta                  90.1196
_cell_angle_gamma                 90.0110
loop_
_atom_site_label
_atom_site_type_symbol
_atom_site_fract_x
_atom_site_fract_y
_atom_site_fract_z
_atom_site_U_iso_or_equiv
_atom_site_adp_type
_atom_site_occupancy
C1     C     0.08662   0.16666   0.24997   0.00000  Uiso   1.00
C2     C     0.24672   0.16667   0.25003   0.00000  Uiso   1.00
C3     C     0.16665   0.16666   0.16393   0.00000  Uiso   1.00
C4     C     0.16670   0.16667   0.33607   0.00000  Uiso   1.00
C5     C     0.19309   0.02400   0.27715   0.00000  Uiso   1.00
C6     C     0.14024   0.30934   0.22285   0.00000  Uiso   1.00
C7     C     0.14024   0.02398   0.22285   0.00000  Uiso   1.00
C8     C     0.19309   0.30935   0.27715   0.00000  Uiso   1.00
C9     C     0.02131   0.12622   0.25842   0.00000  Uiso   1.00
C10    C     0.31202   0.20712   0.24158   0.00000  Uiso   1.00
C11    C     0.31204   0.12623   0.25847   0.00000  Uiso   1.00
C12    C     0.02129   0.20711   0.24153   0.00000  Uiso   1.00
C13    C     0.18795   0.20120   0.04690   0.00000  Uiso   1.00
C14    C     0.18793   0.13199   0.45318   0.00000  Uiso   1.00
C15    C     0.14568   0.20125   0.45315   0.00000  Uiso   1.00
C16    C     0.14563   0.13198   0.04678   0.00000  Uiso   1.00
C17    C     0.18729   0.20124   0.09332   0.00000  Uiso   1.00
C18    C     0.18732   0.13202   0.40675   0.00000  Uiso   1.00
C19    C     0.14624   0.20128   0.40673   0.00000  Uiso   1.00
C20    C     0.14615   0.13201   0.09320   0.00000  Uiso   1.00
C21    C     0.16668   0.16665   0.11607   0.00000  Uiso   1.00
C22    C     0.16676   0.16666   0.38393   0.00000  Uiso   1.00
C23    C     0.16682   0.16658   0.02409   0.00000  Uiso   1.00
C24    C     0.16681   0.16660   0.47591   0.00000  Uiso   1.00
C25    C     0.29086   0.16667   0.25004   0.00000  Uiso   1.00
C26    C     0.04247   0.16666   0.24996   0.00000  Uiso   1.00
H27    H     0.21421   0.04221   0.29886   0.00000  Uiso   1.00
H28    H     0.11911   0.29113   0.20116   0.00000  Uiso   1.00
H29    H     0.11913   0.04217   0.20114   0.00000  Uiso   1.00
H30    H     0.21422   0.29117   0.29884   0.00000  Uiso   1.00
H31    H     0.20342   0.22761   0.11166   0.00000  Uiso   1.00
H32    H     0.20343   0.10565   0.38846   0.00000  Uiso   1.00
H33    H     0.13011   0.22766   0.38843   0.00000  Uiso   1.00
H34    H     0.12998   0.10565   0.11146   0.00000  Uiso   1.00
H35    H     0.03754   0.09478   0.26525   0.00000  Uiso   1.00
H36    H     0.29579   0.23855   0.23474   0.00000  Uiso   1.00
H37    H     0.29583   0.09480   0.26535   0.00000  Uiso   1.00
H38    H     0.03751   0.23853   0.23466   0.00000  Uiso   1.00
N39    N     0.16667   0.28573   0.25000   0.00000  Uiso   1.00
N40    N     0.16667   0.04760   0.25000   0.00000  Uiso   1.00
O41    O     0.10559   0.20487   0.24999   0.00000  Uiso   1.00
O42    O     0.22774   0.12846   0.25000   0.00000  Uiso   1.00
O43    O     0.22774   0.20487   0.25000   0.00000  Uiso   1.00
O44    O     0.10559   0.12846   0.24999   0.00000  Uiso   1.00
O45    O     0.16666   0.20489   0.18453   0.00000  Uiso   1.00
O46    O     0.16667   0.12845   0.31547   0.00000  Uiso   1.00
O47    O     0.16667   0.20489   0.31547   0.00000  Uiso   1.00
O48    O     0.16666   0.12845   0.18453   0.00000  Uiso   1.00
Zn49   Zn    0.16667   0.21771   0.25000   0.00000  Uiso   1.00
Zn50   Zn    0.16667   0.11563   0.25000   0.00000  Uiso   1.00
O51    O     0.20910   0.23404   0.02311   0.00000  Uiso   1.00
H52    H     0.22208   0.25568   0.04431   0.00000  Uiso   1.00
O53    O     0.20902   0.09910   0.47704   0.00000  Uiso   1.00
H54    H     0.22201   0.07750   0.45589   0.00000  Uiso   1.00
O55    O     0.12460   0.23410   0.47699   0.00000  Uiso   1.00
H56    H     0.11160   0.25574   0.45583   0.00000  Uiso   1.00
O57    O     0.12454   0.09911   0.02287   0.00000  Uiso   1.00
H58    H     0.11149   0.07751   0.04399   0.00000  Uiso   1.00
C59    C     0.41995   0.16666   0.24997   0.00000  Uiso   1.00
C60    C     0.58005   0.16667   0.25003   0.00000  Uiso   1.00
C61    C     0.49998   0.16666   0.16393   0.00000  Uiso   1.00
C62    C     0.50004   0.16667   0.33607   0.00000  Uiso   1.00
C63    C     0.52643   0.02400   0.27715   0.00000  Uiso   1.00
C64    C     0.47357   0.30934   0.22285   0.00000  Uiso   1.00
C65    C     0.47358   0.02398   0.22285   0.00000  Uiso   1.00
C66    C     0.52643   0.30935   0.27715   0.00000  Uiso   1.00
C67    C     0.35464   0.12622   0.25842   0.00000  Uiso   1.00
C68    C     0.64535   0.20712   0.24158   0.00000  Uiso   1.00
C69    C     0.64537   0.12623   0.25847   0.00000  Uiso   1.00
C70    C     0.35463   0.20711   0.24153   0.00000  Uiso   1.00
C71    C     0.52128   0.20120   0.04690   0.00000  Uiso   1.00
C72    C     0.52126   0.13199   0.45318   0.00000  Uiso   1.00
C73    C     0.47901   0.20125   0.45315   0.00000  Uiso   1.00
C74    C     0.47896   0.13198   0.04678   0.00000  Uiso   1.00
C75    C     0.52063   0.20124   0.09332   0.00000  Uiso   1.00
C76    C     0.52065   0.13202   0.40675   0.00000  Uiso   1.00
C77    C     0.47957   0.20128   0.40673   0.00000  Uiso   1.00
C78    C     0.47948   0.13201   0.09320   0.00000  Uiso   1.00
C79    C     0.50002   0.16665   0.11607   0.00000  Uiso   1.00
C80    C     0.50009   0.16666   0.38393   0.00000  Uiso   1.00
C81    C     0.50015   0.16658   0.02409   0.00000  Uiso   1.00
C82    C     0.50015   0.16660   0.47591   0.00000  Uiso   1.00
C83    C     0.62419   0.16667   0.25004   0.00000  Uiso   1.00
C84    C     0.37581   0.16666   0.24996   0.00000  Uiso   1.00
H85    H     0.54754   0.04221   0.29886   0.00000  Uiso   1.00
H86    H     0.45245   0.29113   0.20116   0.00000  Uiso   1.00
H87    H     0.45246   0.04217   0.20114   0.00000  Uiso   1.00
H88    H     0.54755   0.29117   0.29884   0.00000  Uiso   1.00
H89    H     0.53675   0.22761   0.11166   0.00000  Uiso   1.00
H90    H     0.53676   0.10565   0.38846   0.00000  Uiso   1.00
H91    H     0.46344   0.22766   0.38843   0.00000  Uiso   1.00
H92    H     0.46331   0.10565   0.11146   0.00000  Uiso   1.00
H93    H     0.37088   0.09478   0.26525   0.00000  Uiso   1.00
H94    H     0.62912   0.23855   0.23474   0.00000  Uiso   1.00
H95    H     0.62916   0.09480   0.26535   0.00000  Uiso   1.00
H96    H     0.37084   0.23853   0.23466   0.00000  Uiso   1.00
N97    N     0.50000   0.28573   0.25000   0.00000  Uiso   1.00
N98    N     0.50000   0.04760   0.25000   0.00000  Uiso   1.00
O99    O     0.43892   0.20487   0.24999   0.00000  Uiso   1.00
O100   O     0.56108   0.12846   0.25000   0.00000  Uiso   1.00
O101   O     0.56108   0.20487   0.25000   0.00000  Uiso   1.00
O102   O     0.43892   0.12846   0.24999   0.00000  Uiso   1.00
O103   O     0.50000   0.20489   0.18453   0.00000  Uiso   1.00
O104   O     0.50000   0.12845   0.31547   0.00000  Uiso   1.00
O105   O     0.50000   0.20489   0.31547   0.00000  Uiso   1.00
O106   O     0.50000   0.12845   0.18453   0.00000  Uiso   1.00
Zn107  Zn    0.50000   0.21771   0.25000   0.00000  Uiso   1.00
Zn108  Zn    0.50000   0.11563   0.25000   0.00000  Uiso   1.00
O109   O     0.54243   0.23404   0.02311   0.00000  Uiso   1.00
H110   H     0.55541   0.25568   0.04431   0.00000  Uiso   1.00
O111   O     0.54236   0.09910   0.47704   0.00000  Uiso   1.00
H112   H     0.55534   0.07750   0.45589   0.00000  Uiso   1.00
O113   O     0.45793   0.23410   0.47699   0.00000  Uiso   1.00
H114   H     0.44493   0.25574   0.45583   0.00000  Uiso   1.00
O115   O     0.45787   0.09911   0.02287   0.00000  Uiso   1.00
H116   H     0.44483   0.07751   0.04399   0.00000  Uiso   1.00
C117   C     0.75328   0.16666   0.24997   0.00000  Uiso   1.00
C118   C     0.91338   0.16667   0.25003   0.00000  Uiso   1.00
C119   C     0.83331   0.16666   0.16393   0.00000  Uiso   1.00
C120   C     0.83337   0.16667   0.33607   0.00000  Uiso   1.00
C121   C     0.85976   0.02400   0.27715   0.00000  Uiso   1.00
C122   C     0.80690   0.30934   0.22285   0.00000  Uiso   1.00
C123   C     0.80691   0.02398   0.22285   0.00000  Uiso   1.00
C124   C     0.85976   0.30935   0.27715   0.00000  Uiso   1.00
C125   C     0.68798   0.12622   0.25842   0.00000  Uiso   1.00
C126   C     0.97869   0.20712   0.24158   0.00000  Uiso   1.00
C127   C     0.97871   0.12623   0.25847   0.00000  Uiso   1.00
C128   C     0.68796   0.20711   0.24153   0.00000  Uiso   1.00
C129   C     0.85462   0.20120   0.04690   0.00000  Uiso   1.00
C130   C     0.85460   0.13199   0.45318   0.00000  Uiso   1.00
C131   C     0.81234   0.20125   0.45315   0.00000  Uiso   1.00
C132   C     0.81229   0.13198   0.04678   0.00000  Uiso   1.00
C133   C     0.85396   0.20124   0.09332   0.00000  Uiso   1.00
C134   C     0.85399   0.13202   0.40675   0.00000  Uiso   1.00
C135   C     0.81291   0.20128   0.40673   0.00000  Uiso   1.00
C136   C     0.81281   0.13201   0.09320   0.00000  Uiso   1.00
C137   C     0.83335   0.16665   0.11607   0.00000  Uiso   1.00
C138   C     0.83343   0.16666   0.38393   0.00000  Uiso   1.00
C139   C     0.83348   0.16658   0.02409   0.00000  Uiso   1.00
C140   C     0.83348   0.16660   0.47591   0.00000  Uiso   1.00
C141   C     0.95753   0.16667   0.25004   0.00000  Uiso   1.00
C142   C     0.70914   0.16666   0.24996   0.00000  Uiso   1.00
H143   H     0.88087   0.04221   0.29886   0.00000  Uiso   1.00
H144   H     0.78578   0.29113   0.20116   0.00000  Uiso   1.00
H145   H     0.78580   0.04217   0.20114   0.00000  Uiso   1.00
H146   H     0.88088   0.29117   0.29884   0.00000  Uiso   1.00
H147   H     0.87009   0.22761   0.11166   0.00000  Uiso   1.00
H148   H     0.87009   0.10565   0.38846   0.00000  Uiso   1.00
H149   H     0.79677   0.22766   0.38843   0.00000  Uiso   1.00
H150   H     0.79665   0.10565   0.11146   0.00000  Uiso   1.00
H151   H     0.70421   0.09478   0.26525   0.00000  Uiso   1.00
H152   H     0.96246   0.23855   0.23474   0.00000  Uiso   1.00
H153   H     0.96249   0.09480   0.26535   0.00000  Uiso   1.00
H154   H     0.70417   0.23853   0.23466   0.00000  Uiso   1.00
N155   N     0.83333   0.28573   0.25000   0.00000  Uiso   1.00
N156   N     0.83333   0.04760   0.25000   0.00000  Uiso   1.00
O157   O     0.77226   0.20487   0.24999   0.00000  Uiso   1.00
O158   O     0.89441   0.12846   0.25000   0.00000  Uiso   1.00
O159   O     0.89441   0.20487   0.25000   0.00000  Uiso   1.00
O160   O     0.77226   0.12846   0.24999   0.00000  Uiso   1.00
O161   O     0.83333   0.20489   0.18453   0.00000  Uiso   1.00
O162   O     0.83334   0.12845   0.31547   0.00000  Uiso   1.00
O163   O     0.83334   0.20489   0.31547   0.00000  Uiso   1.00
O164   O     0.83333   0.12845   0.18453   0.00000  Uiso   1.00
Zn165  Zn    0.83333   0.21771   0.25000   0.00000  Uiso   1.00
Zn166  Zn    0.83333   0.11563   0.25000   0.00000  Uiso   1.00
O167   O     0.87577   0.23404   0.02311   0.00000  Uiso   1.00
H168   H     0.88874   0.25568   0.04431   0.00000  Uiso   1.00
O169   O     0.87569   0.09910   0.47704   0.00000  Uiso   1.00
H170   H     0.88868   0.07750   0.45589   0.00000  Uiso   1.00
O171   O     0.79127   0.23410   0.47699   0.00000  Uiso   1.00
H172   H     0.77827   0.25574   0.45583   0.00000  Uiso   1.00
O173   O     0.79121   0.09911   0.02287   0.00000  Uiso   1.00
H174   H     0.77816   0.07751   0.04399   0.00000  Uiso   1.00
C175   C     0.08662   0.50000   0.24997   0.00000  Uiso   1.00
C176   C     0.24672   0.50000   0.25003   0.00000  Uiso   1.00
C177   C     0.16665   0.50000   0.16393   0.00000  Uiso   1.00
C178   C     0.16670   0.50000   0.33607   0.00000  Uiso   1.00
C179   C     0.19309   0.35733   0.27715   0.00000  Uiso   1.00
C180   C     0.14024   0.64267   0.22285   0.00000  Uiso   1.00
C181   C     0.14024   0.35732   0.22285   0.00000  Uiso   1.00
C182   C     0.19309   0.64269   0.27715   0.00000  Uiso   1.00
C183   C     0.02131   0.45955   0.25842   0.00000  Uiso   1.00
C184   C     0.31202   0.54045   0.24158   0.00000  Uiso   1.00
C185   C     0.31204   0.45956   0.25847   0.00000  Uiso   1.00
C186   C     0.02129   0.54044   0.24153   0.00000  Uiso   1.00
C187   C     0.18795   0.53453   0.04690   0.00000  Uiso   1.00
C188   C     0.18793   0.46533   0.45318   0.00000  Uiso   1.00
C189   C     0.14568   0.53458   0.45315   0.00000  Uiso   1.00
C190   C     0.14563   0.46531   0.04678   0.00000  Uiso   1.00
C191   C     0.18729   0.53457   0.09332   0.00000  Uiso   1.00
C192   C     0.18732   0.46535   0.40675   0.00000  Uiso   1.00
C193   C     0.14624   0.53461   0.40673   0.00000  Uiso   1.00
C194   C     0.14615   0.46534   0.09320   0.00000  Uiso   1.00
C195   C     0.16668   0.49998   0.11607   0.00000  Uiso   1.00
C196   C     0.16676   0.49999   0.38393   0.00000  Uiso   1.00
C197   C     0.16682   0.49991   0.02409   0.00000  Uiso   1.00
C198   C     0.16681   0.49994   0.47591   0.00000  Uiso   1.00
C199   C     0.29086   0.50001   0.25004   0.00000  Uiso   1.00
C200   C     0.04247   0.49999   0.24996   0.00000  Uiso   1.00
H201   H     0.21421   0.37554   0.29886   0.00000  Uiso   1.00
H202   H     0.11911   0.62447   0.20116   0.00000  Uiso   1.00
H203   H     0.11913   0.37551   0.20114   0.00000  Uiso   1.00
H204   H     0.21422   0.62450   0.29884   0.00000  Uiso   1.00
H205   H     0.20342   0.56095   0.11166   0.00000  Uiso   1.00
H206   H     0.20343   0.43898   0.38846   0.00000  Uiso   1.00
H207   H     0.13011   0.56100   0.38843   0.00000  Uiso   1.00
H208   H     0.12998   0.43899   0.11146   0.00000  Uiso   1.00
H209   H     0.03754   0.42812   0.26525   0.00000  Uiso   1.00
H210   H     0.29579   0.57188   0.23474   0.00000  Uiso   1.00
H211   H     0.29583   0.42814   0.26535   0.00000  Uiso   1.00
H212   H     0.03751   0.57187   0.23466   0.00000  Uiso   1.00
N213   N     0.16667   0.61907   0.25000   0.00000  Uiso   1.00
N214   N     0.16667   0.38093   0.25000   0.00000  Uiso   1.00
O215   O     0.10559   0.53821   0.24999   0.00000  Uiso   1.00
O216   O     0.22774   0.46179   0.25000   0.00000  Uiso   1.00
O217   O     0.22774   0.53821   0.25000   0.00000  Uiso   1.00
O218   O     0.10559   0.46179   0.24999   0.00000  Uiso   1.00
O219   O     0.16666   0.53822   0.18453   0.00000  Uiso   1.00
O220   O     0.16667   0.46178   0.31547   0.00000  Uiso   1.00
O221   O     0.16667   0.53822   0.31547   0.00000  Uiso   1.00
O222   O     0.16666   0.46178   0.18453   0.00000  Uiso   1.00
Zn223  Zn    0.16667   0.55104   0.25000   0.00000  Uiso   1.00
Zn224  Zn    0.16667   0.44896   0.25000   0.00000  Uiso   1.00
O225   O     0.20910   0.56737   0.02311   0.00000  Uiso   1.00
H226   H     0.22208   0.58901   0.04431   0.00000  Uiso   1.00
O227   O     0.20902   0.43244   0.47704   0.00000  Uiso   1.00
H228   H     0.22201   0.41083   0.45589   0.00000  Uiso   1.00
O229   O     0.12460   0.56743   0.47699   0.00000  Uiso   1.00
H230   H     0.11160   0.58907   0.45583   0.00000  Uiso   1.00
O231   O     0.12454   0.43244   0.02287   0.00000  Uiso   1.00
H232   H     0.11149   0.41085   0.04399   0.00000  Uiso   1.00
C233   C     0.41995   0.50000   0.24997   0.00000  Uiso   1.00
C234   C     0.58005   0.50000   0.25003   0.00000  Uiso   1.00
C235   C     0.49998   0.50000   0.16393   0.00000  Uiso   1.00
C236   C     0.50004   0.50000   0.33607   0.00000  Uiso   1.00
C237   C     0.52643   0.35733   0.27715   0.00000  Uiso   1.00
C238   C     0.47357   0.64267   0.22285   0.00000  Uiso   1.00
C239   C     0.47358   0.35732   0.22285   0.00000  Uiso   1.00
C240   C     0.52643   0.64269   0.27715   0.00000  Uiso   1.00
C241   C     0.35464   0.45955   0.25842   0.00000  Uiso   1.00
C242   C     0.64535   0.54045   0.24158   0.00000  Uiso   1.00
C243   C     0.64537   0.45956   0.25847   0.00000  Uiso   1.00
C244   C     0.35463   0.54044   0.24153   0.00000  Uiso   1.00
C245   C     0.52128   0.53453   0.04690   0.00000  Uiso   1.00
C246   C     0.52126   0.46533   0.45318   0.00000  Uiso   1.00
C247   C     0.47901   0.53458   0.45315   0.00000  Uiso   1.00
C248   C     0.47896   0.46531   0.04678   0.00000  Uiso   1.00
C249   C     0.52063   0.53457   0.09332   0.00000  Uiso   1.00
C250   C     0.52065   0.46535   0.40675   0.00000  Uiso   1.00
C251   C     0.47957   0.53461   0.40673   0.00000  Uiso   1.00
C252   C     0.47948   0.46534   0.09320   0.00000  Uiso   1.00
C253   C     0.50002   0.49998   0.11607   0.00000  Uiso   1.00
C254   C     0.50009   0.49999   0.38393   0.00000  Uiso   1.00
C255   C     0.50015   0.49991   0.02409   0.00000  Uiso   1.00
C256   C     0.50015   0.49994   0.47591   0.00000  Uiso   1.00
C257   C     0.62419   0.50001   0.25004   0.00000  Uiso   1.00
C258   C     0.37581   0.49999   0.24996   0.00000  Uiso   1.00
H259   H     0.54754   0.37554   0.29886   0.00000  Uiso   1.00
H260   H     0.45245   0.62447   0.20116   0.00000  Uiso   1.00
H261   H     0.45246   0.37551   0.20114   0.00000  Uiso   1.00
H262   H     0.54755   0.62450   0.29884   0.00000  Uiso   1.00
H263   H     0.53675   0.56095   0.11166   0.00000  Uiso   1.00
H264   H     0.53676   0.43898   0.38846   0.00000  Uiso   1.00
H265   H     0.46344   0.56100   0.38843   0.00000  Uiso   1.00
H266   H     0.46331   0.43899   0.11146   0.00000  Uiso   1.00
H267   H     0.37088   0.42812   0.26525   0.00000  Uiso   1.00
H268   H     0.62912   0.57188   0.23474   0.00000  Uiso   1.00
H269   H     0.62916   0.42814   0.26535   0.00000  Uiso   1.00
H270   H     0.37084   0.57187   0.23466   0.00000  Uiso   1.00
N271   N     0.50000   0.61907   0.25000   0.00000  Uiso   1.00
N272   N     0.50000   0.38093   0.25000   0.00000  Uiso   1.00
O273   O     0.43892   0.53821   0.24999   0.00000  Uiso   1.00
O274   O     0.56108   0.46179   0.25000   0.00000  Uiso   1.00
O275   O     0.56108   0.53821   0.25000   0.00000  Uiso   1.00
O276   O     0.43892   0.46179   0.24999   0.00000  Uiso   1.00
O277   O     0.50000   0.53822   0.18453   0.00000  Uiso   1.00
O278   O     0.50000   0.46178   0.31547   0.00000  Uiso   1.00
O279   O     0.50000   0.53822   0.31547   0.00000  Uiso   1.00
O280   O     0.50000   0.46178   0.18453   0.00000  Uiso   1.00
Zn281  Zn    0.50000   0.55104   0.25000   0.00000  Uiso   1.00
Zn282  Zn    0.50000   0.44896   0.25000   0.00000  Uiso   1.00
O283   O     0.54243   0.56737   0.02311   0.00000  Uiso   1.00
H284   H     0.55541   0.58901   0.04431   0.00000  Uiso   1.00
O285   O     0.54236   0.43244   0.47704   0.00000  Uiso   1.00
H286   H     0.55534   0.41083   0.45589   0.00000  Uiso   1.00
O287   O     0.45793   0.56743   0.47699   0.00000  Uiso   1.00
H288   H     0.44493   0.58907   0.45583   0.00000  Uiso   1.00
O289   O     0.45787   0.43244   0.02287   0.00000  Uiso   1.00
H290   H     0.44483   0.41085   0.04399   0.00000  Uiso   1.00
C291   C     0.75328   0.50000   0.24997   0.00000  Uiso   1.00
C292   C     0.91338   0.50000   0.25003   0.00000  Uiso   1.00
C293   C     0.83331   0.50000   0.16393   0.00000  Uiso   1.00
C294   C     0.83337   0.50000   0.33607   0.00000  Uiso   1.00
C295   C     0.85976   0.35733   0.27715   0.00000  Uiso   1.00
C296   C     0.80690   0.64267   0.22285   0.00000  Uiso   1.00
C297   C     0.80691   0.35732   0.22285   0.00000  Uiso   1.00
C298   C     0.85976   0.64269   0.27715   0.00000  Uiso   1.00
C299   C     0.68798   0.45955   0.25842   0.00000  Uiso   1.00
C300   C     0.97869   0.54045   0.24158   0.00000  Uiso   1.00
C301   C     0.97871   0.45956   0.25847   0.00000  Uiso   1.00
C302   C     0.68796   0.54044   0.24153   0.00000  Uiso   1.00
C303   C     0.85462   0.53453   0.04690   0.00000  Uiso   1.00
C304   C     0.85460   0.46533   0.45318   0.00000  Uiso   1.00
C305   C     0.81234   0.53458   0.45315   0.00000  Uiso   1.00
C306   C     0.81229   0.46531   0.04678   0.00000  Uiso   1.00
C307   C     0.85396   0.53457   0.09332   0.00000  Uiso   1.00
C308   C     0.85399   0.46535   0.40675   0.00000  Uiso   1.00
C309   C     0.81291   0.53461   0.40673   0.00000  Uiso   1.00
C310   C     0.81281   0.46534   0.09320   0.00000  Uiso   1.00
C311   C     0.83335   0.49998   0.11607   0.00000  Uiso   1.00
C312   C     0.83343   0.49999   0.38393   0.00000  Uiso   1.00
C313   C     0.83348   0.49991   0.02409   0.00000  Uiso   1.00
C314   C     0.83348   0.49994   0.47591   0.00000  Uiso   1.00
C315   C     0.95753   0.50001   0.25004   0.00000  Uiso   1.00
C316   C     0.70914   0.49999   0.24996   0.00000  Uiso   1.00
H317   H     0.88087   0.37554   0.29886   0.00000  Uiso   1.00
H318   H     0.78578   0.62447   0.20116   0.00000  Uiso   1.00
H319   H     0.78580   0.37551   0.20114   0.00000  Uiso   1.00
H320   H     0.88088   0.62450   0.29884   0.00000  Uiso   1.00
H321   H     0.87009   0.56095   0.11166   0.00000  Uiso   1.00
H322   H     0.87009   0.43898   0.38846   0.00000  Uiso   1.00
H323   H     0.79677   0.56100   0.38843   0.00000  Uiso   1.00
H324   H     0.79665   0.43899   0.11146   0.00000  Uiso   1.00
H325   H     0.70421   0.42812   0.26525   0.00000  Uiso   1.00
H326   H     0.96246   0.57188   0.23474   0.00000  Uiso   1.00
H327   H     0.96249   0.42814   0.26535   0.00000  Uiso   1.00
H328   H     0.70417   0.57187   0.23466   0.00000  Uiso   1.00
N329   N     0.83333   0.61907   0.25000   0.00000  Uiso   1.00
N330   N     0.83333   0.38093   0.25000   0.00000  Uiso   1.00
O331   O     0.77226   0.53821   0.24999   0.00000  Uiso   1.00
O332   O     0.89441   0.46179   0.25000   0.00000  Uiso   1.00
O333   O     0.89441   0.53821   0.25000   0.00000  Uiso   1.00
O334   O     0.77226   0.46179   0.24999   0.00000  Uiso   1.00
O335   O     0.83333   0.53822   0.18453   0.00000  Uiso   1.00
O336   O     0.83334   0.46178   0.31547   0.00000  Uiso   1.00
O337   O     0.83334   0.53822   0.31547   0.00000  Uiso   1.00
O338   O     0.83333   0.46178   0.18453   0.00000  Uiso   1.00
Zn339  Zn    0.83333   0.55104   0.25000   0.00000  Uiso   1.00
Zn340  Zn    0.83333   0.44896   0.25000   0.00000  Uiso   1.00
O341   O     0.87577   0.56737   0.02311   0.00000  Uiso   1.00
H342   H     0.88874   0.58901   0.04431   0.00000  Uiso   1.00
O343   O     0.87569   0.43244   0.47704   0.00000  Uiso   1.00
H344   H     0.88868   0.41083   0.45589   0.00000  Uiso   1.00
O345   O     0.79127   0.56743   0.47699   0.00000  Uiso   1.00
H346   H     0.77827   0.58907   0.45583   0.00000  Uiso   1.00
O347   O     0.79121   0.43244   0.02287   0.00000  Uiso   1.00
H348   H     0.77816   0.41085   0.04399   0.00000  Uiso   1.00
C349   C     0.08662   0.83333   0.24997   0.00000  Uiso   1.00
C350   C     0.24672   0.83334   0.25003   0.00000  Uiso   1.00
C351   C     0.16665   0.83333   0.16393   0.00000  Uiso   1.00
C352   C     0.16670   0.83333   0.33607   0.00000  Uiso   1.00
C353   C     0.19309   0.69067   0.27715   0.00000  Uiso   1.00
C354   C     0.14024   0.97600   0.22285   0.00000  Uiso   1.00
C355   C     0.14024   0.69065   0.22285   0.00000  Uiso   1.00
C356   C     0.19309   0.97602   0.27715   0.00000  Uiso   1.00
C357   C     0.02131   0.79288   0.25842   0.00000  Uiso   1.00
C358   C     0.31202   0.87378   0.24158   0.00000  Uiso   1.00
C359   C     0.31204   0.79289   0.25847   0.00000  Uiso   1.00
C360   C     0.02129   0.87377   0.24153   0.00000  Uiso   1.00
C361   C     0.18795   0.86787   0.04690   0.00000  Uiso   1.00
C362   C     0.18793   0.79866   0.45318   0.00000  Uiso   1.00
C363   C     0.14568   0.86791   0.45315   0.00000  Uiso   1.00
C364   C     0.14563   0.79864   0.04678   0.00000  Uiso   1.00
C365   C     0.18729   0.86790   0.09332   0.00000  Uiso   1.00
C366   C     0.18732   0.79869   0.40675   0.00000  Uiso   1.00
C367   C     0.14624   0.86794   0.40673   0.00000  Uiso   1.00
C368   C     0.14615   0.79868   0.09320   0.00000  Uiso   1.00
C369   C     0.16668   0.83331   0.11607   0.00000  Uiso   1.00
C370   C     0.16676   0.83333   0.38393   0.00000  Uiso   1.00
C371   C     0.16682   0.83324   0.02409   0.00000  Uiso   1.00
C372   C     0.16681   0.83327   0.47591   0.00000  Uiso   1.00
C373   C     0.29086   0.83334   0.25004   0.00000  Uiso   1.00
C374   C     0.04247   0.83333   0.24996   0.00000  Uiso   1.00
H375   H     0.21421   0.70887   0.29886   0.00000  Uiso   1.00
H376   H     0.11911   0.95780   0.20116   0.00000  Uiso   1.00
H377   H     0.11913   0.70884   0.20114   0.00000  Uiso   1.00
H378   H     0.21422   0.95783   0.29884   0.00000  Uiso   1.00
H379   H     0.20342   0.89428   0.11166   0.00000  Uiso   1.00
H380   H     0.20343   0.77232   0.38846   0.00000  Uiso   1.00
H381   H     0.13011   0.89433   0.38843   0.00000  Uiso   1.00
H382   H     0.12998   0.77232   0.11146   0.00000  Uiso   1.00
H383   H     0.03754   0.76145   0.26525   0.00000  Uiso   1.00
H384   H     0.29579   0.90522   0.23474   0.00000  Uiso   1.00
H385   H     0.29583   0.76147   0.26535   0.00000  Uiso   1.00
H386   H     0.03751   0.90520   0.23466   0.00000  Uiso   1.00
N387   N     0.16667   0.95240   0.25000   0.00000  Uiso   1.00
N388   N     0.16667   0.71427   0.25000   0.00000  Uiso   1.00
O389   O     0.10559   0.87154   0.24999   0.00000  Uiso   1.00
O390   O     0.22774   0.79513   0.25000   0.00000  Uiso   1.00
O391   O     0.22774   0.87154   0.25000   0.00000  Uiso   1.00
O392   O     0.10559   0.79513   0.24999   0.00000  Uiso   1.00
O393   O     0.16666   0.87155   0.18453   0.00000  Uiso   1.00
O394   O     0.16667   0.79511   0.31547   0.00000  Uiso   1.00
O395   O     0.16667   0.87155   0.31547   0.00000  Uiso   1.00
O396   O     0.16666   0.79511   0.18453   0.00000  Uiso   1.00
Zn397  Zn    0.16667   0.88437   0.25000   0.00000  Uiso   1.00
Zn398  Zn    0.16667   0.78229   0.25000   0.00000  Uiso   1.00
O399   O     0.20910   0.90071   0.02311   0.00000  Uiso   1.00
H400   H     0.22208   0.92234   0.04431   0.00000  Uiso   1.00
O401   O     0.20902   0.76577   0.47704   0.00000  Uiso   1.00
H402   H     0.22201   0.74416   0.45589   0.00000  Uiso   1.00
O403   O     0.12460   0.90077   0.47699   0.00000  Uiso   1.00
H404   H     0.11160   0.92241   0.45583   0.00000  Uiso   1.00
O405   O     0.12454   0.76578   0.02287   0.00000  Uiso   1.00
H406   H     0.11149   0.74418   0.04399   0.00000  Uiso   1.00
C407   C     0.41995   0.83333   0.24997   0.00000  Uiso   1.00
C408   C     0.58005   0.83334   0.25003   0.00000  Uiso   1.00
C409   C     0.49998   0.83333   0.16393   0.00000  Uiso   1.00
C410   C     0.50004   0.83333   0.33607   0.00000  Uiso   1.00
C411   C     0.52643   0.69067   0.27715   0.00000  Uiso   1.00
C412   C     0.47357   0.97600   0.22285   0.00000  Uiso   1.00
C413   C     0.47358   0.69065   0.22285   0.00000  Uiso   1.00
C414   C     0.52643   0.97602   0.27715   0.00000  Uiso   1.00
C415   C     0.35464   0.79288   0.25842   0.00000  Uiso   1.00
C416   C     0.64535   0.87378   0.24158   0.00000  Uiso   1.00
C417   C     0.64537   0.79289   0.25847   0.00000  Uiso   1.00
C418   C     0.35463   0.87377   0.24153   0.00000  Uiso   1.00
C419   C     0.52128   0.86787   0.04690   0.00000  Uiso   1.00
C420   C     0.52126   0.79866   0.45318   0.00000  Uiso   1.00
C421   C     0.47901   0.86791   0.45315   0.00000  Uiso   1.00
C422   C     0.47896   0.79864   0.04678   0.00000  Uiso   1.00
C423   C     0.52063   0.86790   0.09332   0.00000  Uiso   1.00
C424   C     0.52065   0.79869   0.40675   0.00000  Uiso   1.00
C425   C     0.47957   0.86794   0.40673   0.00000  Uiso   1.00
C426   C     0.47948   0.79868   0.09320   0.00000  Uiso   1.00
C427   C     0.50002   0.83331   0.11607   0.00000  Uiso   1.00
C428   C     0.50009   0.83333   0.38393   0.00000  Uiso   1.00
C429   C     0.50015   0.83324   0.02409   0.00000  Uiso   1.00
C430   C     0.50015   0.83327   0.47591   0.00000  Uiso   1.00
C431   C     0.62419   0.83334   0.25004   0.00000  Uiso   1.00
C432   C     0.37581   0.83333   0.24996   0.00000  Uiso   1.00
H433   H     0.54754   0.70887   0.29886   0.00000  Uiso   1.00
H434   H     0.45245   0.95780   0.20116   0.00000  Uiso   1.00
H435   H     0.45246   0.70884   0.20114   0.00000  Uiso   1.00
H436   H     0.54755   0.95783   0.29884   0.00000  Uiso   1.00
H437   H     0.53675   0.89428   0.11166   0.00000  Uiso   1.00
H438   H     0.53676   0.77232   0.38846   0.00000  Uiso   1.00
H439   H     0.46344   0.89433   0.38843   0.00000  Uiso   1.00
H440   H     0.46331   0.77232   0.11146   0.00000  Uiso   1.00
H441   H     0.37088   0.76145   0.26525   0.00000  Uiso   1.00
H442   H     0.62912   0.90522   0.23474   0.00000  Uiso   1.00
H443   H     0.62916   0.76147   0.26535   0.00000  Uiso   1.00
H444   H     0.37084   0.90520   0.23466   0.00000  Uiso   1.00
N445   N     0.50000   0.95240   0.25000   0.00000  Uiso   1.00
N446   N     0.50000   0.71427   0.25000   0.00000  Uiso   1.00
O447   O     0.43892   0.87154   0.24999   0.00000  Uiso   1.00
O448   O     0.56108   0.79513   0.25000   0.00000  Uiso   1.00
O449   O     0.56108   0.87154   0.25000   0.00000  Uiso   1.00
O450   O     0.43892   0.79513   0.24999   0.00000  Uiso   1.00
O451   O     0.50000   0.87155   0.18453   0.00000  Uiso   1.00
O452   O     0.50000   0.79511   0.31547   0.00000  Uiso   1.00
O453   O     0.50000   0.87155   0.31547   0.00000  Uiso   1.00
O454   O     0.50000   0.79511   0.18453   0.00000  Uiso   1.00
Zn455  Zn    0.50000   0.88437   0.25000   0.00000  Uiso   1.00
Zn456  Zn    0.50000   0.78229   0.25000   0.00000  Uiso   1.00
O457   O     0.54243   0.90071   0.02311   0.00000  Uiso   1.00
H458   H     0.55541   0.92234   0.04431   0.00000  Uiso   1.00
O459   O     0.54236   0.76577   0.47704   0.00000  Uiso   1.00
H460   H     0.55534   0.74416   0.45589   0.00000  Uiso   1.00
O461   O     0.45793   0.90077   0.47699   0.00000  Uiso   1.00
H462   H     0.44493   0.92241   0.45583   0.00000  Uiso   1.00
O463   O     0.45787   0.76578   0.02287   0.00000  Uiso   1.00
H464   H     0.44483   0.74418   0.04399   0.00000  Uiso   1.00
C465   C     0.75328   0.83333   0.24997   0.00000  Uiso   1.00
C466   C     0.91338   0.83334   0.25003   0.00000  Uiso   1.00
C467   C     0.83331   0.83333   0.16393   0.00000  Uiso   1.00
C468   C     0.83337   0.83333   0.33607   0.00000  Uiso   1.00
C469   C     0.85976   0.69067   0.27715   0.00000  Uiso   1.00
C470   C     0.80690   0.97600   0.22285   0.00000  Uiso   1.00
C471   C     0.80691   0.69065   0.22285   0.00000  Uiso   1.00
C472   C     0.85976   0.97602   0.27715   0.00000  Uiso   1.00
C473   C     0.68798   0.79288   0.25842   0.00000  Uiso   1.00
C474   C     0.97869   0.87378   0.24158   0.00000  Uiso   1.00
C475   C     0.97871   0.79289   0.25847   0.00000  Uiso   1.00
C476   C     0.68796   0.87377   0.24153   0.00000  Uiso   1.00
C477   C     0.85462   0.86787   0.04690   0.00000  Uiso   1.00
C478   C     0.85460   0.79866   0.45318   0.00000  Uiso   1.00
C479   C     0.81234   0.86791   0.45315   0.00000  Uiso   1.00
C480   C     0.81229   0.79864   0.04678   0.00000  Uiso   1.00
C481   C     0.85396   0.86790   0.09332   0.00000  Uiso   1.00
C482   C     0.85399   0.79869   0.40675   0.00000  Uiso   1.00
C483   C     0.81291   0.86794   0.40673   0.00000  Uiso   1.00
C484   C     0.81281   0.79868   0.09320   0.00000  Uiso   1.00
C485   C     0.83335   0.83331   0.11607   0.00000  Uiso   1.00
C486   C     0.83343   0.83333   0.38393   0.00000  Uiso   1.00
C487   C     0.83348   0.83324   0.02409   0.00000  Uiso   1.00
C488   C     0.83348   0.83327   0.47591   0.00000  Uiso   1.00
C489   C     0.95753   0.83334   0.25004   0.00000  Uiso   1.00
C490   C     0.70914   0.83333   0.24996   0.00000  Uiso   1.00
H491   H     0.88087   0.70887   0.29886   0.00000  Uiso   1.00
H492   H     0.78578   0.95780   0.20116   0.00000  Uiso   1.00
H493   H     0.78580   0.70884   0.20114   0.00000  Uiso   1.00
H494   H     0.88088   0.95783   0.29884   0.00000  Uiso   1.00
H495   H     0.87009   0.89428   0.11166   0.00000  Uiso   1.00
H496   H     0.87009   0.77232   0.38846   0.00000  Uiso   1.00
H497   H     0.79677   0.89433   0.38843   0.00000  Uiso   1.00
H498   H     0.79665   0.77232   0.11146   0.00000  Uiso   1.00
H499   H     0.70421   0.76145   0.26525   0.00000  Uiso   1.00
H500   H     0.96246   0.90522   0.23474   0.00000  Uiso   1.00
H501   H     0.96249   0.76147   0.26535   0.00000  Uiso   1.00
H502   H     0.70417   0.90520   0.23466   0.00000  Uiso   1.00
N503   N     0.83333   0.95240   0.25000   0.00000  Uiso   1.00
N504   N     0.83333   0.71427   0.25000   0.00000  Uiso   1.00
O505   O     0.77226   0.87154   0.24999   0.00000  Uiso   1.00
O506   O     0.89441   0.79513   0.25000   0.00000  Uiso   1.00
O507   O     0.89441   0.87154   0.25000   0.00000  Uiso   1.00
O508   O     0.77226   0.79513   0.24999   0.00000  Uiso   1.00
O509   O     0.83333   0.87155   0.18453   0.00000  Uiso   1.00
O510   O     0.83334   0.79511   0.31547   0.00000  Uiso   1.00
O511   O     0.83334   0.87155   0.31547   0.00000  Uiso   1.00
O512   O     0.83333   0.79511   0.18453   0.00000  Uiso   1.00
Zn513  Zn    0.83333   0.88437   0.25000   0.00000  Uiso   1.00
Zn514  Zn    0.83333   0.78229   0.25000   0.00000  Uiso   1.00
O515   O     0.87577   0.90071   0.02311   0.00000  Uiso   1.00
H516   H     0.88874   0.92234   0.04431   0.00000  Uiso   1.00
O517   O     0.87569   0.76577   0.47704   0.00000  Uiso   1.00
H518   H     0.88868   0.74416   0.45589   0.00000  Uiso   1.00
O519   O     0.79127   0.90077   0.47699   0.00000  Uiso   1.00
H520   H     0.77827   0.92241   0.45583   0.00000  Uiso   1.00
O521   O     0.79121   0.76578   0.02287   0.00000  Uiso   1.00
H522   H     0.77816   0.74418   0.04399   0.00000  Uiso   1.00
C523   C     0.08662   0.16666   0.74997   0.00000  Uiso   1.00
C524   C     0.24672   0.16667   0.75003   0.00000  Uiso   1.00
C525   C     0.16665   0.16666   0.66393   0.00000  Uiso   1.00
C526   C     0.16670   0.16667   0.83607   0.00000  Uiso   1.00
C527   C     0.19309   0.02400   0.77715   0.00000  Uiso   1.00
C528   C     0.14024   0.30934   0.72285   0.00000  Uiso   1.00
C529   C     0.14024   0.02398   0.72285   0.00000  Uiso   1.00
C530   C     0.19309   0.30935   0.77715   0.00000  Uiso   1.00
C531   C     0.02131   0.12622   0.75842   0.00000  Uiso   1.00
C532   C     0.31202   0.20712   0.74158   0.00000  Uiso   1.00
C533   C     0.31204   0.12623   0.75847   0.00000  Uiso   1.00
C534   C     0.02129   0.20711   0.74153   0.00000  Uiso   1.00
C535   C     0.18795   0.20120   0.54690   0.00000  Uiso   1.00
C536   C     0.18793   0.13199   0.95318   0.00000  Uiso   1.00
C537   C     0.14568   0.20125   0.95315   0.00000  Uiso   1.00
C538   C     0.14563   0.13198   0.54678   0.00000  Uiso   1.00
C539   C     0.18729   0.20124   0.59332   0.00000  Uiso   1.00
C540   C     0.18732   0.13202   0.90675   0.00000  Uiso   1.00
C541   C     0.14624   0.20128   0.90673   0.00000  Uiso   1.00
C542   C     0.14615   0.13201   0.59320   0.00000  Uiso   1.00
C543   C     0.16668   0.16665   0.61607   0.00000  Uiso   1.00
C544   C     0.16676   0.16666   0.88393   0.00000  Uiso   1.00
C545   C     0.16682   0.16658   0.52409   0.00000  Uiso   1.00
C546   C     0.16681   0.16660   0.97591   0.00000  Uiso   1.00
C547   C     0.29086   0.16667   0.75004   0.00000  Uiso   1.00
C548   C     0.04247   0.16666   0.74996   0.00000  Uiso   1.00
H549   H     0.21421   0.04221   0.79886   0.00000  Uiso   1.00
H550   H     0.11911   0.29113   0.70116   0.00000  Uiso   1.00
H551   H     0.11913   0.04217   0.70114   0.00000  Uiso   1.00
H552   H     0.21422   0.29117   0.79884   0.00000  Uiso   1.00
H553   H     0.20342   0.22761   0.61166   0.00000  Uiso   1.00
H554   H     0.20343   0.10565   0.88846   0.00000  Uiso   1.00
H555   H     0.13011   0.22766   0.88843   0.00000  Uiso   1.00
H556   H     0.12998   0.10565   0.61146   0.00000  Uiso   1.00
H557   H     0.03754   0.09478   0.76525   0.00000  Uiso   1.00
H558   H     0.29579   0.23855   0.73474   0.00000  Uiso   1.00
H559   H     0.29583   0.09480   0.76535   0.00000  Uiso   1.00
H560   H     0.03751   0.23853   0.73466   0.00000  Uiso   1.00
N561   N     0.16667   0.28573   0.75000   0.00000  Uiso   1.00
N562   N     0.16667   0.04760   0.75000   0.00000  Uiso   1.00
O563   O     0.10559   0.20487   0.74999   0.00000  Uiso   1.00
O564   O     0.22774   0.12846   0.75000   0.00000  Uiso   1.00
O565   O     0.22774   0.20487   0.75000   0.00000  Uiso   1.00
O566   O     0.10559   0.12846   0.74999   0.00000  Uiso   1.00
O567   O     0.16666   0.20489   0.68453   0.00000  Uiso   1.00
O568   O     0.16667   0.12845   0.81547   0.00000  Uiso   1.00
O569   O     0.16667   0.20489   0.81547   0.00000  Uiso   1.00
O570   O     0.16666   0.12845   0.68453   0.00000  Uiso   1.00
Zn571  Zn    0.16667   0.21771   0.75000   0.00000  Uiso   1.00
Zn572  Zn    0.16667   0.11563   0.75000   0.00000  Uiso   1.00
O573   O     0.20910   0.23404   0.52311   0.00000  Uiso   1.00
H574   H     0.22208   0.25568   0.54431   0.00000  Uiso   1.00
O575   O     0.20902   0.09910   0.97704   0.00000  Uiso   1.00
H576   H     0.22201   0.07750   0.95589   0.00000  Uiso   1.00
O577   O     0.12460   0.23410   0.97699   0.00000  Uiso   1.00
H578   H     0.11160   0.25574   0.95583   0.00000  Uiso   1.00
O579   O     0.12454   0.09911   0.52287   0.00000  Uiso   1.00
H580   H     0.11149   0.07751   0.54399   0.00000  Uiso   1.00
C581   C     0.41995   0.16666   0.74997   0.00000  Uiso   1.00
C582   C     0.58005   0.16667   0.75003   0.00000  Uiso   1.00
C583   C     0.49998   0.16666   0.66393   0.00000  Uiso   1.00
C584   C     0.50004   0.16667   0.83607   0.00000  Uiso   1.00
C585   C     0.52643   0.02400   0.77715   0.00000  Uiso   1.00
C586   C     0.47357   0.30934   0.72285   0.00000  Uiso   1.00
C587   C     0.47358   0.02398   0.72285   0.00000  Uiso   1.00
C588   C     0.52643   0.30935   0.77715   0.00000  Uiso   1.00
C589   C     0.35464   0.12622   0.75842   0.00000  Uiso   1.00
C590   C     0.64535   0.20712   0.74158   0.00000  Uiso   1.00
C591   C     0.64537   0.12623   0.75847   0.00000  Uiso   1.00
C592   C     0.35463   0.20711   0.74153   0.00000  Uiso   1.00
C593   C     0.52128   0.20120   0.54690   0.00000  Uiso   1.00
C594   C     0.52126   0.13199   0.95318   0.00000  Uiso   1.00
C595   C     0.47901   0.20125   0.95315   0.00000  Uiso   1.00
C596   C     0.47896   0.13198   0.54678   0.00000  Uiso   1.00
C597   C     0.52063   0.20124   0.59332   0.00000  Uiso   1.00
C598   C     0.52065   0.13202   0.90675   0.00000  Uiso   1.00
C599   C     0.47957   0.20128   0.90673   0.00000  Uiso   1.00
C600   C     0.47948   0.13201   0.59320   0.00000  Uiso   1.00
C601   C     0.50002   0.16665   0.61607   0.00000  Uiso   1.00
C602   C     0.50009   0.16666   0.88393   0.00000  Uiso   1.00
C603   C     0.50015   0.16658   0.52409   0.00000  Uiso   1.00
C604   C     0.50015   0.16660   0.97591   0.00000  Uiso   1.00
C605   C     0.62419   0.16667   0.75004   0.00000  Uiso   1.00
C606   C     0.37581   0.16666   0.74996   0.00000  Uiso   1.00
H607   H     0.54754   0.04221   0.79886   0.00000  Uiso   1.00
H608   H     0.45245   0.29113   0.70116   0.00000  Uiso   1.00
H609   H     0.45246   0.04217   0.70114   0.00000  Uiso   1.00
H610   H     0.54755   0.29117   0.79884   0.00000  Uiso   1.00
H611   H     0.53675   0.22761   0.61166   0.00000  Uiso   1.00
H612   H     0.53676   0.10565   0.88846   0.00000  Uiso   1.00
H613   H     0.46344   0.22766   0.88843   0.00000  Uiso   1.00
H614   H     0.46331   0.10565   0.61146   0.00000  Uiso   1.00
H615   H     0.37088   0.09478   0.76525   0.00000  Uiso   1.00
H616   H     0.62912   0.23855   0.73474   0.00000  Uiso   1.00
H617   H     0.62916   0.09480   0.76535   0.00000  Uiso   1.00
H618   H     0.37084   0.23853   0.73466   0.00000  Uiso   1.00
N619   N     0.50000   0.28573   0.75000   0.00000  Uiso   1.00
N620   N     0.50000   0.04760   0.75000   0.00000  Uiso   1.00
O621   O     0.43892   0.20487   0.74999   0.00000  Uiso   1.00
O622   O     0.56108   0.12846   0.75000   0.00000  Uiso   1.00
O623   O     0.56108   0.20487   0.75000   0.00000  Uiso   1.00
O624   O     0.43892   0.12846   0.74999   0.00000  Uiso   1.00
O625   O     0.50000   0.20489   0.68453   0.00000  Uiso   1.00
O626   O     0.50000   0.12845   0.81547   0.00000  Uiso   1.00
O627   O     0.50000   0.20489   0.81547   0.00000  Uiso   1.00
O628   O     0.50000   0.12845   0.68453   0.00000  Uiso   1.00
Zn629  Zn    0.50000   0.21771   0.75000   0.00000  Uiso   1.00
Zn630  Zn    0.50000   0.11563   0.75000   0.00000  Uiso   1.00
O631   O     0.54243   0.23404   0.52311   0.00000  Uiso   1.00
H632   H     0.55541   0.25568   0.54431   0.00000  Uiso   1.00
O633   O     0.54236   0.09910   0.97704   0.00000  Uiso   1.00
H634   H     0.55534   0.07750   0.95589   0.00000  Uiso   1.00
O635   O     0.45793   0.23410   0.97699   0.00000  Uiso   1.00
H636   H     0.44493   0.25574   0.95583   0.00000  Uiso   1.00
O637   O     0.45787   0.09911   0.52287   0.00000  Uiso   1.00
H638   H     0.44483   0.07751   0.54399   0.00000  Uiso   1.00
C639   C     0.75328   0.16666   0.74997   0.00000  Uiso   1.00
C640   C     0.91338   0.16667   0.75003   0.00000  Uiso   1.00
C641   C     0.83331   0.16666   0.66393   0.00000  Uiso   1.00
C642   C     0.83337   0.16667   0.83607   0.00000  Uiso   1.00
C643   C     0.85976   0.02400   0.77715   0.00000  Uiso   1.00
C644   C     0.80690   0.30934   0.72285   0.00000  Uiso   1.00
C645   C     0.80691   0.02398   0.72285   0.00000  Uiso   1.00
C646   C     0.85976   0.30935   0.77715   0.00000  Uiso   1.00
C647   C     0.68798   0.12622   0.75842   0.00000  Uiso   1.00
C648   C     0.97869   0.20712   0.74158   0.00000  Uiso   1.00
C649   C     0.97871   0.12623   0.75847   0.00000  Uiso   1.00
C650   C     0.68796   0.20711   0.74153   0.00000  Uiso   1.00
C651   C     0.85462   0.20120   0.54690   0.00000  Uiso   1.00
C652   C     0.85460   0.13199   0.95318   0.00000  Uiso   1.00
C653   C     0.81234   0.20125   0.95315   0.00000  Uiso   1.00
C654   C     0.81229   0.13198   0.54678   0.00000  Uiso   1.00
C655   C     0.85396   0.20124   0.59332   0.00000  Uiso   1.00
C656   C     0.85399   0.13202   0.90675   0.00000  Uiso   1.00
C657   C     0.81291   0.20128   0.90673   0.00000  Uiso   1.00
C658   C     0.81281   0.13201   0.59320   0.00000  Uiso   1.00
C659   C     0.83335   0.16665   0.61607   0.00000  Uiso   1.00
C660   C     0.83343   0.16666   0.88393   0.00000  Uiso   1.00
C661   C     0.83348   0.16658   0.52409   0.00000  Uiso   1.00
C662   C     0.83348   0.16660   0.97591   0.00000  Uiso   1.00
C663   C     0.95753   0.16667   0.75004   0.00000  Uiso   1.00
C664   C     0.70914   0.16666   0.74996   0.00000  Uiso   1.00
H665   H     0.88087   0.04221   0.79886   0.00000  Uiso   1.00
H666   H     0.78578   0.29113   0.70116   0.00000  Uiso   1.00
H667   H     0.78580   0.04217   0.70114   0.00000  Uiso   1.00
H668   H     0.88088   0.29117   0.79884   0.00000  Uiso   1.00
H669   H     0.87009   0.22761   0.61166   0.00000  Uiso   1.00
H670   H     0.87009   0.10565   0.88846   0.00000  Uiso   1.00
H671   H     0.79677   0.22766   0.88843   0.00000  Uiso   1.00
H672   H     0.79665   0.10565   0.61146   0.00000  Uiso   1.00
H673   H     0.70421   0.09478   0.76525   0.00000  Uiso   1.00
H674   H     0.96246   0.23855   0.73474   0.00000  Uiso   1.00
H675   H     0.96249   0.09480   0.76535   0.00000  Uiso   1.00
H676   H     0.70417   0.23853   0.73466   0.00000  Uiso   1.00
N677   N     0.83333   0.28573   0.75000   0.00000  Uiso   1.00
N678   N     0.83333   0.04760   0.75000   0.00000  Uiso   1.00
O679   O     0.77226   0.20487   0.74999   0.00000  Uiso   1.00
O680   O     0.89441   0.12846   0.75000   0.00000  Uiso   1.00
O681   O     0.89441   0.20487   0.75000   0.00000  Uiso   1.00
O682   O     0.77226   0.12846   0.74999   0.00000  Uiso   1.00
O683   O     0.83333   0.20489   0.68453   0.00000  Uiso   1.00
O684   O     0.83334   0.12845   0.81547   0.00000  Uiso   1.00
O685   O     0.83334   0.20489   0.81547   0.00000  Uiso   1.00
O686   O     0.83333   0.12845   0.68453   0.00000  Uiso   1.00
Zn687  Zn    0.83333   0.21771   0.75000   0.00000  Uiso   1.00
Zn688  Zn    0.83333   0.11563   0.75000   0.00000  Uiso   1.00
O689   O     0.87577   0.23404   0.52311   0.00000  Uiso   1.00
H690   H     0.88874   0.25568   0.54431   0.00000  Uiso   1.00
O691   O     0.87569   0.09910   0.97704   0.00000  Uiso   1.00
H692   H     0.88868   0.07750   0.95589   0.00000  Uiso   1.00
O693   O     0.79127   0.23410   0.97699   0.00000  Uiso   1.00
H694   H     0.77827   0.25574   0.95583   0.00000  Uiso   1.00
O695   O     0.79121   0.09911   0.52287   0.00000  Uiso   1.00
H696   H     0.77816   0.07751   0.54399   0.00000  Uiso   1.00
C697   C     0.08662   0.50000   0.74997   0.00000  Uiso   1.00
C698   C     0.24672   0.50000   0.75003   0.00000  Uiso   1.00
C699   C     0.16665   0.50000   0.66393   0.00000  Uiso   1.00
C700   C     0.16670   0.50000   0.83607   0.00000  Uiso   1.00
C701   C     0.19309   0.35733   0.77715   0.00000  Uiso   1.00
C702   C     0.14024   0.64267   0.72285   0.00000  Uiso   1.00
C703   C     0.14024   0.35732   0.72285   0.00000  Uiso   1.00
C704   C     0.19309   0.64269   0.77715   0.00000  Uiso   1.00
C705   C     0.02131   0.45955   0.75842   0.00000  Uiso   1.00
C706   C     0.31202   0.54045   0.74158   0.00000  Uiso   1.00
C707   C     0.31204   0.45956   0.75847   0.00000  Uiso   1.00
C708   C     0.02129   0.54044   0.74153   0.00000  Uiso   1.00
C709   C     0.18795   0.53453   0.54690   0.00000  Uiso   1.00
C710   C     0.18793   0.46533   0.95318   0.00000  Uiso   1.00
C711   C     0.14568   0.53458   0.95315   0.00000  Uiso   1.00
C712   C     0.14563   0.46531   0.54678   0.00000  Uiso   1.00
C713   C     0.18729   0.53457   0.59332   0.00000  Uiso   1.00
C714   C     0.18732   0.46535   0.90675   0.00000  Uiso   1.00
C715   C     0.14624   0.53461   0.90673   0.00000  Uiso   1.00
C716   C     0.14615   0.46534   0.59320   0.00000  Uiso   1.00
C717   C     0.16668   0.49998   0.61607   0.00000  Uiso   1.00
C718   C     0.16676   0.49999   0.88393   0.00000  Uiso   1.00
C719   C     0.16682   0.49991   0.52409   0.00000  Uiso   1.00
C720   C     0.16681   0.49994   0.97591   0.00000  Uiso   1.00
C721   C     0.29086   0.50001   0.75004   0.00000  Uiso   1.00
C722   C     0.04247   0.49999   0.74996   0.00000  Uiso   1.00
H723   H     0.21421   0.37554   0.79886   0.00000  Uiso   1.00
H724   H     0.11911   0.62447   0.70116   0.00000  Uiso   1.00
H725   H     0.11913   0.37551   0.70114   0.00000  Uiso   1.00
H726   H     0.21422   0.62450   0.79884   0.00000  Uiso   1.00
H727   H     0.20342   0.56095   0.61166   0.00000  Uiso   1.00
H728   H     0.20343   0.43898   0.88846   0.00000  Uiso   1.00
H729   H     0.13011   0.56100   0.88843   0.00000  Uiso   1.00
H730   H     0.12998   0.43899   0.61146   0.00000  Uiso   1.00
H731   H     0.03754   0.42812   0.76525   0.00000  Uiso   1.00
H732   H     0.29579   0.57188   0.73474   0.00000  Uiso   1.00
H733   H     0.29583   0.42814   0.76535   0.00000  Uiso   1.00
H734   H     0.03751   0.57187   0.73466   0.00000  Uiso   1.00
N735   N     0.16667   0.61907   0.75000   0.00000  Uiso   1.00
N736   N     0.16667   0.38093   0.75000   0.00000  Uiso   1.00
O737   O     0.10559   0.53821   0.74999   0.00000  Uiso   1.00
O738   O     0.22774   0.46179   0.75000   0.00000  Uiso   1.00
O739   O     0.22774   0.53821   0.75000   0.00000  Uiso   1.00
O740   O     0.10559   0.46179   0.74999   0.00000  Uiso   1.00
O741   O     0.16666   0.53822   0.68453   0.00000  Uiso   1.00
O742   O     0.16667   0.46178   0.81547   0.00000  Uiso   1.00
O743   O     0.16667   0.53822   0.81547   0.00000  Uiso   1.00
O744   O     0.16666   0.46178   0.68453   0.00000  Uiso   1.00
Zn745  Zn    0.16667   0.55104   0.75000   0.00000  Uiso   1.00
Zn746  Zn    0.16667   0.44896   0.75000   0.00000  Uiso   1.00
O747   O     0.20910   0.56737   0.52311   0.00000  Uiso   1.00
H748   H     0.22208   0.58901   0.54431   0.00000  Uiso   1.00
O749   O     0.20902   0.43244   0.97704   0.00000  Uiso   1.00
H750   H     0.22201   0.41083   0.95589   0.00000  Uiso   1.00
O751   O     0.12460   0.56743   0.97699   0.00000  Uiso   1.00
H752   H     0.11160   0.58907   0.95583   0.00000  Uiso   1.00
O753   O     0.12454   0.43244   0.52287   0.00000  Uiso   1.00
H754   H     0.11149   0.41085   0.54399   0.00000  Uiso   1.00
C755   C     0.41995   0.50000   0.74997   0.00000  Uiso   1.00
C756   C     0.58005   0.50000   0.75003   0.00000  Uiso   1.00
C757   C     0.49998   0.50000   0.66393   0.00000  Uiso   1.00
C758   C     0.50004   0.50000   0.83607   0.00000  Uiso   1.00
C759   C     0.52643   0.35733   0.77715   0.00000  Uiso   1.00
C760   C     0.47357   0.64267   0.72285   0.00000  Uiso   1.00
C761   C     0.47358   0.35732   0.72285   0.00000  Uiso   1.00
C762   C     0.52643   0.64269   0.77715   0.00000  Uiso   1.00
C763   C     0.35464   0.45955   0.75842   0.00000  Uiso   1.00
C764   C     0.64535   0.54045   0.74158   0.00000  Uiso   1.00
C765   C     0.64537   0.45956   0.75847   0.00000  Uiso   1.00
C766   C     0.35463   0.54044   0.74153   0.00000  Uiso   1.00
C767   C     0.52128   0.53453   0.54690   0.00000  Uiso   1.00
C768   C     0.52126   0.46533   0.95318   0.00000  Uiso   1.00
C769   C     0.47901   0.53458   0.95315   0.00000  Uiso   1.00
C770   C     0.47896   0.46531   0.54678   0.00000  Uiso   1.00
C771   C     0.52063   0.53457   0.59332   0.00000  Uiso   1.00
C772   C     0.52065   0.46535   0.90675   0.00000  Uiso   1.00
C773   C     0.47957   0.53461   0.90673   0.00000  Uiso   1.00
C774   C     0.47948   0.46534   0.59320   0.00000  Uiso   1.00
C775   C     0.50002   0.49998   0.61607   0.00000  Uiso   1.00
C776   C     0.50009   0.49999   0.88393   0.00000  Uiso   1.00
C777   C     0.50015   0.49991   0.52409   0.00000  Uiso   1.00
C778   C     0.50015   0.49994   0.97591   0.00000  Uiso   1.00
C779   C     0.62419   0.50001   0.75004   0.00000  Uiso   1.00
C780   C     0.37581   0.49999   0.74996   0.00000  Uiso   1.00
H781   H     0.54754   0.37554   0.79886   0.00000  Uiso   1.00
H782   H     0.45245   0.62447   0.70116   0.00000  Uiso   1.00
H783   H     0.45246   0.37551   0.70114   0.00000  Uiso   1.00
H784   H     0.54755   0.62450   0.79884   0.00000  Uiso   1.00
H785   H     0.53675   0.56095   0.61166   0.00000  Uiso   1.00
H786   H     0.53676   0.43898   0.88846   0.00000  Uiso   1.00
H787   H     0.46344   0.56100   0.88843   0.00000  Uiso   1.00
H788   H     0.46331   0.43899   0.61146   0.00000  Uiso   1.00
H789   H     0.37088   0.42812   0.76525   0.00000  Uiso   1.00
H790   H     0.62912   0.57188   0.73474   0.00000  Uiso   1.00
H791   H     0.62916   0.42814   0.76535   0.00000  Uiso   1.00
H792   H     0.37084   0.57187   0.73466   0.00000  Uiso   1.00
N793   N     0.50000   0.61907   0.75000   0.00000  Uiso   1.00
N794   N     0.50000   0.38093   0.75000   0.00000  Uiso   1.00
O795   O     0.43892   0.53821   0.74999   0.00000  Uiso   1.00
O796   O     0.56108   0.46179   0.75000   0.00000  Uiso   1.00
O797   O     0.56108   0.53821   0.75000   0.00000  Uiso   1.00
O798   O     0.43892   0.46179   0.74999   0.00000  Uiso   1.00
O799   O     0.50000   0.53822   0.68453   0.00000  Uiso   1.00
O800   O     0.50000   0.46178   0.81547   0.00000  Uiso   1.00
O801   O     0.50000   0.53822   0.81547   0.00000  Uiso   1.00
O802   O     0.50000   0.46178   0.68453   0.00000  Uiso   1.00
Zn803  Zn    0.50000   0.55104   0.75000   0.00000  Uiso   1.00
Zn804  Zn    0.50000   0.44896   0.75000   0.00000  Uiso   1.00
O805   O     0.54243   0.56737   0.52311   0.00000  Uiso   1.00
H806   H     0.55541   0.58901   0.54431   0.00000  Uiso   1.00
O807   O     0.54236   0.43244   0.97704   0.00000  Uiso   1.00
H808   H     0.55534   0.41083   0.95589   0.00000  Uiso   1.00
O809   O     0.45793   0.56743   0.97699   0.00000  Uiso   1.00
H810   H     0.44493   0.58907   0.95583   0.00000  Uiso   1.00
O811   O     0.45787   0.43244   0.52287   0.00000  Uiso   1.00
H812   H     0.44483   0.41085   0.54399   0.00000  Uiso   1.00
C813   C     0.75328   0.50000   0.74997   0.00000  Uiso   1.00
C814   C     0.91338   0.50000   0.75003   0.00000  Uiso   1.00
C815   C     0.83331   0.50000   0.66393   0.00000  Uiso   1.00
C816   C     0.83337   0.50000   0.83607   0.00000  Uiso   1.00
C817   C     0.85976   0.35733   0.77715   0.00000  Uiso   1.00
C818   C     0.80690   0.64267   0.72285   0.00000  Uiso   1.00
C819   C     0.80691   0.35732   0.72285   0.00000  Uiso   1.00
C820   C     0.85976   0.64269   0.77715   0.00000  Uiso   1.00
C821   C     0.68798   0.45955   0.75842   0.00000  Uiso   1.00
C822   C     0.97869   0.54045   0.74158   0.00000  Uiso   1.00
C823   C     0.97871   0.45956   0.75847   0.00000  Uiso   1.00
C824   C     0.68796   0.54044   0.74153   0.00000  Uiso   1.00
C825   C     0.85462   0.53453   0.54690   0.00000  Uiso   1.00
C826   C     0.85460   0.46533   0.95318   0.00000  Uiso   1.00
C827   C     0.81234   0.53458   0.95315   0.00000  Uiso   1.00
C828   C     0.81229   0.46531   0.54678   0.00000  Uiso   1.00
C829   C     0.85396   0.53457   0.59332   0.00000  Uiso   1.00
C830   C     0.85399   0.46535   0.90675   0.00000  Uiso   1.00
C831   C     0.81291   0.53461   0.90673   0.00000  Uiso   1.00
C832   C     0.81281   0.46534   0.59320   0.00000  Uiso   1.00
C833   C     0.83335   0.49998   0.61607   0.00000  Uiso   1.00
C834   C     0.83343   0.49999   0.88393   0.00000  Uiso   1.00
C835   C     0.83348   0.49991   0.52409   0.00000  Uiso   1.00
C836   C     0.83348   0.49994   0.97591   0.00000  Uiso   1.00
C837   C     0.95753   0.50001   0.75004   0.00000  Uiso   1.00
C838   C     0.70914   0.49999   0.74996   0.00000  Uiso   1.00
H839   H     0.88087   0.37554   0.79886   0.00000  Uiso   1.00
H840   H     0.78578   0.62447   0.70116   0.00000  Uiso   1.00
H841   H     0.78580   0.37551   0.70114   0.00000  Uiso   1.00
H842   H     0.88088   0.62450   0.79884   0.00000  Uiso   1.00
H843   H     0.87009   0.56095   0.61166   0.00000  Uiso   1.00
H844   H     0.87009   0.43898   0.88846   0.00000  Uiso   1.00
H845   H     0.79677   0.56100   0.88843   0.00000  Uiso   1.00
H846   H     0.79665   0.43899   0.61146   0.00000  Uiso   1.00
H847   H     0.70421   0.42812   0.76525   0.00000  Uiso   1.00
H848   H     0.96246   0.57188   0.73474   0.00000  Uiso   1.00
H849   H     0.96249   0.42814   0.76535   0.00000  Uiso   1.00
H850   H     0.70417   0.57187   0.73466   0.00000  Uiso   1.00
N851   N     0.83333   0.61907   0.75000   0.00000  Uiso   1.00
N852   N     0.83333   0.38093   0.75000   0.00000  Uiso   1.00
O853   O     0.77226   0.53821   0.74999   0.00000  Uiso   1.00
O854   O     0.89441   0.46179   0.75000   0.00000  Uiso   1.00
O855   O     0.89441   0.53821   0.75000   0.00000  Uiso   1.00
O856   O     0.77226   0.46179   0.74999   0.00000  Uiso   1.00
O857   O     0.83333   0.53822   0.68453   0.00000  Uiso   1.00
O858   O     0.83334   0.46178   0.81547   0.00000  Uiso   1.00
O859   O     0.83334   0.53822   0.81547   0.00000  Uiso   1.00
O860   O     0.83333   0.46178   0.68453   0.00000  Uiso   1.00
Zn861  Zn    0.83333   0.55104   0.75000   0.00000  Uiso   1.00
Zn862  Zn    0.83333   0.44896   0.75000   0.00000  Uiso   1.00
O863   O     0.87577   0.56737   0.52311   0.00000  Uiso   1.00
H864   H     0.88874   0.58901   0.54431   0.00000  Uiso   1.00
O865   O     0.87569   0.43244   0.97704   0.00000  Uiso   1.00
H866   H     0.88868   0.41083   0.95589   0.00000  Uiso   1.00
O867   O     0.79127   0.56743   0.97699   0.00000  Uiso   1.00
H868   H     0.77827   0.58907   0.95583   0.00000  Uiso   1.00
O869   O     0.79121   0.43244   0.52287   0.00000  Uiso   1.00
H870   H     0.77816   0.41085   0.54399   0.00000  Uiso   1.00
C871   C     0.08662   0.83333   0.74997   0.00000  Uiso   1.00
C872   C     0.24672   0.83334   0.75003   0.00000  Uiso   1.00
C873   C     0.16665   0.83333   0.66393   0.00000  Uiso   1.00
C874   C     0.16670   0.83333   0.83607   0.00000  Uiso   1.00
C875   C     0.19309   0.69067   0.77715   0.00000  Uiso   1.00
C876   C     0.14024   0.97600   0.72285   0.00000  Uiso   1.00
C877   C     0.14024   0.69065   0.72285   0.00000  Uiso   1.00
C878   C     0.19309   0.97602   0.77715   0.00000  Uiso   1.00
C879   C     0.02131   0.79288   0.75842   0.00000  Uiso   1.00
C880   C     0.31202   0.87378   0.74158   0.00000  Uiso   1.00
C881   C     0.31204   0.79289   0.75847   0.00000  Uiso   1.00
C882   C     0.02129   0.87377   0.74153   0.00000  Uiso   1.00
C883   C     0.18795   0.86787   0.54690   0.00000  Uiso   1.00
C884   C     0.18793   0.79866   0.95318   0.00000  Uiso   1.00
C885   C     0.14568   0.86791   0.95315   0.00000  Uiso   1.00
C886   C     0.14563   0.79864   0.54678   0.00000  Uiso   1.00
C887   C     0.18729   0.86790   0.59332   0.00000  Uiso   1.00
C888   C     0.18732   0.79869   0.90675   0.00000  Uiso   1.00
C889   C     0.14624   0.86794   0.90673   0.00000  Uiso   1.00
C890   C     0.14615   0.79868   0.59320   0.00000  Uiso   1.00
C891   C     0.16668   0.83331   0.61607   0.00000  Uiso   1.00
C892   C     0.16676   0.83333   0.88393   0.00000  Uiso   1.00
C893   C     0.16682   0.83324   0.52409   0.00000  Uiso   1.00
C894   C     0.16681   0.83327   0.97591   0.00000  Uiso   1.00
C895   C     0.29086   0.83334   0.75004   0.00000  Uiso   1.00
C896   C     0.04247   0.83333   0.74996   0.00000  Uiso   1.00
H897   H     0.21421   0.70887   0.79886   0.00000  Uiso   1.00
H898   H     0.11911   0.95780   0.70116   0.00000  Uiso   1.00
H899   H     0.11913   0.70884   0.70114   0.00000  Uiso   1.00
H900   H     0.21422   0.95783   0.79884   0.00000  Uiso   1.00
H901   H     0.20342   0.89428   0.61166   0.00000  Uiso   1.00
H902   H     0.20343   0.77232   0.88846   0.00000  Uiso   1.00
H903   H     0.13011   0.89433   0.88843   0.00000  Uiso   1.00
H904   H     0.12998   0.77232   0.61146   0.00000  Uiso   1.00
H905   H     0.03754   0.76145   0.76525   0.00000  Uiso   1.00
H906   H     0.29579   0.90522   0.73474   0.00000  Uiso   1.00
H907   H     0.29583   0.76147   0.76535   0.00000  Uiso   1.00
H908   H     0.03751   0.90520   0.73466   0.00000  Uiso   1.00
N909   N     0.16667   0.95240   0.75000   0.00000  Uiso   1.00
N910   N     0.16667   0.71427   0.75000   0.00000  Uiso   1.00
O911   O     0.10559   0.87154   0.74999   0.00000  Uiso   1.00
O912   O     0.22774   0.79513   0.75000   0.00000  Uiso   1.00
O913   O     0.22774   0.87154   0.75000   0.00000  Uiso   1.00
O914   O     0.10559   0.79513   0.74999   0.00000  Uiso   1.00
O915   O     0.16666   0.87155   0.68453   0.00000  Uiso   1.00
O916   O     0.16667   0.79511   0.81547   0.00000  Uiso   1.00
O917   O     0.16667   0.87155   0.81547   0.00000  Uiso   1.00
O918   O     0.16666   0.79511   0.68453   0.00000  Uiso   1.00
Zn919  Zn    0.16667   0.88437   0.75000   0.00000  Uiso   1.00
Zn920  Zn    0.16667   0.78229   0.75000   0.00000  Uiso   1.00
O921   O     0.20910   0.90071   0.52311   0.00000  Uiso   1.00
H922   H     0.22208   0.92234   0.54431   0.00000  Uiso   1.00
O923   O     0.20902   0.76577   0.97704   0.00000  Uiso   1.00
H924   H     0.22201   0.74416   0.95589   0.00000  Uiso   1.00
O925   O     0.12460   0.90077   0.97699   0.00000  Uiso   1.00
H926   H     0.11160   0.92241   0.95583   0.00000  Uiso   1.00
O927   O     0.12454   0.76578   0.52287   0.00000  Uiso   1.00
H928   H     0.11149   0.74418   0.54399   0.00000  Uiso   1.00
C929   C     0.41995   0.83333   0.74997   0.00000  Uiso   1.00
C930   C     0.58005   0.83334   0.75003   0.00000  Uiso   1.00
C931   C     0.49998   0.83333   0.66393   0.00000  Uiso   1.00
C932   C     0.50004   0.83333   0.83607   0.00000  Uiso   1.00
C933   C     0.52643   0.69067   0.77715   0.00000  Uiso   1.00
C934   C     0.47357   0.97600   0.72285   0.00000  Uiso   1.00
C935   C     0.47358   0.69065   0.72285   0.00000  Uiso   1.00
C936   C     0.52643   0.97602   0.77715   0.00000  Uiso   1.00
C937   C     0.35464   0.79288   0.75842   0.00000  Uiso   1.00
C938   C     0.64535   0.87378   0.74158   0.00000  Uiso   1.00
C939   C     0.64537   0.79289   0.75847   0.00000  Uiso   1.00
C940   C     0.35463   0.87377   0.74153   0.00000  Uiso   1.00
C941   C     0.52128   0.86787   0.54690   0.00000  Uiso   1.00
C942   C     0.52126   0.79866   0.95318   0.00000  Uiso   1.00
C943   C     0.47901   0.86791   0.95315   0.00000  Uiso   1.00
C944   C     0.47896   0.79864   0.54678   0.00000  Uiso   1.00
C945   C     0.52063   0.86790   0.59332   0.00000  Uiso   1.00
C946   C     0.52065   0.79869   0.90675   0.00000  Uiso   1.00
C947   C     0.47957   0.86794   0.90673   0.00000  Uiso   1.00
C948   C     0.47948   0.79868   0.59320   0.00000  Uiso   1.00
C949   C     0.50002   0.83331   0.61607   0.00000  Uiso   1.00
C950   C     0.50009   0.83333   0.88393   0.00000  Uiso   1.00
C951   C     0.50015   0.83324   0.52409   0.00000  Uiso   1.00
C952   C     0.50015   0.83327   0.97591   0.00000  Uiso   1.00
C953   C     0.62419   0.83334   0.75004   0.00000  Uiso   1.00
C954   C     0.37581   0.83333   0.74996   0.00000  Uiso   1.00
H955   H     0.54754   0.70887   0.79886   0.00000  Uiso   1.00
H956   H     0.45245   0.95780   0.70116   0.00000  Uiso   1.00
H957   H     0.45246   0.70884   0.70114   0.00000  Uiso   1.00
H958   H     0.54755   0.95783   0.79884   0.00000  Uiso   1.00
H959   H     0.53675   0.89428   0.61166   0.00000  Uiso   1.00
H960   H     0.53676   0.77232   0.88846   0.00000  Uiso   1.00
H961   H     0.46344   0.89433   0.88843   0.00000  Uiso   1.00
H962   H     0.46331   0.77232   0.61146   0.00000  Uiso   1.00
H963   H     0.37088   0.76145   0.76525   0.00000  Uiso   1.00
H964   H     0.62912   0.90522   0.73474   0.00000  Uiso   1.00
H965   H     0.62916   0.76147   0.76535   0.00000  Uiso   1.00
H966   H     0.37084   0.90520   0.73466   0.00000  Uiso   1.00
N967   N     0.50000   0.95240   0.75000   0.00000  Uiso   1.00
N968   N     0.50000   0.71427   0.75000   0.00000  Uiso   1.00
O969   O     0.43892   0.87154   0.74999   0.00000  Uiso   1.00
O970   O     0.56108   0.79513   0.75000   0.00000  Uiso   1.00
O971   O     0.56108   0.87154   0.75000   0.00000  Uiso   1.00
O972   O     0.43892   0.79513   0.74999   0.00000  Uiso   1.00
O973   O     0.50000   0.87155   0.68453   0.00000  Uiso   1.00
O974   O     0.50000   0.79511   0.81547   0.00000  Uiso   1.00
O975   O     0.50000   0.87155   0.81547   0.00000  Uiso   1.00
O976   O     0.50000   0.79511   0.68453   0.00000  Uiso   1.00
Zn977  Zn    0.50000   0.88437   0.75000   0.00000  Uiso   1.00
Zn978  Zn    0.50000   0.78229   0.75000   0.00000  Uiso   1.00
O979   O     0.54243   0.90071   0.52311   0.00000  Uiso   1.00
H980   H     0.55541   0.92234   0.54431   0.00000  Uiso   1.00
O981   O     0.54236   0.76577   0.97704   0.00000  Uiso   1.00
H982   H     0.55534   0.74416   0.95589   0.00000  Uiso   1.00
O983   O     0.45793   0.90077   0.97699   0.00000  Uiso   1.00
H984   H     0.44493   0.92241   0.95583   0.00000  Uiso   1.00
O985   O     0.45787   0.76578   0.52287   0.00000  Uiso   1.00
H986   H     0.44483   0.74418   0.54399   0.00000  Uiso   1.00
C987   C     0.75328   0.83333   0.74997   0.00000  Uiso   1.00
C988   C     0.91338   0.83334   0.75003   0.00000  Uiso   1.00
C989   C     0.83331   0.83333   0.66393   0.00000  Uiso   1.00
C990   C     0.83337   0.83333   0.83607   0.00000  Uiso   1.00
C991   C     0.85976   0.69067   0.77715   0.00000  Uiso   1.00
C992   C     0.80690   0.97600   0.72285   0.00000  Uiso   1.00
C993   C     0.80691   0.69065   0.72285   0.00000  Uiso   1.00
C994   C     0.85976   0.97602   0.77715   0.00000  Uiso   1.00
C995   C     0.68798   0.79288   0.75842   0.00000  Uiso   1.00
C996   C     0.97869   0.87378   0.74158   0.00000  Uiso   1.00
C997   C     0.97871   0.79289   0.75847   0.00000  Uiso   1.00
C998   C     0.68796   0.87377   0.74153   0.00000  Uiso   1.00
C999   C     0.85462   0.86787   0.54690   0.00000  Uiso   1.00
C1000  C     0.85460   0.79866   0.95318   0.00000  Uiso   1.00
C1001  C     0.81234   0.86791   0.95315   0.00000  Uiso   1.00
C1002  C     0.81229   0.79864   0.54678   0.00000  Uiso   1.00
C1003  C     0.85396   0.86790   0.59332   0.00000  Uiso   1.00
C1004  C     0.85399   0.79869   0.90675   0.00000  Uiso   1.00
C1005  C     0.81291   0.86794   0.90673   0.00000  Uiso   1.00
C1006  C     0.81281   0.79868   0.59320   0.00000  Uiso   1.00
C1007  C     0.83335   0.83331   0.61607   0.00000  Uiso   1.00
C1008  C     0.83343   0.83333   0.88393   0.00000  Uiso   1.00
C1009  C     0.83348   0.83324   0.52409   0.00000  Uiso   1.00
C1010  C     0.83348   0.83327   0.97591   0.00000  Uiso   1.00
C1011  C     0.95753   0.83334   0.75004   0.00000  Uiso   1.00
C1012  C     0.70914   0.83333   0.74996   0.00000  Uiso   1.00
H1013  H     0.88087   0.70887   0.79886   0.00000  Uiso   1.00
H1014  H     0.78578   0.95780   0.70116   0.00000  Uiso   1.00
H1015  H     0.78580   0.70884   0.70114   0.00000  Uiso   1.00
H1016  H     0.88088   0.95783   0.79884   0.00000  Uiso   1.00
H1017  H     0.87009   0.89428   0.61166   0.00000  Uiso   1.00
H1018  H     0.87009   0.77232   0.88846   0.00000  Uiso   1.00
H1019  H     0.79677   0.89433   0.88843   0.00000  Uiso   1.00
H1020  H     0.79665   0.77232   0.61146   0.00000  Uiso   1.00
H1021  H     0.70421   0.76145   0.76525   0.00000  Uiso   1.00
H1022  H     0.96246   0.90522   0.73474   0.00000  Uiso   1.00
H1023  H     0.96249   0.76147   0.76535   0.00000  Uiso   1.00
H1024  H     0.70417   0.90520   0.73466   0.00000  Uiso   1.00
N1025  N     0.83333   0.95240   0.75000   0.00000  Uiso   1.00
N1026  N     0.83333   0.71427   0.75000   0.00000  Uiso   1.00
O1027  O     0.77226   0.87154   0.74999   0.00000  Uiso   1.00
O1028  O     0.89441   0.79513   0.75000   0.00000  Uiso   1.00
O1029  O     0.89441   0.87154   0.75000   0.00000  Uiso   1.00
O1030  O     0.77226   0.79513   0.74999   0.00000  Uiso   1.00
O1031  O     0.83333   0.87155   0.68453   0.00000  Uiso   1.00
O1032  O     0.83334   0.79511   0.81547   0.00000  Uiso   1.00
O1033  O     0.83334   0.87155   0.81547   0.00000  Uiso   1.00
O1034  O     0.83333   0.79511   0.68453   0.00000  Uiso   1.00
Zn1035 Zn    0.83333   0.88437   0.75000   0.00000  Uiso   1.00
Zn1036 Zn    0.83333   0.78229   0.75000   0.00000  Uiso   1.00
O1037  O     0.87577   0.90071   0.52311   0.00000  Uiso   1.00
H1038  H     0.88874   0.92234   0.54431   0.00000  Uiso   1.00
O1039  O     0.87569   0.76577   0.97704   0.00000  Uiso   1.00
H1040  H     0.88868   0.74416   0.95589   0.00000  Uiso   1.00
O1041  O     0.79127   0.90077   0.97699   0.00000  Uiso   1.00
H1042  H     0.77827   0.92241   0.95583   0.00000  Uiso   1.00
O1043  O     0.79121   0.76578   0.52287   0.00000  Uiso   1.00
H1044  H     0.77816   0.74418   0.54399   0.00000  Uiso   1.00
loop_
_geom_bond_atom_site_label_1
_geom_bond_atom_site_label_2
_geom_bond_distance
_geom_bond_site_symmetry_2
_ccdc_geom_bond_type
C1     O44     1.282   .     A
C1     C26     1.419   .     S
C1     O41     1.282   .     A
C2     O43     1.282   .     A
C2     O42     1.282   .     A
C2     C25     1.419   .     S
C3     C21     1.434   .     S
C3     O48     1.286   .     A
C3     O45     1.286   .     A
C4     C22     1.434   .     S
C4     O46     1.286   .     A
C4     O47     1.286   .     A
C5     N40     1.366   .     A
C5     H27     1.082   .     S
C5     C356    1.416   1_545 S
C6     H28     1.082   .     S
C6     N39     1.366   .     A
C6     C181    1.416   .     S
C7     H29     1.082   .     S
C7     N40     1.366   .     A
C7     C354    1.416   1_545 S
C8     N39     1.366   .     A
C8     H30     1.082   .     S
C8     C179    1.416   .     S
C9     C26     1.397   .     A
C9     H35     1.084   .     S
C9     C127    1.370   1_455 S
C10    H36     1.084   .     S
C10    C25     1.397   .     A
C10    C70     1.370   .     S
C11    C25     1.397   .     A
C11    H37     1.084   .     S
C11    C67     1.370   .     S
C12    H38     1.084   .     S
C12    C26     1.397   .     A
C12    C126    1.370   1_455 S
C13    C17     1.391   .     A
C13    O51     1.383   .     S
C13    C23     1.404   .     A
C14    C18     1.391   .     A
C14    O53     1.383   .     S
C14    C24     1.404   .     A
C15    C19     1.391   .     A
C15    C24     1.404   .     A
C15    O55     1.383   .     S
C16    C23     1.404   .     A
C16    C20     1.391   .     A
C16    O57     1.383   .     S
C17    H31     1.084   .     S
C17    C21     1.396   .     A
C18    C22     1.396   .     A
C18    H32     1.084   .     S
C19    C22     1.396   .     A
C19    H33     1.084   .     S
C20    H34     1.084   .     S
C20    C21     1.396   .     A
C23    C546    1.444   1_554 S
C24    C545    1.444   .     S
N39    Zn49    2.007   .     S
N40    Zn50    2.007   .     S
O41    Zn49    2.000   .     S
O42    Zn50    2.000   .     S
O43    Zn49    2.000   .     S
O44    Zn50    2.000   .     S
O45    Zn49    1.998   .     S
O46    Zn50    1.998   .     S
O47    Zn49    1.998   .     S
O48    Zn50    1.998   .     S
O51    H52     0.992   .     S
O53    H54     0.992   .     S
O55    H56     0.992   .     S
O57    H58     0.992   .     S
C59    O102    1.282   .     A
C59    C84     1.419   .     S
C59    O99     1.282   .     A
C60    O101    1.282   .     A
C60    O100    1.282   .     A
C60    C83     1.419   .     S
C61    C79     1.434   .     S
C61    O106    1.286   .     A
C61    O103    1.286   .     A
C62    C80     1.434   .     S
C62    O104    1.286   .     A
C62    O105    1.286   .     A
C63    N98     1.366   .     A
C63    H85     1.082   .     S
C63    C414    1.416   1_545 S
C64    H86     1.082   .     S
C64    N97     1.366   .     A
C64    C239    1.416   .     S
C65    H87     1.082   .     S
C65    N98     1.366   .     A
C65    C412    1.416   1_545 S
C66    N97     1.366   .     A
C66    H88     1.082   .     S
C66    C237    1.416   .     S
C67    C84     1.397   .     A
C67    H93     1.084   .     S
C68    H94     1.084   .     S
C68    C83     1.397   .     A
C68    C128    1.370   .     S
C69    C83     1.397   .     A
C69    H95     1.084   .     S
C69    C125    1.370   .     S
C70    H96     1.084   .     S
C70    C84     1.397   .     A
C71    C75     1.391   .     A
C71    O109    1.383   .     S
C71    C81     1.404   .     A
C72    C76     1.391   .     A
C72    O111    1.383   .     S
C72    C82     1.404   .     A
C73    C77     1.391   .     A
C73    C82     1.404   .     A
C73    O113    1.383   .     S
C74    C81     1.404   .     A
C74    C78     1.391   .     A
C74    O115    1.383   .     S
C75    H89     1.084   .     S
C75    C79     1.396   .     A
C76    C80     1.396   .     A
C76    H90     1.084   .     S
C77    C80     1.396   .     A
C77    H91     1.084   .     S
C78    H92     1.084   .     S
C78    C79     1.396   .     A
C81    C604    1.444   1_554 S
C82    C603    1.444   .     S
N97    Zn107   2.007   .     S
N98    Zn108   2.007   .     S
O99    Zn107   2.000   .     S
O100   Zn108   2.000   .     S
O101   Zn107   2.000   .     S
O102   Zn108   2.000   .     S
O103   Zn107   1.998   .     S
O104   Zn108   1.998   .     S
O105   Zn107   1.998   .     S
O106   Zn108   1.998   .     S
O109   H110    0.992   .     S
O111   H112    0.992   .     S
O113   H114    0.992   .     S
O115   H116    0.992   .     S
C117   O160    1.282   .     A
C117   C142    1.419   .     S
C117   O157    1.282   .     A
C118   O159    1.282   .     A
C118   O158    1.282   .     A
C118   C141    1.419   .     S
C119   C137    1.434   .     S
C119   O164    1.286   .     A
C119   O161    1.286   .     A
C120   C138    1.434   .     S
C120   O162    1.286   .     A
C120   O163    1.286   .     A
C121   N156    1.366   .     A
C121   H143    1.082   .     S
C121   C472    1.416   1_545 S
C122   H144    1.082   .     S
C122   N155    1.366   .     A
C122   C297    1.416   .     S
C123   H145    1.082   .     S
C123   N156    1.366   .     A
C123   C470    1.416   1_545 S
C124   N155    1.366   .     A
C124   H146    1.082   .     S
C124   C295    1.416   .     S
C125   C142    1.397   .     A
C125   H151    1.084   .     S
C126   H152    1.084   .     S
C126   C141    1.397   .     A
C126   C12     1.370   1_655 S
C127   C141    1.397   .     A
C127   H153    1.084   .     S
C127   C9      1.370   1_655 S
C128   H154    1.084   .     S
C128   C142    1.397   .     A
C129   C133    1.391   .     A
C129   O167    1.383   .     S
C129   C139    1.404   .     A
C130   C134    1.391   .     A
C130   O169    1.383   .     S
C130   C140    1.404   .     A
C131   C135    1.391   .     A
C131   C140    1.404   .     A
C131   O171    1.383   .     S
C132   C139    1.404   .     A
C132   C136    1.391   .     A
C132   O173    1.383   .     S
C133   H147    1.084   .     S
C133   C137    1.396   .     A
C134   C138    1.396   .     A
C134   H148    1.084   .     S
C135   C138    1.396   .     A
C135   H149    1.084   .     S
C136   H150    1.084   .     S
C136   C137    1.396   .     A
C139   C662    1.444   1_554 S
C140   C661    1.444   .     S
N155   Zn165   2.007   .     S
N156   Zn166   2.007   .     S
O157   Zn165   2.000   .     S
O158   Zn166   2.000   .     S
O159   Zn165   2.000   .     S
O160   Zn166   2.000   .     S
O161   Zn165   1.998   .     S
O162   Zn166   1.998   .     S
O163   Zn165   1.998   .     S
O164   Zn166   1.998   .     S
O167   H168    0.992   .     S
O169   H170    0.992   .     S
O171   H172    0.992   .     S
O173   H174    0.992   .     S
C175   O218    1.282   .     A
C175   C200    1.419   .     S
C175   O215    1.282   .     A
C176   O217    1.282   .     A
C176   O216    1.282   .     A
C176   C199    1.419   .     S
C177   C195    1.434   .     S
C177   O222    1.286   .     A
C177   O219    1.286   .     A
C178   C196    1.434   .     S
C178   O220    1.286   .     A
C178   O221    1.286   .     A
C179   N214    1.366   .     A
C179   H201    1.082   .     S
C180   H202    1.082   .     S
C180   N213    1.366   .     A
C180   C355    1.416   .     S
C181   H203    1.082   .     S
C181   N214    1.366   .     A
C182   N213    1.366   .     A
C182   H204    1.082   .     S
C182   C353    1.416   .     S
C183   C200    1.397   .     A
C183   H209    1.084   .     S
C183   C301    1.370   1_455 S
C184   H210    1.084   .     S
C184   C199    1.397   .     A
C184   C244    1.370   .     S
C185   C199    1.397   .     A
C185   H211    1.084   .     S
C185   C241    1.370   .     S
C186   H212    1.084   .     S
C186   C200    1.397   .     A
C186   C300    1.370   1_455 S
C187   C191    1.391   .     A
C187   O225    1.383   .     S
C187   C197    1.404   .     A
C188   C192    1.391   .     A
C188   O227    1.383   .     S
C188   C198    1.404   .     A
C189   C193    1.391   .     A
C189   C198    1.404   .     A
C189   O229    1.383   .     S
C190   C197    1.404   .     A
C190   C194    1.391   .     A
C190   O231    1.383   .     S
C191   H205    1.084   .     S
C191   C195    1.396   .     A
C192   C196    1.396   .     A
C192   H206    1.084   .     S
C193   C196    1.396   .     A
C193   H207    1.084   .     S
C194   H208    1.084   .     S
C194   C195    1.396   .     A
C197   C720    1.444   1_554 S
C198   C719    1.444   .     S
N213   Zn223   2.007   .     S
N214   Zn224   2.007   .     S
O215   Zn223   2.000   .     S
O216   Zn224   2.000   .     S
O217   Zn223   2.000   .     S
O218   Zn224   2.000   .     S
O219   Zn223   1.998   .     S
O220   Zn224   1.998   .     S
O221   Zn223   1.998   .     S
O222   Zn224   1.998   .     S
O225   H226    0.992   .     S
O227   H228    0.992   .     S
O229   H230    0.992   .     S
O231   H232    0.992   .     S
C233   O276    1.282   .     A
C233   C258    1.419   .     S
C233   O273    1.282   .     A
C234   O275    1.282   .     A
C234   O274    1.282   .     A
C234   C257    1.419   .     S
C235   C253    1.434   .     S
C235   O280    1.286   .     A
C235   O277    1.286   .     A
C236   C254    1.434   .     S
C236   O278    1.286   .     A
C236   O279    1.286   .     A
C237   N272    1.366   .     A
C237   H259    1.082   .     S
C238   H260    1.082   .     S
C238   N271    1.366   .     A
C238   C413    1.416   .     S
C239   H261    1.082   .     S
C239   N272    1.366   .     A
C240   N271    1.366   .     A
C240   H262    1.082   .     S
C240   C411    1.416   .     S
C241   C258    1.397   .     A
C241   H267    1.084   .     S
C242   H268    1.084   .     S
C242   C257    1.397   .     A
C242   C302    1.370   .     S
C243   C257    1.397   .     A
C243   H269    1.084   .     S
C243   C299    1.370   .     S
C244   H270    1.084   .     S
C244   C258    1.397   .     A
C245   C249    1.391   .     A
C245   O283    1.383   .     S
C245   C255    1.404   .     A
C246   C250    1.391   .     A
C246   O285    1.383   .     S
C246   C256    1.404   .     A
C247   C251    1.391   .     A
C247   C256    1.404   .     A
C247   O287    1.383   .     S
C248   C255    1.404   .     A
C248   C252    1.391   .     A
C248   O289    1.383   .     S
C249   H263    1.084   .     S
C249   C253    1.396   .     A
C250   C254    1.396   .     A
C250   H264    1.084   .     S
C251   C254    1.396   .     A
C251   H265    1.084   .     S
C252   H266    1.084   .     S
C252   C253    1.396   .     A
C255   C778    1.444   1_554 S
C256   C777    1.444   .     S
N271   Zn281   2.007   .     S
N272   Zn282   2.007   .     S
O273   Zn281   2.000   .     S
O274   Zn282   2.000   .     S
O275   Zn281   2.000   .     S
O276   Zn282   2.000   .     S
O277   Zn281   1.998   .     S
O278   Zn282   1.998   .     S
O279   Zn281   1.998   .     S
O280   Zn282   1.998   .     S
O283   H284    0.992   .     S
O285   H286    0.992   .     S
O287   H288    0.992   .     S
O289   H290    0.992   .     S
C291   O334    1.282   .     A
C291   C316    1.419   .     S
C291   O331    1.282   .     A
C292   O333    1.282   .     A
C292   O332    1.282   .     A
C292   C315    1.419   .     S
C293   C311    1.434   .     S
C293   O338    1.286   .     A
C293   O335    1.286   .     A
C294   C312    1.434   .     S
C294   O336    1.286   .     A
C294   O337    1.286   .     A
C295   N330    1.366   .     A
C295   H317    1.082   .     S
C296   H318    1.082   .     S
C296   N329    1.366   .     A
C296   C471    1.416   .     S
C297   H319    1.082   .     S
C297   N330    1.366   .     A
C298   N329    1.366   .     A
C298   H320    1.082   .     S
C298   C469    1.416   .     S
C299   C316    1.397   .     A
C299   H325    1.084   .     S
C300   H326    1.084   .     S
C300   C315    1.397   .     A
C300   C186    1.370   1_655 S
C301   C315    1.397   .     A
C301   H327    1.084   .     S
C301   C183    1.370   1_655 S
C302   H328    1.084   .     S
C302   C316    1.397   .     A
C303   C307    1.391   .     A
C303   O341    1.383   .     S
C303   C313    1.404   .     A
C304   C308    1.391   .     A
C304   O343    1.383   .     S
C304   C314    1.404   .     A
C305   C309    1.391   .     A
C305   C314    1.404   .     A
C305   O345    1.383   .     S
C306   C313    1.404   .     A
C306   C310    1.391   .     A
C306   O347    1.383   .     S
C307   H321    1.084   .     S
C307   C311    1.396   .     A
C308   C312    1.396   .     A
C308   H322    1.084   .     S
C309   C312    1.396   .     A
C309   H323    1.084   .     S
C310   H324    1.084   .     S
C310   C311    1.396   .     A
C313   C836    1.444   1_554 S
C314   C835    1.444   .     S
N329   Zn339   2.007   .     S
N330   Zn340   2.007   .     S
O331   Zn339   2.000   .     S
O332   Zn340   2.000   .     S
O333   Zn339   2.000   .     S
O334   Zn340   2.000   .     S
O335   Zn339   1.998   .     S
O336   Zn340   1.998   .     S
O337   Zn339   1.998   .     S
O338   Zn340   1.998   .     S
O341   H342    0.992   .     S
O343   H344    0.992   .     S
O345   H346    0.992   .     S
O347   H348    0.992   .     S
C349   O392    1.282   .     A
C349   C374    1.419   .     S
C349   O389    1.282   .     A
C350   O391    1.282   .     A
C350   O390    1.282   .     A
C350   C373    1.419   .     S
C351   C369    1.434   .     S
C351   O396    1.286   .     A
C351   O393    1.286   .     A
C352   C370    1.434   .     S
C352   O394    1.286   .     A
C352   O395    1.286   .     A
C353   N388    1.366   .     A
C353   H375    1.082   .     S
C354   H376    1.082   .     S
C354   N387    1.366   .     A
C354   C7      1.416   1_565 S
C355   H377    1.082   .     S
C355   N388    1.366   .     A
C356   N387    1.366   .     A
C356   H378    1.082   .     S
C356   C5      1.416   1_565 S
C357   C374    1.397   .     A
C357   H383    1.084   .     S
C357   C475    1.370   1_455 S
C358   H384    1.084   .     S
C358   C373    1.397   .     A
C358   C418    1.370   .     S
C359   C373    1.397   .     A
C359   H385    1.084   .     S
C359   C415    1.370   .     S
C360   H386    1.084   .     S
C360   C374    1.397   .     A
C360   C474    1.370   1_455 S
C361   C365    1.391   .     A
C361   O399    1.383   .     S
C361   C371    1.404   .     A
C362   C366    1.391   .     A
C362   O401    1.383   .     S
C362   C372    1.404   .     A
C363   C367    1.391   .     A
C363   C372    1.404   .     A
C363   O403    1.383   .     S
C364   C371    1.404   .     A
C364   C368    1.391   .     A
C364   O405    1.383   .     S
C365   H379    1.084   .     S
C365   C369    1.396   .     A
C366   C370    1.396   .     A
C366   H380    1.084   .     S
C367   C370    1.396   .     A
C367   H381    1.084   .     S
C368   H382    1.084   .     S
C368   C369    1.396   .     A
C371   C894    1.444   1_554 S
C372   C893    1.444   .     S
N387   Zn397   2.007   .     S
N388   Zn398   2.007   .     S
O389   Zn397   2.000   .     S
O390   Zn398   2.000   .     S
O391   Zn397   2.000   .     S
O392   Zn398   2.000   .     S
O393   Zn397   1.998   .     S
O394   Zn398   1.998   .     S
O395   Zn397   1.998   .     S
O396   Zn398   1.998   .     S
O399   H400    0.992   .     S
O401   H402    0.992   .     S
O403   H404    0.992   .     S
O405   H406    0.992   .     S
C407   O450    1.282   .     A
C407   C432    1.419   .     S
C407   O447    1.282   .     A
C408   O449    1.282   .     A
C408   O448    1.282   .     A
C408   C431    1.419   .     S
C409   C427    1.434   .     S
C409   O454    1.286   .     A
C409   O451    1.286   .     A
C410   C428    1.434   .     S
C410   O452    1.286   .     A
C410   O453    1.286   .     A
C411   N446    1.366   .     A
C411   H433    1.082   .     S
C412   H434    1.082   .     S
C412   N445    1.366   .     A
C412   C65     1.416   1_565 S
C413   H435    1.082   .     S
C413   N446    1.366   .     A
C414   N445    1.366   .     A
C414   H436    1.082   .     S
C414   C63     1.416   1_565 S
C415   C432    1.397   .     A
C415   H441    1.084   .     S
C416   H442    1.084   .     S
C416   C431    1.397   .     A
C416   C476    1.370   .     S
C417   C431    1.397   .     A
C417   H443    1.084   .     S
C417   C473    1.370   .     S
C418   H444    1.084   .     S
C418   C432    1.397   .     A
C419   C423    1.391   .     A
C419   O457    1.383   .     S
C419   C429    1.404   .     A
C420   C424    1.391   .     A
C420   O459    1.383   .     S
C420   C430    1.404   .     A
C421   C425    1.391   .     A
C421   C430    1.404   .     A
C421   O461    1.383   .     S
C422   C429    1.404   .     A
C422   C426    1.391   .     A
C422   O463    1.383   .     S
C423   H437    1.084   .     S
C423   C427    1.396   .     A
C424   C428    1.396   .     A
C424   H438    1.084   .     S
C425   C428    1.396   .     A
C425   H439    1.084   .     S
C426   H440    1.084   .     S
C426   C427    1.396   .     A
C429   C952    1.444   1_554 S
C430   C951    1.444   .     S
N445   Zn455   2.007   .     S
N446   Zn456   2.007   .     S
O447   Zn455   2.000   .     S
O448   Zn456   2.000   .     S
O449   Zn455   2.000   .     S
O450   Zn456   2.000   .     S
O451   Zn455   1.998   .     S
O452   Zn456   1.998   .     S
O453   Zn455   1.998   .     S
O454   Zn456   1.998   .     S
O457   H458    0.992   .     S
O459   H460    0.992   .     S
O461   H462    0.992   .     S
O463   H464    0.992   .     S
C465   O508    1.282   .     A
C465   C490    1.419   .     S
C465   O505    1.282   .     A
C466   O507    1.282   .     A
C466   O506    1.282   .     A
C466   C489    1.419   .     S
C467   C485    1.434   .     S
C467   O512    1.286   .     A
C467   O509    1.286   .     A
C468   C486    1.434   .     S
C468   O510    1.286   .     A
C468   O511    1.286   .     A
C469   N504    1.366   .     A
C469   H491    1.082   .     S
C470   H492    1.082   .     S
C470   N503    1.366   .     A
C470   C123    1.416   1_565 S
C471   H493    1.082   .     S
C471   N504    1.366   .     A
C472   N503    1.366   .     A
C472   H494    1.082   .     S
C472   C121    1.416   1_565 S
C473   C490    1.397   .     A
C473   H499    1.084   .     S
C474   H500    1.084   .     S
C474   C489    1.397   .     A
C474   C360    1.370   1_655 S
C475   C489    1.397   .     A
C475   H501    1.084   .     S
C475   C357    1.370   1_655 S
C476   H502    1.084   .     S
C476   C490    1.397   .     A
C477   C481    1.391   .     A
C477   O515    1.383   .     S
C477   C487    1.404   .     A
C478   C482    1.391   .     A
C478   O517    1.383   .     S
C478   C488    1.404   .     A
C479   C483    1.391   .     A
C479   C488    1.404   .     A
C479   O519    1.383   .     S
C480   C487    1.404   .     A
C480   C484    1.391   .     A
C480   O521    1.383   .     S
C481   H495    1.084   .     S
C481   C485    1.396   .     A
C482   C486    1.396   .     A
C482   H496    1.084   .     S
C483   C486    1.396   .     A
C483   H497    1.084   .     S
C484   H498    1.084   .     S
C484   C485    1.396   .     A
C487   C1010   1.444   1_554 S
C488   C1009   1.444   .     S
N503   Zn513   2.007   .     S
N504   Zn514   2.007   .     S
O505   Zn513   2.000   .     S
O506   Zn514   2.000   .     S
O507   Zn513   2.000   .     S
O508   Zn514   2.000   .     S
O509   Zn513   1.998   .     S
O510   Zn514   1.998   .     S
O511   Zn513   1.998   .     S
O512   Zn514   1.998   .     S
O515   H516    0.992   .     S
O517   H518    0.992   .     S
O519   H520    0.992   .     S
O521   H522    0.992   .     S
C523   O566    1.282   .     A
C523   C548    1.419   .     S
C523   O563    1.282   .     A
C524   O565    1.282   .     A
C524   O564    1.282   .     A
C524   C547    1.419   .     S
C525   C543    1.434   .     S
C525   O570    1.286   .     A
C525   O567    1.286   .     A
C526   C544    1.434   .     S
C526   O568    1.286   .     A
C526   O569    1.286   .     A
C527   N562    1.366   .     A
C527   H549    1.082   .     S
C527   C878    1.416   1_545 S
C528   H550    1.082   .     S
C528   N561    1.366   .     A
C528   C703    1.416   .     S
C529   H551    1.082   .     S
C529   N562    1.366   .     A
C529   C876    1.416   1_545 S
C530   N561    1.366   .     A
C530   H552    1.082   .     S
C530   C701    1.416   .     S
C531   C548    1.397   .     A
C531   H557    1.084   .     S
C531   C649    1.370   1_455 S
C532   H558    1.084   .     S
C532   C547    1.397   .     A
C532   C592    1.370   .     S
C533   C547    1.397   .     A
C533   H559    1.084   .     S
C533   C589    1.370   .     S
C534   H560    1.084   .     S
C534   C548    1.397   .     A
C534   C648    1.370   1_455 S
C535   C539    1.391   .     A
C535   O573    1.383   .     S
C535   C545    1.404   .     A
C536   C540    1.391   .     A
C536   O575    1.383   .     S
C536   C546    1.404   .     A
C537   C541    1.391   .     A
C537   C546    1.404   .     A
C537   O577    1.383   .     S
C538   C545    1.404   .     A
C538   C542    1.391   .     A
C538   O579    1.383   .     S
C539   H553    1.084   .     S
C539   C543    1.396   .     A
C540   C544    1.396   .     A
C540   H554    1.084   .     S
C541   C544    1.396   .     A
C541   H555    1.084   .     S
C542   H556    1.084   .     S
C542   C543    1.396   .     A
C546   C23     1.444   1_556 S
N561   Zn571   2.007   .     S
N562   Zn572   2.007   .     S
O563   Zn571   2.000   .     S
O564   Zn572   2.000   .     S
O565   Zn571   2.000   .     S
O566   Zn572   2.000   .     S
O567   Zn571   1.998   .     S
O568   Zn572   1.998   .     S
O569   Zn571   1.998   .     S
O570   Zn572   1.998   .     S
O573   H574    0.992   .     S
O575   H576    0.992   .     S
O577   H578    0.992   .     S
O579   H580    0.992   .     S
C581   O624    1.282   .     A
C581   C606    1.419   .     S
C581   O621    1.282   .     A
C582   O623    1.282   .     A
C582   O622    1.282   .     A
C582   C605    1.419   .     S
C583   C601    1.434   .     S
C583   O628    1.286   .     A
C583   O625    1.286   .     A
C584   C602    1.434   .     S
C584   O626    1.286   .     A
C584   O627    1.286   .     A
C585   N620    1.366   .     A
C585   H607    1.082   .     S
C585   C936    1.416   1_545 S
C586   H608    1.082   .     S
C586   N619    1.366   .     A
C586   C761    1.416   .     S
C587   H609    1.082   .     S
C587   N620    1.366   .     A
C587   C934    1.416   1_545 S
C588   N619    1.366   .     A
C588   H610    1.082   .     S
C588   C759    1.416   .     S
C589   C606    1.397   .     A
C589   H615    1.084   .     S
C590   H616    1.084   .     S
C590   C605    1.397   .     A
C590   C650    1.370   .     S
C591   C605    1.397   .     A
C591   H617    1.084   .     S
C591   C647    1.370   .     S
C592   H618    1.084   .     S
C592   C606    1.397   .     A
C593   C597    1.391   .     A
C593   O631    1.383   .     S
C593   C603    1.404   .     A
C594   C598    1.391   .     A
C594   O633    1.383   .     S
C594   C604    1.404   .     A
C595   C599    1.391   .     A
C595   C604    1.404   .     A
C595   O635    1.383   .     S
C596   C603    1.404   .     A
C596   C600    1.391   .     A
C596   O637    1.383   .     S
C597   H611    1.084   .     S
C597   C601    1.396   .     A
C598   C602    1.396   .     A
C598   H612    1.084   .     S
C599   C602    1.396   .     A
C599   H613    1.084   .     S
C600   H614    1.084   .     S
C600   C601    1.396   .     A
C604   C81     1.444   1_556 S
N619   Zn629   2.007   .     S
N620   Zn630   2.007   .     S
O621   Zn629   2.000   .     S
O622   Zn630   2.000   .     S
O623   Zn629   2.000   .     S
O624   Zn630   2.000   .     S
O625   Zn629   1.998   .     S
O626   Zn630   1.998   .     S
O627   Zn629   1.998   .     S
O628   Zn630   1.998   .     S
O631   H632    0.992   .     S
O633   H634    0.992   .     S
O635   H636    0.992   .     S
O637   H638    0.992   .     S
C639   O682    1.282   .     A
C639   C664    1.419   .     S
C639   O679    1.282   .     A
C640   O681    1.282   .     A
C640   O680    1.282   .     A
C640   C663    1.419   .     S
C641   C659    1.434   .     S
C641   O686    1.286   .     A
C641   O683    1.286   .     A
C642   C660    1.434   .     S
C642   O684    1.286   .     A
C642   O685    1.286   .     A
C643   N678    1.366   .     A
C643   H665    1.082   .     S
C643   C994    1.416   1_545 S
C644   H666    1.082   .     S
C644   N677    1.366   .     A
C644   C819    1.416   .     S
C645   H667    1.082   .     S
C645   N678    1.366   .     A
C645   C992    1.416   1_545 S
C646   N677    1.366   .     A
C646   H668    1.082   .     S
C646   C817    1.416   .     S
C647   C664    1.397   .     A
C647   H673    1.084   .     S
C648   H674    1.084   .     S
C648   C663    1.397   .     A
C648   C534    1.370   1_655 S
C649   C663    1.397   .     A
C649   H675    1.084   .     S
C649   C531    1.370   1_655 S
C650   H676    1.084   .     S
C650   C664    1.397   .     A
C651   C655    1.391   .     A
C651   O689    1.383   .     S
C651   C661    1.404   .     A
C652   C656    1.391   .     A
C652   O691    1.383   .     S
C652   C662    1.404   .     A
C653   C657    1.391   .     A
C653   C662    1.404   .     A
C653   O693    1.383   .     S
C654   C661    1.404   .     A
C654   C658    1.391   .     A
C654   O695    1.383   .     S
C655   H669    1.084   .     S
C655   C659    1.396   .     A
C656   C660    1.396   .     A
C656   H670    1.084   .     S
C657   C660    1.396   .     A
C657   H671    1.084   .     S
C658   H672    1.084   .     S
C658   C659    1.396   .     A
C662   C139    1.444   1_556 S
N677   Zn687   2.007   .     S
N678   Zn688   2.007   .     S
O679   Zn687   2.000   .     S
O680   Zn688   2.000   .     S
O681   Zn687   2.000   .     S
O682   Zn688   2.000   .     S
O683   Zn687   1.998   .     S
O684   Zn688   1.998   .     S
O685   Zn687   1.998   .     S
O686   Zn688   1.998   .     S
O689   H690    0.992   .     S
O691   H692    0.992   .     S
O693   H694    0.992   .     S
O695   H696    0.992   .     S
C697   O740    1.282   .     A
C697   C722    1.419   .     S
C697   O737    1.282   .     A
C698   O739    1.282   .     A
C698   O738    1.282   .     A
C698   C721    1.419   .     S
C699   C717    1.434   .     S
C699   O744    1.286   .     A
C699   O741    1.286   .     A
C700   C718    1.434   .     S
C700   O742    1.286   .     A
C700   O743    1.286   .     A
C701   N736    1.366   .     A
C701   H723    1.082   .     S
C702   H724    1.082   .     S
C702   N735    1.366   .     A
C702   C877    1.416   .     S
C703   H725    1.082   .     S
C703   N736    1.366   .     A
C704   N735    1.366   .     A
C704   H726    1.082   .     S
C704   C875    1.416   .     S
C705   C722    1.397   .     A
C705   H731    1.084   .     S
C705   C823    1.370   1_455 S
C706   H732    1.084   .     S
C706   C721    1.397   .     A
C706   C766    1.370   .     S
C707   C721    1.397   .     A
C707   H733    1.084   .     S
C707   C763    1.370   .     S
C708   H734    1.084   .     S
C708   C722    1.397   .     A
C708   C822    1.370   1_455 S
C709   C713    1.391   .     A
C709   O747    1.383   .     S
C709   C719    1.404   .     A
C710   C714    1.391   .     A
C710   O749    1.383   .     S
C710   C720    1.404   .     A
C711   C715    1.391   .     A
C711   C720    1.404   .     A
C711   O751    1.383   .     S
C712   C719    1.404   .     A
C712   C716    1.391   .     A
C712   O753    1.383   .     S
C713   H727    1.084   .     S
C713   C717    1.396   .     A
C714   C718    1.396   .     A
C714   H728    1.084   .     S
C715   C718    1.396   .     A
C715   H729    1.084   .     S
C716   H730    1.084   .     S
C716   C717    1.396   .     A
C720   C197    1.444   1_556 S
N735   Zn745   2.007   .     S
N736   Zn746   2.007   .     S
O737   Zn745   2.000   .     S
O738   Zn746   2.000   .     S
O739   Zn745   2.000   .     S
O740   Zn746   2.000   .     S
O741   Zn745   1.998   .     S
O742   Zn746   1.998   .     S
O743   Zn745   1.998   .     S
O744   Zn746   1.998   .     S
O747   H748    0.992   .     S
O749   H750    0.992   .     S
O751   H752    0.992   .     S
O753   H754    0.992   .     S
C755   O798    1.282   .     A
C755   C780    1.419   .     S
C755   O795    1.282   .     A
C756   O797    1.282   .     A
C756   O796    1.282   .     A
C756   C779    1.419   .     S
C757   C775    1.434   .     S
C757   O802    1.286   .     A
C757   O799    1.286   .     A
C758   C776    1.434   .     S
C758   O800    1.286   .     A
C758   O801    1.286   .     A
C759   N794    1.366   .     A
C759   H781    1.082   .     S
C760   H782    1.082   .     S
C760   N793    1.366   .     A
C760   C935    1.416   .     S
C761   H783    1.082   .     S
C761   N794    1.366   .     A
C762   N793    1.366   .     A
C762   H784    1.082   .     S
C762   C933    1.416   .     S
C763   C780    1.397   .     A
C763   H789    1.084   .     S
C764   H790    1.084   .     S
C764   C779    1.397   .     A
C764   C824    1.370   .     S
C765   C779    1.397   .     A
C765   H791    1.084   .     S
C765   C821    1.370   .     S
C766   H792    1.084   .     S
C766   C780    1.397   .     A
C767   C771    1.391   .     A
C767   O805    1.383   .     S
C767   C777    1.404   .     A
C768   C772    1.391   .     A
C768   O807    1.383   .     S
C768   C778    1.404   .     A
C769   C773    1.391   .     A
C769   C778    1.404   .     A
C769   O809    1.383   .     S
C770   C777    1.404   .     A
C770   C774    1.391   .     A
C770   O811    1.383   .     S
C771   H785    1.084   .     S
C771   C775    1.396   .     A
C772   C776    1.396   .     A
C772   H786    1.084   .     S
C773   C776    1.396   .     A
C773   H787    1.084   .     S
C774   H788    1.084   .     S
C774   C775    1.396   .     A
C778   C255    1.444   1_556 S
N793   Zn803   2.007   .     S
N794   Zn804   2.007   .     S
O795   Zn803   2.000   .     S
O796   Zn804   2.000   .     S
O797   Zn803   2.000   .     S
O798   Zn804   2.000   .     S
O799   Zn803   1.998   .     S
O800   Zn804   1.998   .     S
O801   Zn803   1.998   .     S
O802   Zn804   1.998   .     S
O805   H806    0.992   .     S
O807   H808    0.992   .     S
O809   H810    0.992   .     S
O811   H812    0.992   .     S
C813   O856    1.282   .     A
C813   C838    1.419   .     S
C813   O853    1.282   .     A
C814   O855    1.282   .     A
C814   O854    1.282   .     A
C814   C837    1.419   .     S
C815   C833    1.434   .     S
C815   O860    1.286   .     A
C815   O857    1.286   .     A
C816   C834    1.434   .     S
C816   O858    1.286   .     A
C816   O859    1.286   .     A
C817   N852    1.366   .     A
C817   H839    1.082   .     S
C818   H840    1.082   .     S
C818   N851    1.366   .     A
C818   C993    1.416   .     S
C819   H841    1.082   .     S
C819   N852    1.366   .     A
C820   N851    1.366   .     A
C820   H842    1.082   .     S
C820   C991    1.416   .     S
C821   C838    1.397   .     A
C821   H847    1.084   .     S
C822   H848    1.084   .     S
C822   C837    1.397   .     A
C822   C708    1.370   1_655 S
C823   C837    1.397   .     A
C823   H849    1.084   .     S
C823   C705    1.370   1_655 S
C824   H850    1.084   .     S
C824   C838    1.397   .     A
C825   C829    1.391   .     A
C825   O863    1.383   .     S
C825   C835    1.404   .     A
C826   C830    1.391   .     A
C826   O865    1.383   .     S
C826   C836    1.404   .     A
C827   C831    1.391   .     A
C827   C836    1.404   .     A
C827   O867    1.383   .     S
C828   C835    1.404   .     A
C828   C832    1.391   .     A
C828   O869    1.383   .     S
C829   H843    1.084   .     S
C829   C833    1.396   .     A
C830   C834    1.396   .     A
C830   H844    1.084   .     S
C831   C834    1.396   .     A
C831   H845    1.084   .     S
C832   H846    1.084   .     S
C832   C833    1.396   .     A
C836   C313    1.444   1_556 S
N851   Zn861   2.007   .     S
N852   Zn862   2.007   .     S
O853   Zn861   2.000   .     S
O854   Zn862   2.000   .     S
O855   Zn861   2.000   .     S
O856   Zn862   2.000   .     S
O857   Zn861   1.998   .     S
O858   Zn862   1.998   .     S
O859   Zn861   1.998   .     S
O860   Zn862   1.998   .     S
O863   H864    0.992   .     S
O865   H866    0.992   .     S
O867   H868    0.992   .     S
O869   H870    0.992   .     S
C871   O914    1.282   .     A
C871   C896    1.419   .     S
C871   O911    1.282   .     A
C872   O913    1.282   .     A
C872   O912    1.282   .     A
C872   C895    1.419   .     S
C873   C891    1.434   .     S
C873   O918    1.286   .     A
C873   O915    1.286   .     A
C874   C892    1.434   .     S
C874   O916    1.286   .     A
C874   O917    1.286   .     A
C875   N910    1.366   .     A
C875   H897    1.082   .     S
C876   H898    1.082   .     S
C876   N909    1.366   .     A
C876   C529    1.416   1_565 S
C877   H899    1.082   .     S
C877   N910    1.366   .     A
C878   N909    1.366   .     A
C878   H900    1.082   .     S
C878   C527    1.416   1_565 S
C879   C896    1.397   .     A
C879   H905    1.084   .     S
C879   C997    1.370   1_455 S
C880   H906    1.084   .     S
C880   C895    1.397   .     A
C880   C940    1.370   .     S
C881   C895    1.397   .     A
C881   H907    1.084   .     S
C881   C937    1.370   .     S
C882   H908    1.084   .     S
C882   C896    1.397   .     A
C882   C996    1.370   1_455 S
C883   C887    1.391   .     A
C883   O921    1.383   .     S
C883   C893    1.404   .     A
C884   C888    1.391   .     A
C884   O923    1.383   .     S
C884   C894    1.404   .     A
C885   C889    1.391   .     A
C885   C894    1.404   .     A
C885   O925    1.383   .     S
C886   C893    1.404   .     A
C886   C890    1.391   .     A
C886   O927    1.383   .     S
C887   H901    1.084   .     S
C887   C891    1.396   .     A
C888   C892    1.396   .     A
C888   H902    1.084   .     S
C889   C892    1.396   .     A
C889   H903    1.084   .     S
C890   H904    1.084   .     S
C890   C891    1.396   .     A
C894   C371    1.444   1_556 S
N909   Zn919   2.007   .     S
N910   Zn920   2.007   .     S
O911   Zn919   2.000   .     S
O912   Zn920   2.000   .     S
O913   Zn919   2.000   .     S
O914   Zn920   2.000   .     S
O915   Zn919   1.998   .     S
O916   Zn920   1.998   .     S
O917   Zn919   1.998   .     S
O918   Zn920   1.998   .     S
O921   H922    0.992   .     S
O923   H924    0.992   .     S
O925   H926    0.992   .     S
O927   H928    0.992   .     S
C929   O972    1.282   .     A
C929   C954    1.419   .     S
C929   O969    1.282   .     A
C930   O971    1.282   .     A
C930   O970    1.282   .     A
C930   C953    1.419   .     S
C931   C949    1.434   .     S
C931   O976    1.286   .     A
C931   O973    1.286   .     A
C932   C950    1.434   .     S
C932   O974    1.286   .     A
C932   O975    1.286   .     A
C933   N968    1.366   .     A
C933   H955    1.082   .     S
C934   H956    1.082   .     S
C934   N967    1.366   .     A
C934   C587    1.416   1_565 S
C935   H957    1.082   .     S
C935   N968    1.366   .     A
C936   N967    1.366   .     A
C936   H958    1.082   .     S
C936   C585    1.416   1_565 S
C937   C954    1.397   .     A
C937   H963    1.084   .     S
C938   H964    1.084   .     S
C938   C953    1.397   .     A
C938   C998    1.370   .     S
C939   C953    1.397   .     A
C939   H965    1.084   .     S
C939   C995    1.370   .     S
C940   H966    1.084   .     S
C940   C954    1.397   .     A
C941   C945    1.391   .     A
C941   O979    1.383   .     S
C941   C951    1.404   .     A
C942   C946    1.391   .     A
C942   O981    1.383   .     S
C942   C952    1.404   .     A
C943   C947    1.391   .     A
C943   C952    1.404   .     A
C943   O983    1.383   .     S
C944   C951    1.404   .     A
C944   C948    1.391   .     A
C944   O985    1.383   .     S
C945   H959    1.084   .     S
C945   C949    1.396   .     A
C946   C950    1.396   .     A
C946   H960    1.084   .     S
C947   C950    1.396   .     A
C947   H961    1.084   .     S
C948   H962    1.084   .     S
C948   C949    1.396   .     A
C952   C429    1.444   1_556 S
N967   Zn977   2.007   .     S
N968   Zn978   2.007   .     S
O969   Zn977   2.000   .     S
O970   Zn978   2.000   .     S
O971   Zn977   2.000   .     S
O972   Zn978   2.000   .     S
O973   Zn977   1.998   .     S
O974   Zn978   1.998   .     S
O975   Zn977   1.998   .     S
O976   Zn978   1.998   .     S
O979   H980    0.992   .     S
O981   H982    0.992   .     S
O983   H984    0.992   .     S
O985   H986    0.992   .     S
C987   O1030   1.282   .     A
C987   C1012   1.419   .     S
C987   O1027   1.282   .     A
C988   O1029   1.282   .     A
C988   O1028   1.282   .     A
C988   C1011   1.419   .     S
C989   C1007   1.434   .     S
C989   O1034   1.286   .     A
C989   O1031   1.286   .     A
C990   C1008   1.434   .     S
C990   O1032   1.286   .     A
C990   O1033   1.286   .     A
C991   N1026   1.366   .     A
C991   H1013   1.082   .     S
C992   H1014   1.082   .     S
C992   N1025   1.366   .     A
C992   C645    1.416   1_565 S
C993   H1015   1.082   .     S
C993   N1026   1.366   .     A
C994   N1025   1.366   .     A
C994   H1016   1.082   .     S
C994   C643    1.416   1_565 S
C995   C1012   1.397   .     A
C995   H1021   1.084   .     S
C996   H1022   1.084   .     S
C996   C1011   1.397   .     A
C996   C882    1.370   1_655 S
C997   C1011   1.397   .     A
C997   H1023   1.084   .     S
C997   C879    1.370   1_655 S
C998   H1024   1.084   .     S
C998   C1012   1.397   .     A
C999   C1003   1.391   .     A
C999   O1037   1.383   .     S
C999   C1009   1.404   .     A
C1000  C1004   1.391   .     A
C1000  O1039   1.383   .     S
C1000  C1010   1.404   .     A
C1001  C1005   1.391   .     A
C1001  C1010   1.404   .     A
C1001  O1041   1.383   .     S
C1002  C1009   1.404   .     A
C1002  C1006   1.391   .     A
C1002  O1043   1.383   .     S
C1003  H1017   1.084   .     S
C1003  C1007   1.396   .     A
C1004  C1008   1.396   .     A
C1004  H1018   1.084   .     S
C1005  C1008   1.396   .     A
C1005  H1019   1.084   .     S
C1006  H1020   1.084   .     S
C1006  C1007   1.396   .     A
C1010  C487    1.444   1_556 S
N1025  Zn1035  2.007   .     S
N1026  Zn1036  2.007   .     S
O1027  Zn1035  2.000   .     S
O1028  Zn1036  2.000   .     S
O1029  Zn1035  2.000   .     S
O1030  Zn1036  2.000   .     S
O1031  Zn1035  1.998   .     S
O1032  Zn1036  1.998   .     S
O1033  Zn1035  1.998   .     S
O1034  Zn1036  1.998   .     S
O1037  H1038   0.992   .     S
O1039  H1040   0.992   .     S
O1041  H1042   0.992   .     S
O1043  H1044   0.992   .     S
