data_str_m2_o10_o16_pcu_sym.181
_audit_creation_date              2020-01-03
_audit_creation_method            'Materials Studio'
_symmetry_space_group_name_H-M    'P1'
_symmetry_Int_Tables_number       1
_symmetry_cell_setting            triclinic
loop_
_symmetry_equiv_pos_as_xyz
  x,y,z
_cell_length_a                    22.6005
_cell_length_b                    26.1198
_cell_length_c                    26.8144
_cell_angle_alpha                 96.4218
_cell_angle_beta                  77.8526
_cell_angle_gamma                 103.7831
loop_
_atom_site_label
_atom_site_type_symbol
_atom_site_fract_x
_atom_site_fract_y
_atom_site_fract_z
_atom_site_U_iso_or_equiv
_atom_site_adp_type
_atom_site_occupancy
C1     C     0.18191   0.26674   0.25163   0.00000  Uiso   1.00
C2     C     0.13965   0.16979   0.48789   0.00000  Uiso   1.00
C3     C     0.15599   0.18479   0.43669   0.00000  Uiso   1.00
C4     C     0.18608   0.18188   0.01865   0.00000  Uiso   1.00
C5     C     0.24574   0.21289   0.49963   0.00000  Uiso   1.00
C6     C     0.25831   0.23239   0.45140   0.00000  Uiso   1.00
C7     C     0.21388   0.21931   0.42072   0.00000  Uiso   1.00
C8     C     0.17517   0.16388   0.06777   0.00000  Uiso   1.00
C9     C     0.27880   0.20865   0.07915   0.00000  Uiso   1.00
C10    C     0.11358   0.16531   0.40305   0.00000  Uiso   1.00
C11    C     0.19019   0.32295   0.25234   0.00000  Uiso   1.00
C12    C     0.13368   0.16606   0.34709   0.00000  Uiso   1.00
C13    C     0.14308   0.01039   0.24780   0.00000  Uiso   1.00
C14    C     0.15135   0.06660   0.24855   0.00000  Uiso   1.00
C15    C     0.20007   0.17049   0.15326   0.00000  Uiso   1.00
C16    C     0.29183   0.22522   0.02965   0.00000  Uiso   1.00
C17    C     0.21976   0.17916   0.09875   0.00000  Uiso   1.00
C18    C     0.05253   0.13946   0.42275   0.00000  Uiso   1.00
C19    C     0.03444   0.12993   0.47420   0.00000  Uiso   1.00
C20    C     0.07741   0.14385   0.00636   0.00000  Uiso   1.00
Cu21   Cu    0.10710   0.16105   0.24435   0.00000  Uiso   1.00
Cu22   Cu    0.22623   0.17228   0.25564   0.00000  Uiso   1.00
H23    H     0.31385   0.22079   0.10272   0.00000  Uiso   1.00
H24    H     0.09796   0.31935   0.24351   0.00000  Uiso   1.00
H25    H     0.00351   0.20750   0.28977   0.00000  Uiso   1.00
H26    H     0.30275   0.25797   0.43728   0.00000  Uiso   1.00
H27    H     0.00412   0.24883   0.01526   0.00000  Uiso   1.00
H28    H     0.13175   0.13846   0.08347   0.00000  Uiso   1.00
H29    H     0.01897   0.12519   0.39808   0.00000  Uiso   1.00
H30    H     0.32040   0.11028   0.48904   0.00000  Uiso   1.00
H31    H     0.22521   0.23785   0.38485   0.00000  Uiso   1.00
N32    N     0.31574   0.18074   0.26416   0.00000  Uiso   1.00
N33    N     0.01759   0.15259   0.23584   0.00000  Uiso   1.00
O34    O     0.12797   0.23807   0.24633   0.00000  Uiso   1.00
O35    O     0.22858   0.24755   0.25586   0.00000  Uiso   1.00
O36    O     0.09181   0.15960   0.31839   0.00000  Uiso   1.00
O37    O     0.19242   0.16908   0.32793   0.00000  Uiso   1.00
O38    O     0.10476   0.08578   0.24413   0.00000  Uiso   1.00
O39    O     0.20536   0.09526   0.25367   0.00000  Uiso   1.00
O40    O     0.14092   0.16425   0.17207   0.00000  Uiso   1.00
O41    O     0.24152   0.17373   0.18160   0.00000  Uiso   1.00
C42    C     0.00269   0.11119   0.19679   0.00000  Uiso   1.00
O43    O     0.04179   0.08604   0.17760   0.00000  Uiso   1.00
O44    O     0.28196   0.09868   0.17738   0.00000  Uiso   1.00
H45    H     0.28078   0.06875   0.14973   0.00000  Uiso   1.00
H46    H     0.05987   0.13486   0.04571   0.00000  Uiso   1.00
H47    H     0.23531   0.01399   0.25662   0.00000  Uiso   1.00
C48    C     0.51524   0.26674   0.25163   0.00000  Uiso   1.00
C49    C     0.47299   0.16979   0.48789   0.00000  Uiso   1.00
C50    C     0.48932   0.18479   0.43669   0.00000  Uiso   1.00
C51    C     0.51941   0.18188   0.01865   0.00000  Uiso   1.00
C52    C     0.57907   0.21289   0.49963   0.00000  Uiso   1.00
C53    C     0.59164   0.23239   0.45140   0.00000  Uiso   1.00
C54    C     0.54721   0.21931   0.42072   0.00000  Uiso   1.00
C55    C     0.50850   0.16388   0.06777   0.00000  Uiso   1.00
C56    C     0.61214   0.20865   0.07915   0.00000  Uiso   1.00
C57    C     0.44691   0.16531   0.40305   0.00000  Uiso   1.00
C58    C     0.52352   0.32295   0.25234   0.00000  Uiso   1.00
C59    C     0.46701   0.16606   0.34709   0.00000  Uiso   1.00
C60    C     0.47642   0.01039   0.24780   0.00000  Uiso   1.00
C61    C     0.48468   0.06660   0.24855   0.00000  Uiso   1.00
C62    C     0.53340   0.17049   0.15326   0.00000  Uiso   1.00
C63    C     0.62516   0.22522   0.02965   0.00000  Uiso   1.00
C64    C     0.55309   0.17916   0.09875   0.00000  Uiso   1.00
C65    C     0.38587   0.13946   0.42275   0.00000  Uiso   1.00
C66    C     0.36777   0.12993   0.47420   0.00000  Uiso   1.00
C67    C     0.41074   0.14385   0.00636   0.00000  Uiso   1.00
Cu68   Cu    0.44043   0.16105   0.24435   0.00000  Uiso   1.00
Cu69   Cu    0.55957   0.17228   0.25564   0.00000  Uiso   1.00
H70    H     0.64718   0.22079   0.10272   0.00000  Uiso   1.00
H71    H     0.43129   0.31935   0.24351   0.00000  Uiso   1.00
H72    H     0.33685   0.20750   0.28977   0.00000  Uiso   1.00
H73    H     0.63608   0.25797   0.43728   0.00000  Uiso   1.00
H74    H     0.33745   0.24883   0.01526   0.00000  Uiso   1.00
H75    H     0.46508   0.13846   0.08347   0.00000  Uiso   1.00
H76    H     0.35230   0.12519   0.39808   0.00000  Uiso   1.00
H77    H     0.65373   0.11028   0.48904   0.00000  Uiso   1.00
H78    H     0.55854   0.23785   0.38485   0.00000  Uiso   1.00
N79    N     0.64908   0.18074   0.26416   0.00000  Uiso   1.00
N80    N     0.35092   0.15259   0.23584   0.00000  Uiso   1.00
O81    O     0.46131   0.23807   0.24633   0.00000  Uiso   1.00
O82    O     0.56191   0.24755   0.25586   0.00000  Uiso   1.00
O83    O     0.42515   0.15960   0.31839   0.00000  Uiso   1.00
O84    O     0.52575   0.16908   0.32793   0.00000  Uiso   1.00
O85    O     0.43809   0.08578   0.24413   0.00000  Uiso   1.00
O86    O     0.53869   0.09526   0.25367   0.00000  Uiso   1.00
O87    O     0.47425   0.16425   0.17207   0.00000  Uiso   1.00
O88    O     0.57485   0.17373   0.18160   0.00000  Uiso   1.00
C89    C     0.33603   0.11119   0.19679   0.00000  Uiso   1.00
O90    O     0.37512   0.08604   0.17760   0.00000  Uiso   1.00
O91    O     0.61530   0.09868   0.17738   0.00000  Uiso   1.00
H92    H     0.61411   0.06875   0.14973   0.00000  Uiso   1.00
H93    H     0.39321   0.13486   0.04571   0.00000  Uiso   1.00
H94    H     0.56864   0.01399   0.25662   0.00000  Uiso   1.00
C95    C     0.84857   0.26674   0.25163   0.00000  Uiso   1.00
C96    C     0.80632   0.16979   0.48789   0.00000  Uiso   1.00
C97    C     0.82266   0.18479   0.43669   0.00000  Uiso   1.00
C98    C     0.85274   0.18188   0.01865   0.00000  Uiso   1.00
C99    C     0.91241   0.21289   0.49963   0.00000  Uiso   1.00
C100   C     0.92498   0.23239   0.45140   0.00000  Uiso   1.00
C101   C     0.88054   0.21931   0.42072   0.00000  Uiso   1.00
C102   C     0.84183   0.16388   0.06777   0.00000  Uiso   1.00
C103   C     0.94547   0.20865   0.07915   0.00000  Uiso   1.00
C104   C     0.78024   0.16531   0.40305   0.00000  Uiso   1.00
C105   C     0.85685   0.32295   0.25234   0.00000  Uiso   1.00
C106   C     0.80034   0.16606   0.34709   0.00000  Uiso   1.00
C107   C     0.80975   0.01039   0.24780   0.00000  Uiso   1.00
C108   C     0.81802   0.06660   0.24855   0.00000  Uiso   1.00
C109   C     0.86673   0.17049   0.15326   0.00000  Uiso   1.00
C110   C     0.95849   0.22522   0.02965   0.00000  Uiso   1.00
C111   C     0.88643   0.17916   0.09875   0.00000  Uiso   1.00
C112   C     0.71920   0.13946   0.42275   0.00000  Uiso   1.00
C113   C     0.70111   0.12993   0.47420   0.00000  Uiso   1.00
C114   C     0.74408   0.14385   0.00636   0.00000  Uiso   1.00
Cu115  Cu    0.77377   0.16105   0.24435   0.00000  Uiso   1.00
Cu116  Cu    0.89290   0.17228   0.25564   0.00000  Uiso   1.00
H117   H     0.98051   0.22079   0.10272   0.00000  Uiso   1.00
H118   H     0.76463   0.31935   0.24351   0.00000  Uiso   1.00
H119   H     0.67018   0.20750   0.28977   0.00000  Uiso   1.00
H120   H     0.96942   0.25797   0.43728   0.00000  Uiso   1.00
H121   H     0.67078   0.24883   0.01526   0.00000  Uiso   1.00
H122   H     0.79842   0.13846   0.08347   0.00000  Uiso   1.00
H123   H     0.68564   0.12519   0.39808   0.00000  Uiso   1.00
H124   H     0.98706   0.11028   0.48904   0.00000  Uiso   1.00
H125   H     0.89188   0.23785   0.38485   0.00000  Uiso   1.00
N126   N     0.98241   0.18074   0.26416   0.00000  Uiso   1.00
N127   N     0.68426   0.15259   0.23584   0.00000  Uiso   1.00
O128   O     0.79464   0.23807   0.24633   0.00000  Uiso   1.00
O129   O     0.89524   0.24755   0.25586   0.00000  Uiso   1.00
O130   O     0.75848   0.15960   0.31839   0.00000  Uiso   1.00
O131   O     0.85908   0.16908   0.32793   0.00000  Uiso   1.00
O132   O     0.77142   0.08578   0.24413   0.00000  Uiso   1.00
O133   O     0.87203   0.09526   0.25367   0.00000  Uiso   1.00
O134   O     0.80758   0.16425   0.17207   0.00000  Uiso   1.00
O135   O     0.90819   0.17373   0.18160   0.00000  Uiso   1.00
C136   C     0.66936   0.11119   0.19679   0.00000  Uiso   1.00
O137   O     0.70846   0.08604   0.17760   0.00000  Uiso   1.00
O138   O     0.94863   0.09868   0.17738   0.00000  Uiso   1.00
H139   H     0.94744   0.06875   0.14973   0.00000  Uiso   1.00
H140   H     0.72654   0.13486   0.04571   0.00000  Uiso   1.00
H141   H     0.90198   0.01399   0.25662   0.00000  Uiso   1.00
C142   C     0.18191   0.60007   0.25163   0.00000  Uiso   1.00
C143   C     0.13965   0.50312   0.48789   0.00000  Uiso   1.00
C144   C     0.15599   0.51812   0.43669   0.00000  Uiso   1.00
C145   C     0.18608   0.51522   0.01865   0.00000  Uiso   1.00
C146   C     0.24574   0.54622   0.49963   0.00000  Uiso   1.00
C147   C     0.25831   0.56572   0.45140   0.00000  Uiso   1.00
C148   C     0.21388   0.55264   0.42072   0.00000  Uiso   1.00
C149   C     0.17517   0.49722   0.06777   0.00000  Uiso   1.00
C150   C     0.27880   0.54199   0.07915   0.00000  Uiso   1.00
C151   C     0.11358   0.49864   0.40305   0.00000  Uiso   1.00
C152   C     0.19019   0.65629   0.25234   0.00000  Uiso   1.00
C153   C     0.13368   0.49939   0.34709   0.00000  Uiso   1.00
C154   C     0.14308   0.34372   0.24780   0.00000  Uiso   1.00
C155   C     0.15135   0.39994   0.24855   0.00000  Uiso   1.00
C156   C     0.20007   0.50382   0.15326   0.00000  Uiso   1.00
C157   C     0.29183   0.55856   0.02965   0.00000  Uiso   1.00
C158   C     0.21976   0.51249   0.09875   0.00000  Uiso   1.00
C159   C     0.05253   0.47279   0.42275   0.00000  Uiso   1.00
C160   C     0.03444   0.46327   0.47420   0.00000  Uiso   1.00
C161   C     0.07741   0.47718   0.00636   0.00000  Uiso   1.00
Cu162  Cu    0.10710   0.49439   0.24435   0.00000  Uiso   1.00
Cu163  Cu    0.22623   0.50561   0.25564   0.00000  Uiso   1.00
H164   H     0.31385   0.55412   0.10272   0.00000  Uiso   1.00
H165   H     0.09796   0.65268   0.24351   0.00000  Uiso   1.00
H166   H     0.00351   0.54083   0.28977   0.00000  Uiso   1.00
H167   H     0.30275   0.59130   0.43728   0.00000  Uiso   1.00
H168   H     0.00412   0.58216   0.01526   0.00000  Uiso   1.00
H169   H     0.13175   0.47179   0.08347   0.00000  Uiso   1.00
H170   H     0.01897   0.45852   0.39808   0.00000  Uiso   1.00
H171   H     0.32040   0.44361   0.48904   0.00000  Uiso   1.00
H172   H     0.22521   0.57118   0.38485   0.00000  Uiso   1.00
N173   N     0.31574   0.51407   0.26416   0.00000  Uiso   1.00
N174   N     0.01759   0.48593   0.23584   0.00000  Uiso   1.00
O175   O     0.12797   0.57141   0.24633   0.00000  Uiso   1.00
O176   O     0.22858   0.58089   0.25586   0.00000  Uiso   1.00
O177   O     0.09181   0.49293   0.31839   0.00000  Uiso   1.00
O178   O     0.19242   0.50241   0.32793   0.00000  Uiso   1.00
O179   O     0.10476   0.41911   0.24413   0.00000  Uiso   1.00
O180   O     0.20536   0.42859   0.25367   0.00000  Uiso   1.00
O181   O     0.14092   0.49759   0.17207   0.00000  Uiso   1.00
O182   O     0.24152   0.50707   0.18160   0.00000  Uiso   1.00
C183   C     0.00269   0.44452   0.19679   0.00000  Uiso   1.00
O184   O     0.04179   0.41938   0.17760   0.00000  Uiso   1.00
O185   O     0.28196   0.43201   0.17738   0.00000  Uiso   1.00
H186   H     0.28078   0.40209   0.14973   0.00000  Uiso   1.00
H187   H     0.05987   0.46820   0.04571   0.00000  Uiso   1.00
H188   H     0.23531   0.34732   0.25662   0.00000  Uiso   1.00
C189   C     0.51524   0.60007   0.25163   0.00000  Uiso   1.00
C190   C     0.47299   0.50312   0.48789   0.00000  Uiso   1.00
C191   C     0.48932   0.51812   0.43669   0.00000  Uiso   1.00
C192   C     0.51941   0.51522   0.01865   0.00000  Uiso   1.00
C193   C     0.57907   0.54622   0.49963   0.00000  Uiso   1.00
C194   C     0.59164   0.56572   0.45140   0.00000  Uiso   1.00
C195   C     0.54721   0.55264   0.42072   0.00000  Uiso   1.00
C196   C     0.50850   0.49722   0.06777   0.00000  Uiso   1.00
C197   C     0.61214   0.54199   0.07915   0.00000  Uiso   1.00
C198   C     0.44691   0.49864   0.40305   0.00000  Uiso   1.00
C199   C     0.52352   0.65629   0.25234   0.00000  Uiso   1.00
C200   C     0.46701   0.49939   0.34709   0.00000  Uiso   1.00
C201   C     0.47642   0.34372   0.24780   0.00000  Uiso   1.00
C202   C     0.48468   0.39994   0.24855   0.00000  Uiso   1.00
C203   C     0.53340   0.50382   0.15326   0.00000  Uiso   1.00
C204   C     0.62516   0.55856   0.02965   0.00000  Uiso   1.00
C205   C     0.55309   0.51249   0.09875   0.00000  Uiso   1.00
C206   C     0.38587   0.47279   0.42275   0.00000  Uiso   1.00
C207   C     0.36777   0.46327   0.47420   0.00000  Uiso   1.00
C208   C     0.41074   0.47718   0.00636   0.00000  Uiso   1.00
Cu209  Cu    0.44043   0.49439   0.24435   0.00000  Uiso   1.00
Cu210  Cu    0.55957   0.50561   0.25564   0.00000  Uiso   1.00
H211   H     0.64718   0.55412   0.10272   0.00000  Uiso   1.00
H212   H     0.43129   0.65268   0.24351   0.00000  Uiso   1.00
H213   H     0.33685   0.54083   0.28977   0.00000  Uiso   1.00
H214   H     0.63608   0.59130   0.43728   0.00000  Uiso   1.00
H215   H     0.33745   0.58216   0.01526   0.00000  Uiso   1.00
H216   H     0.46508   0.47179   0.08347   0.00000  Uiso   1.00
H217   H     0.35230   0.45852   0.39808   0.00000  Uiso   1.00
H218   H     0.65373   0.44361   0.48904   0.00000  Uiso   1.00
H219   H     0.55854   0.57118   0.38485   0.00000  Uiso   1.00
N220   N     0.64908   0.51407   0.26416   0.00000  Uiso   1.00
N221   N     0.35092   0.48593   0.23584   0.00000  Uiso   1.00
O222   O     0.46131   0.57141   0.24633   0.00000  Uiso   1.00
O223   O     0.56191   0.58089   0.25586   0.00000  Uiso   1.00
O224   O     0.42515   0.49293   0.31839   0.00000  Uiso   1.00
O225   O     0.52575   0.50241   0.32793   0.00000  Uiso   1.00
O226   O     0.43809   0.41911   0.24413   0.00000  Uiso   1.00
O227   O     0.53869   0.42859   0.25367   0.00000  Uiso   1.00
O228   O     0.47425   0.49759   0.17207   0.00000  Uiso   1.00
O229   O     0.57485   0.50707   0.18160   0.00000  Uiso   1.00
C230   C     0.33603   0.44452   0.19679   0.00000  Uiso   1.00
O231   O     0.37512   0.41938   0.17760   0.00000  Uiso   1.00
O232   O     0.61530   0.43201   0.17738   0.00000  Uiso   1.00
H233   H     0.61411   0.40209   0.14973   0.00000  Uiso   1.00
H234   H     0.39321   0.46820   0.04571   0.00000  Uiso   1.00
H235   H     0.56864   0.34732   0.25662   0.00000  Uiso   1.00
C236   C     0.84857   0.60007   0.25163   0.00000  Uiso   1.00
C237   C     0.80632   0.50312   0.48789   0.00000  Uiso   1.00
C238   C     0.82266   0.51812   0.43669   0.00000  Uiso   1.00
C239   C     0.85274   0.51522   0.01865   0.00000  Uiso   1.00
C240   C     0.91241   0.54622   0.49963   0.00000  Uiso   1.00
C241   C     0.92498   0.56572   0.45140   0.00000  Uiso   1.00
C242   C     0.88054   0.55264   0.42072   0.00000  Uiso   1.00
C243   C     0.84183   0.49722   0.06777   0.00000  Uiso   1.00
C244   C     0.94547   0.54199   0.07915   0.00000  Uiso   1.00
C245   C     0.78024   0.49864   0.40305   0.00000  Uiso   1.00
C246   C     0.85685   0.65629   0.25234   0.00000  Uiso   1.00
C247   C     0.80034   0.49939   0.34709   0.00000  Uiso   1.00
C248   C     0.80975   0.34372   0.24780   0.00000  Uiso   1.00
C249   C     0.81802   0.39994   0.24855   0.00000  Uiso   1.00
C250   C     0.86673   0.50382   0.15326   0.00000  Uiso   1.00
C251   C     0.95849   0.55856   0.02965   0.00000  Uiso   1.00
C252   C     0.88643   0.51249   0.09875   0.00000  Uiso   1.00
C253   C     0.71920   0.47279   0.42275   0.00000  Uiso   1.00
C254   C     0.70111   0.46327   0.47420   0.00000  Uiso   1.00
C255   C     0.74408   0.47718   0.00636   0.00000  Uiso   1.00
Cu256  Cu    0.77377   0.49439   0.24435   0.00000  Uiso   1.00
Cu257  Cu    0.89290   0.50561   0.25564   0.00000  Uiso   1.00
H258   H     0.98051   0.55412   0.10272   0.00000  Uiso   1.00
H259   H     0.76463   0.65268   0.24351   0.00000  Uiso   1.00
H260   H     0.67018   0.54083   0.28977   0.00000  Uiso   1.00
H261   H     0.96942   0.59130   0.43728   0.00000  Uiso   1.00
H262   H     0.67078   0.58216   0.01526   0.00000  Uiso   1.00
H263   H     0.79842   0.47179   0.08347   0.00000  Uiso   1.00
H264   H     0.68564   0.45852   0.39808   0.00000  Uiso   1.00
H265   H     0.98706   0.44361   0.48904   0.00000  Uiso   1.00
H266   H     0.89188   0.57118   0.38485   0.00000  Uiso   1.00
N267   N     0.98241   0.51407   0.26416   0.00000  Uiso   1.00
N268   N     0.68426   0.48593   0.23584   0.00000  Uiso   1.00
O269   O     0.79464   0.57141   0.24633   0.00000  Uiso   1.00
O270   O     0.89524   0.58089   0.25586   0.00000  Uiso   1.00
O271   O     0.75848   0.49293   0.31839   0.00000  Uiso   1.00
O272   O     0.85908   0.50241   0.32793   0.00000  Uiso   1.00
O273   O     0.77142   0.41911   0.24413   0.00000  Uiso   1.00
O274   O     0.87203   0.42859   0.25367   0.00000  Uiso   1.00
O275   O     0.80758   0.49759   0.17207   0.00000  Uiso   1.00
O276   O     0.90819   0.50707   0.18160   0.00000  Uiso   1.00
C277   C     0.66936   0.44452   0.19679   0.00000  Uiso   1.00
O278   O     0.70846   0.41938   0.17760   0.00000  Uiso   1.00
O279   O     0.94863   0.43201   0.17738   0.00000  Uiso   1.00
H280   H     0.94744   0.40209   0.14973   0.00000  Uiso   1.00
H281   H     0.72654   0.46820   0.04571   0.00000  Uiso   1.00
H282   H     0.90198   0.34732   0.25662   0.00000  Uiso   1.00
C283   C     0.18191   0.93340   0.25163   0.00000  Uiso   1.00
C284   C     0.13965   0.83646   0.48789   0.00000  Uiso   1.00
C285   C     0.15599   0.85146   0.43669   0.00000  Uiso   1.00
C286   C     0.18608   0.84855   0.01865   0.00000  Uiso   1.00
C287   C     0.24574   0.87956   0.49963   0.00000  Uiso   1.00
C288   C     0.25831   0.89906   0.45140   0.00000  Uiso   1.00
C289   C     0.21388   0.88597   0.42072   0.00000  Uiso   1.00
C290   C     0.17517   0.83055   0.06777   0.00000  Uiso   1.00
C291   C     0.27880   0.87532   0.07915   0.00000  Uiso   1.00
C292   C     0.11358   0.83198   0.40305   0.00000  Uiso   1.00
C293   C     0.19019   0.98962   0.25234   0.00000  Uiso   1.00
C294   C     0.13368   0.83272   0.34709   0.00000  Uiso   1.00
C295   C     0.14308   0.67705   0.24780   0.00000  Uiso   1.00
C296   C     0.15135   0.73327   0.24855   0.00000  Uiso   1.00
C297   C     0.20007   0.83716   0.15326   0.00000  Uiso   1.00
C298   C     0.29183   0.89189   0.02965   0.00000  Uiso   1.00
C299   C     0.21976   0.84583   0.09875   0.00000  Uiso   1.00
C300   C     0.05253   0.80612   0.42275   0.00000  Uiso   1.00
C301   C     0.03444   0.79660   0.47420   0.00000  Uiso   1.00
C302   C     0.07741   0.81051   0.00636   0.00000  Uiso   1.00
Cu303  Cu    0.10710   0.82772   0.24435   0.00000  Uiso   1.00
Cu304  Cu    0.22623   0.83895   0.25564   0.00000  Uiso   1.00
H305   H     0.31385   0.88746   0.10272   0.00000  Uiso   1.00
H306   H     0.09796   0.98601   0.24351   0.00000  Uiso   1.00
H307   H     0.00351   0.87416   0.28977   0.00000  Uiso   1.00
H308   H     0.30275   0.92464   0.43728   0.00000  Uiso   1.00
H309   H     0.00412   0.91549   0.01526   0.00000  Uiso   1.00
H310   H     0.13175   0.80513   0.08347   0.00000  Uiso   1.00
H311   H     0.01897   0.79186   0.39808   0.00000  Uiso   1.00
H312   H     0.32040   0.77694   0.48904   0.00000  Uiso   1.00
H313   H     0.22521   0.90451   0.38485   0.00000  Uiso   1.00
N314   N     0.31574   0.84741   0.26416   0.00000  Uiso   1.00
N315   N     0.01759   0.81926   0.23584   0.00000  Uiso   1.00
O316   O     0.12797   0.90474   0.24633   0.00000  Uiso   1.00
O317   O     0.22858   0.91422   0.25586   0.00000  Uiso   1.00
O318   O     0.09181   0.82627   0.31839   0.00000  Uiso   1.00
O319   O     0.19242   0.83575   0.32793   0.00000  Uiso   1.00
O320   O     0.10476   0.75245   0.24413   0.00000  Uiso   1.00
O321   O     0.20536   0.76193   0.25367   0.00000  Uiso   1.00
O322   O     0.14092   0.83092   0.17207   0.00000  Uiso   1.00
O323   O     0.24152   0.84040   0.18160   0.00000  Uiso   1.00
C324   C     0.00269   0.77786   0.19679   0.00000  Uiso   1.00
O325   O     0.04179   0.75271   0.17760   0.00000  Uiso   1.00
O326   O     0.28196   0.76535   0.17738   0.00000  Uiso   1.00
H327   H     0.28078   0.73542   0.14973   0.00000  Uiso   1.00
H328   H     0.05987   0.80153   0.04571   0.00000  Uiso   1.00
H329   H     0.23531   0.68066   0.25662   0.00000  Uiso   1.00
C330   C     0.51524   0.93340   0.25163   0.00000  Uiso   1.00
C331   C     0.47299   0.83646   0.48789   0.00000  Uiso   1.00
C332   C     0.48932   0.85146   0.43669   0.00000  Uiso   1.00
C333   C     0.51941   0.84855   0.01865   0.00000  Uiso   1.00
C334   C     0.57907   0.87956   0.49963   0.00000  Uiso   1.00
C335   C     0.59164   0.89906   0.45140   0.00000  Uiso   1.00
C336   C     0.54721   0.88597   0.42072   0.00000  Uiso   1.00
C337   C     0.50850   0.83055   0.06777   0.00000  Uiso   1.00
C338   C     0.61214   0.87532   0.07915   0.00000  Uiso   1.00
C339   C     0.44691   0.83198   0.40305   0.00000  Uiso   1.00
C340   C     0.52352   0.98962   0.25234   0.00000  Uiso   1.00
C341   C     0.46701   0.83272   0.34709   0.00000  Uiso   1.00
C342   C     0.47642   0.67705   0.24780   0.00000  Uiso   1.00
C343   C     0.48468   0.73327   0.24855   0.00000  Uiso   1.00
C344   C     0.53340   0.83716   0.15326   0.00000  Uiso   1.00
C345   C     0.62516   0.89189   0.02965   0.00000  Uiso   1.00
C346   C     0.55309   0.84583   0.09875   0.00000  Uiso   1.00
C347   C     0.38587   0.80612   0.42275   0.00000  Uiso   1.00
C348   C     0.36777   0.79660   0.47420   0.00000  Uiso   1.00
C349   C     0.41074   0.81051   0.00636   0.00000  Uiso   1.00
Cu350  Cu    0.44043   0.82772   0.24435   0.00000  Uiso   1.00
Cu351  Cu    0.55957   0.83895   0.25564   0.00000  Uiso   1.00
H352   H     0.64718   0.88746   0.10272   0.00000  Uiso   1.00
H353   H     0.43129   0.98601   0.24351   0.00000  Uiso   1.00
H354   H     0.33685   0.87416   0.28977   0.00000  Uiso   1.00
H355   H     0.63608   0.92464   0.43728   0.00000  Uiso   1.00
H356   H     0.33745   0.91549   0.01526   0.00000  Uiso   1.00
H357   H     0.46508   0.80513   0.08347   0.00000  Uiso   1.00
H358   H     0.35230   0.79186   0.39808   0.00000  Uiso   1.00
H359   H     0.65373   0.77694   0.48904   0.00000  Uiso   1.00
H360   H     0.55854   0.90451   0.38485   0.00000  Uiso   1.00
N361   N     0.64908   0.84741   0.26416   0.00000  Uiso   1.00
N362   N     0.35092   0.81926   0.23584   0.00000  Uiso   1.00
O363   O     0.46131   0.90474   0.24633   0.00000  Uiso   1.00
O364   O     0.56191   0.91422   0.25586   0.00000  Uiso   1.00
O365   O     0.42515   0.82627   0.31839   0.00000  Uiso   1.00
O366   O     0.52575   0.83575   0.32793   0.00000  Uiso   1.00
O367   O     0.43809   0.75245   0.24413   0.00000  Uiso   1.00
O368   O     0.53869   0.76193   0.25367   0.00000  Uiso   1.00
O369   O     0.47425   0.83092   0.17207   0.00000  Uiso   1.00
O370   O     0.57485   0.84040   0.18160   0.00000  Uiso   1.00
C371   C     0.33603   0.77786   0.19679   0.00000  Uiso   1.00
O372   O     0.37512   0.75271   0.17760   0.00000  Uiso   1.00
O373   O     0.61530   0.76535   0.17738   0.00000  Uiso   1.00
H374   H     0.61411   0.73542   0.14973   0.00000  Uiso   1.00
H375   H     0.39321   0.80153   0.04571   0.00000  Uiso   1.00
H376   H     0.56864   0.68066   0.25662   0.00000  Uiso   1.00
C377   C     0.84857   0.93340   0.25163   0.00000  Uiso   1.00
C378   C     0.80632   0.83646   0.48789   0.00000  Uiso   1.00
C379   C     0.82266   0.85146   0.43669   0.00000  Uiso   1.00
C380   C     0.85274   0.84855   0.01865   0.00000  Uiso   1.00
C381   C     0.91241   0.87956   0.49963   0.00000  Uiso   1.00
C382   C     0.92498   0.89906   0.45140   0.00000  Uiso   1.00
C383   C     0.88054   0.88597   0.42072   0.00000  Uiso   1.00
C384   C     0.84183   0.83055   0.06777   0.00000  Uiso   1.00
C385   C     0.94547   0.87532   0.07915   0.00000  Uiso   1.00
C386   C     0.78024   0.83198   0.40305   0.00000  Uiso   1.00
C387   C     0.85685   0.98962   0.25234   0.00000  Uiso   1.00
C388   C     0.80034   0.83272   0.34709   0.00000  Uiso   1.00
C389   C     0.80975   0.67705   0.24780   0.00000  Uiso   1.00
C390   C     0.81802   0.73327   0.24855   0.00000  Uiso   1.00
C391   C     0.86673   0.83716   0.15326   0.00000  Uiso   1.00
C392   C     0.95849   0.89189   0.02965   0.00000  Uiso   1.00
C393   C     0.88643   0.84583   0.09875   0.00000  Uiso   1.00
C394   C     0.71920   0.80612   0.42275   0.00000  Uiso   1.00
C395   C     0.70111   0.79660   0.47420   0.00000  Uiso   1.00
C396   C     0.74408   0.81051   0.00636   0.00000  Uiso   1.00
Cu397  Cu    0.77377   0.82772   0.24435   0.00000  Uiso   1.00
Cu398  Cu    0.89290   0.83895   0.25564   0.00000  Uiso   1.00
H399   H     0.98051   0.88746   0.10272   0.00000  Uiso   1.00
H400   H     0.76463   0.98601   0.24351   0.00000  Uiso   1.00
H401   H     0.67018   0.87416   0.28977   0.00000  Uiso   1.00
H402   H     0.96942   0.92464   0.43728   0.00000  Uiso   1.00
H403   H     0.67078   0.91549   0.01526   0.00000  Uiso   1.00
H404   H     0.79842   0.80513   0.08347   0.00000  Uiso   1.00
H405   H     0.68564   0.79186   0.39808   0.00000  Uiso   1.00
H406   H     0.98706   0.77694   0.48904   0.00000  Uiso   1.00
H407   H     0.89188   0.90451   0.38485   0.00000  Uiso   1.00
N408   N     0.98241   0.84741   0.26416   0.00000  Uiso   1.00
N409   N     0.68426   0.81926   0.23584   0.00000  Uiso   1.00
O410   O     0.79464   0.90474   0.24633   0.00000  Uiso   1.00
O411   O     0.89524   0.91422   0.25586   0.00000  Uiso   1.00
O412   O     0.75848   0.82627   0.31839   0.00000  Uiso   1.00
O413   O     0.85908   0.83575   0.32793   0.00000  Uiso   1.00
O414   O     0.77142   0.75245   0.24413   0.00000  Uiso   1.00
O415   O     0.87203   0.76193   0.25367   0.00000  Uiso   1.00
O416   O     0.80758   0.83092   0.17207   0.00000  Uiso   1.00
O417   O     0.90819   0.84040   0.18160   0.00000  Uiso   1.00
C418   C     0.66936   0.77786   0.19679   0.00000  Uiso   1.00
O419   O     0.70846   0.75271   0.17760   0.00000  Uiso   1.00
O420   O     0.94863   0.76535   0.17738   0.00000  Uiso   1.00
H421   H     0.94744   0.73542   0.14973   0.00000  Uiso   1.00
H422   H     0.72654   0.80153   0.04571   0.00000  Uiso   1.00
H423   H     0.90198   0.68066   0.25662   0.00000  Uiso   1.00
C424   C     0.18191   0.26674   0.75163   0.00000  Uiso   1.00
C425   C     0.13965   0.16979   0.98789   0.00000  Uiso   1.00
C426   C     0.15599   0.18479   0.93669   0.00000  Uiso   1.00
C427   C     0.18608   0.18188   0.51865   0.00000  Uiso   1.00
C428   C     0.24574   0.21289   0.99963   0.00000  Uiso   1.00
C429   C     0.25831   0.23239   0.95140   0.00000  Uiso   1.00
C430   C     0.21388   0.21931   0.92072   0.00000  Uiso   1.00
C431   C     0.17517   0.16388   0.56777   0.00000  Uiso   1.00
C432   C     0.27880   0.20865   0.57915   0.00000  Uiso   1.00
C433   C     0.11358   0.16531   0.90305   0.00000  Uiso   1.00
C434   C     0.19019   0.32295   0.75234   0.00000  Uiso   1.00
C435   C     0.13368   0.16606   0.84709   0.00000  Uiso   1.00
C436   C     0.14308   0.01039   0.74780   0.00000  Uiso   1.00
C437   C     0.15135   0.06660   0.74855   0.00000  Uiso   1.00
C438   C     0.20007   0.17049   0.65326   0.00000  Uiso   1.00
C439   C     0.29183   0.22522   0.52965   0.00000  Uiso   1.00
C440   C     0.21976   0.17916   0.59875   0.00000  Uiso   1.00
C441   C     0.05253   0.13946   0.92275   0.00000  Uiso   1.00
C442   C     0.03444   0.12993   0.97420   0.00000  Uiso   1.00
C443   C     0.07741   0.14385   0.50636   0.00000  Uiso   1.00
Cu444  Cu    0.10710   0.16105   0.74435   0.00000  Uiso   1.00
Cu445  Cu    0.22623   0.17228   0.75564   0.00000  Uiso   1.00
H446   H     0.31385   0.22079   0.60272   0.00000  Uiso   1.00
H447   H     0.09796   0.31935   0.74351   0.00000  Uiso   1.00
H448   H     0.00351   0.20750   0.78977   0.00000  Uiso   1.00
H449   H     0.30275   0.25797   0.93728   0.00000  Uiso   1.00
H450   H     0.00412   0.24883   0.51526   0.00000  Uiso   1.00
H451   H     0.13175   0.13846   0.58347   0.00000  Uiso   1.00
H452   H     0.01897   0.12519   0.89808   0.00000  Uiso   1.00
H453   H     0.32040   0.11028   0.98904   0.00000  Uiso   1.00
H454   H     0.22521   0.23785   0.88485   0.00000  Uiso   1.00
N455   N     0.31574   0.18074   0.76416   0.00000  Uiso   1.00
N456   N     0.01759   0.15259   0.73584   0.00000  Uiso   1.00
O457   O     0.12797   0.23807   0.74633   0.00000  Uiso   1.00
O458   O     0.22858   0.24755   0.75586   0.00000  Uiso   1.00
O459   O     0.09181   0.15960   0.81839   0.00000  Uiso   1.00
O460   O     0.19242   0.16908   0.82793   0.00000  Uiso   1.00
O461   O     0.10476   0.08578   0.74413   0.00000  Uiso   1.00
O462   O     0.20536   0.09526   0.75367   0.00000  Uiso   1.00
O463   O     0.14092   0.16425   0.67207   0.00000  Uiso   1.00
O464   O     0.24152   0.17373   0.68160   0.00000  Uiso   1.00
C465   C     0.00269   0.11119   0.69679   0.00000  Uiso   1.00
O466   O     0.04179   0.08604   0.67760   0.00000  Uiso   1.00
O467   O     0.28196   0.09868   0.67738   0.00000  Uiso   1.00
H468   H     0.28078   0.06875   0.64973   0.00000  Uiso   1.00
H469   H     0.05987   0.13486   0.54571   0.00000  Uiso   1.00
H470   H     0.23531   0.01399   0.75662   0.00000  Uiso   1.00
C471   C     0.51524   0.26674   0.75163   0.00000  Uiso   1.00
C472   C     0.47299   0.16979   0.98789   0.00000  Uiso   1.00
C473   C     0.48932   0.18479   0.93669   0.00000  Uiso   1.00
C474   C     0.51941   0.18188   0.51865   0.00000  Uiso   1.00
C475   C     0.57907   0.21289   0.99963   0.00000  Uiso   1.00
C476   C     0.59164   0.23239   0.95140   0.00000  Uiso   1.00
C477   C     0.54721   0.21931   0.92072   0.00000  Uiso   1.00
C478   C     0.50850   0.16388   0.56777   0.00000  Uiso   1.00
C479   C     0.61214   0.20865   0.57915   0.00000  Uiso   1.00
C480   C     0.44691   0.16531   0.90305   0.00000  Uiso   1.00
C481   C     0.52352   0.32295   0.75234   0.00000  Uiso   1.00
C482   C     0.46701   0.16606   0.84709   0.00000  Uiso   1.00
C483   C     0.47642   0.01039   0.74780   0.00000  Uiso   1.00
C484   C     0.48468   0.06660   0.74855   0.00000  Uiso   1.00
C485   C     0.53340   0.17049   0.65326   0.00000  Uiso   1.00
C486   C     0.62516   0.22522   0.52965   0.00000  Uiso   1.00
C487   C     0.55309   0.17916   0.59875   0.00000  Uiso   1.00
C488   C     0.38587   0.13946   0.92275   0.00000  Uiso   1.00
C489   C     0.36777   0.12993   0.97420   0.00000  Uiso   1.00
C490   C     0.41074   0.14385   0.50636   0.00000  Uiso   1.00
Cu491  Cu    0.44043   0.16105   0.74435   0.00000  Uiso   1.00
Cu492  Cu    0.55957   0.17228   0.75564   0.00000  Uiso   1.00
H493   H     0.64718   0.22079   0.60272   0.00000  Uiso   1.00
H494   H     0.43129   0.31935   0.74351   0.00000  Uiso   1.00
H495   H     0.33685   0.20750   0.78977   0.00000  Uiso   1.00
H496   H     0.63608   0.25797   0.93728   0.00000  Uiso   1.00
H497   H     0.33745   0.24883   0.51526   0.00000  Uiso   1.00
H498   H     0.46508   0.13846   0.58347   0.00000  Uiso   1.00
H499   H     0.35230   0.12519   0.89808   0.00000  Uiso   1.00
H500   H     0.65373   0.11028   0.98904   0.00000  Uiso   1.00
H501   H     0.55854   0.23785   0.88485   0.00000  Uiso   1.00
N502   N     0.64908   0.18074   0.76416   0.00000  Uiso   1.00
N503   N     0.35092   0.15259   0.73584   0.00000  Uiso   1.00
O504   O     0.46131   0.23807   0.74633   0.00000  Uiso   1.00
O505   O     0.56191   0.24755   0.75586   0.00000  Uiso   1.00
O506   O     0.42515   0.15960   0.81839   0.00000  Uiso   1.00
O507   O     0.52575   0.16908   0.82793   0.00000  Uiso   1.00
O508   O     0.43809   0.08578   0.74413   0.00000  Uiso   1.00
O509   O     0.53869   0.09526   0.75367   0.00000  Uiso   1.00
O510   O     0.47425   0.16425   0.67207   0.00000  Uiso   1.00
O511   O     0.57485   0.17373   0.68160   0.00000  Uiso   1.00
C512   C     0.33603   0.11119   0.69679   0.00000  Uiso   1.00
O513   O     0.37512   0.08604   0.67760   0.00000  Uiso   1.00
O514   O     0.61530   0.09868   0.67738   0.00000  Uiso   1.00
H515   H     0.61411   0.06875   0.64973   0.00000  Uiso   1.00
H516   H     0.39321   0.13486   0.54571   0.00000  Uiso   1.00
H517   H     0.56864   0.01399   0.75662   0.00000  Uiso   1.00
C518   C     0.84857   0.26674   0.75163   0.00000  Uiso   1.00
C519   C     0.80632   0.16979   0.98789   0.00000  Uiso   1.00
C520   C     0.82266   0.18479   0.93669   0.00000  Uiso   1.00
C521   C     0.85274   0.18188   0.51865   0.00000  Uiso   1.00
C522   C     0.91241   0.21289   0.99963   0.00000  Uiso   1.00
C523   C     0.92498   0.23239   0.95140   0.00000  Uiso   1.00
C524   C     0.88054   0.21931   0.92072   0.00000  Uiso   1.00
C525   C     0.84183   0.16388   0.56777   0.00000  Uiso   1.00
C526   C     0.94547   0.20865   0.57915   0.00000  Uiso   1.00
C527   C     0.78024   0.16531   0.90305   0.00000  Uiso   1.00
C528   C     0.85685   0.32295   0.75234   0.00000  Uiso   1.00
C529   C     0.80034   0.16606   0.84709   0.00000  Uiso   1.00
C530   C     0.80975   0.01039   0.74780   0.00000  Uiso   1.00
C531   C     0.81802   0.06660   0.74855   0.00000  Uiso   1.00
C532   C     0.86673   0.17049   0.65326   0.00000  Uiso   1.00
C533   C     0.95849   0.22522   0.52965   0.00000  Uiso   1.00
C534   C     0.88643   0.17916   0.59875   0.00000  Uiso   1.00
C535   C     0.71920   0.13946   0.92275   0.00000  Uiso   1.00
C536   C     0.70111   0.12993   0.97420   0.00000  Uiso   1.00
C537   C     0.74408   0.14385   0.50636   0.00000  Uiso   1.00
Cu538  Cu    0.77377   0.16105   0.74435   0.00000  Uiso   1.00
Cu539  Cu    0.89290   0.17228   0.75564   0.00000  Uiso   1.00
H540   H     0.98051   0.22079   0.60272   0.00000  Uiso   1.00
H541   H     0.76463   0.31935   0.74351   0.00000  Uiso   1.00
H542   H     0.67018   0.20750   0.78977   0.00000  Uiso   1.00
H543   H     0.96942   0.25797   0.93728   0.00000  Uiso   1.00
H544   H     0.67078   0.24883   0.51526   0.00000  Uiso   1.00
H545   H     0.79842   0.13846   0.58347   0.00000  Uiso   1.00
H546   H     0.68564   0.12519   0.89808   0.00000  Uiso   1.00
H547   H     0.98706   0.11028   0.98904   0.00000  Uiso   1.00
H548   H     0.89188   0.23785   0.88485   0.00000  Uiso   1.00
N549   N     0.98241   0.18074   0.76416   0.00000  Uiso   1.00
N550   N     0.68426   0.15259   0.73584   0.00000  Uiso   1.00
O551   O     0.79464   0.23807   0.74633   0.00000  Uiso   1.00
O552   O     0.89524   0.24755   0.75586   0.00000  Uiso   1.00
O553   O     0.75848   0.15960   0.81839   0.00000  Uiso   1.00
O554   O     0.85908   0.16908   0.82793   0.00000  Uiso   1.00
O555   O     0.77142   0.08578   0.74413   0.00000  Uiso   1.00
O556   O     0.87203   0.09526   0.75367   0.00000  Uiso   1.00
O557   O     0.80758   0.16425   0.67207   0.00000  Uiso   1.00
O558   O     0.90819   0.17373   0.68160   0.00000  Uiso   1.00
C559   C     0.66936   0.11119   0.69679   0.00000  Uiso   1.00
O560   O     0.70846   0.08604   0.67760   0.00000  Uiso   1.00
O561   O     0.94863   0.09868   0.67738   0.00000  Uiso   1.00
H562   H     0.94744   0.06875   0.64973   0.00000  Uiso   1.00
H563   H     0.72654   0.13486   0.54571   0.00000  Uiso   1.00
H564   H     0.90198   0.01399   0.75662   0.00000  Uiso   1.00
C565   C     0.18191   0.60007   0.75163   0.00000  Uiso   1.00
C566   C     0.13965   0.50312   0.98789   0.00000  Uiso   1.00
C567   C     0.15599   0.51812   0.93669   0.00000  Uiso   1.00
C568   C     0.18608   0.51522   0.51865   0.00000  Uiso   1.00
C569   C     0.24574   0.54622   0.99963   0.00000  Uiso   1.00
C570   C     0.25831   0.56572   0.95140   0.00000  Uiso   1.00
C571   C     0.21388   0.55264   0.92072   0.00000  Uiso   1.00
C572   C     0.17517   0.49722   0.56777   0.00000  Uiso   1.00
C573   C     0.27880   0.54199   0.57915   0.00000  Uiso   1.00
C574   C     0.11358   0.49864   0.90305   0.00000  Uiso   1.00
C575   C     0.19019   0.65629   0.75234   0.00000  Uiso   1.00
C576   C     0.13368   0.49939   0.84709   0.00000  Uiso   1.00
C577   C     0.14308   0.34372   0.74780   0.00000  Uiso   1.00
C578   C     0.15135   0.39994   0.74855   0.00000  Uiso   1.00
C579   C     0.20007   0.50382   0.65326   0.00000  Uiso   1.00
C580   C     0.29183   0.55856   0.52965   0.00000  Uiso   1.00
C581   C     0.21976   0.51249   0.59875   0.00000  Uiso   1.00
C582   C     0.05253   0.47279   0.92275   0.00000  Uiso   1.00
C583   C     0.03444   0.46327   0.97420   0.00000  Uiso   1.00
C584   C     0.07741   0.47718   0.50636   0.00000  Uiso   1.00
Cu585  Cu    0.10710   0.49439   0.74435   0.00000  Uiso   1.00
Cu586  Cu    0.22623   0.50561   0.75564   0.00000  Uiso   1.00
H587   H     0.31385   0.55412   0.60272   0.00000  Uiso   1.00
H588   H     0.09796   0.65268   0.74351   0.00000  Uiso   1.00
H589   H     0.00351   0.54083   0.78977   0.00000  Uiso   1.00
H590   H     0.30275   0.59130   0.93728   0.00000  Uiso   1.00
H591   H     0.00412   0.58216   0.51526   0.00000  Uiso   1.00
H592   H     0.13175   0.47179   0.58347   0.00000  Uiso   1.00
H593   H     0.01897   0.45852   0.89808   0.00000  Uiso   1.00
H594   H     0.32040   0.44361   0.98904   0.00000  Uiso   1.00
H595   H     0.22521   0.57118   0.88485   0.00000  Uiso   1.00
N596   N     0.31574   0.51407   0.76416   0.00000  Uiso   1.00
N597   N     0.01759   0.48593   0.73584   0.00000  Uiso   1.00
O598   O     0.12797   0.57141   0.74633   0.00000  Uiso   1.00
O599   O     0.22858   0.58089   0.75586   0.00000  Uiso   1.00
O600   O     0.09181   0.49293   0.81839   0.00000  Uiso   1.00
O601   O     0.19242   0.50241   0.82793   0.00000  Uiso   1.00
O602   O     0.10476   0.41911   0.74413   0.00000  Uiso   1.00
O603   O     0.20536   0.42859   0.75367   0.00000  Uiso   1.00
O604   O     0.14092   0.49759   0.67207   0.00000  Uiso   1.00
O605   O     0.24152   0.50707   0.68160   0.00000  Uiso   1.00
C606   C     0.00269   0.44452   0.69679   0.00000  Uiso   1.00
O607   O     0.04179   0.41938   0.67760   0.00000  Uiso   1.00
O608   O     0.28196   0.43201   0.67738   0.00000  Uiso   1.00
H609   H     0.28078   0.40209   0.64973   0.00000  Uiso   1.00
H610   H     0.05987   0.46820   0.54571   0.00000  Uiso   1.00
H611   H     0.23531   0.34732   0.75662   0.00000  Uiso   1.00
C612   C     0.51524   0.60007   0.75163   0.00000  Uiso   1.00
C613   C     0.47299   0.50312   0.98789   0.00000  Uiso   1.00
C614   C     0.48932   0.51812   0.93669   0.00000  Uiso   1.00
C615   C     0.51941   0.51522   0.51865   0.00000  Uiso   1.00
C616   C     0.57907   0.54622   0.99963   0.00000  Uiso   1.00
C617   C     0.59164   0.56572   0.95140   0.00000  Uiso   1.00
C618   C     0.54721   0.55264   0.92072   0.00000  Uiso   1.00
C619   C     0.50850   0.49722   0.56777   0.00000  Uiso   1.00
C620   C     0.61214   0.54199   0.57915   0.00000  Uiso   1.00
C621   C     0.44691   0.49864   0.90305   0.00000  Uiso   1.00
C622   C     0.52352   0.65629   0.75234   0.00000  Uiso   1.00
C623   C     0.46701   0.49939   0.84709   0.00000  Uiso   1.00
C624   C     0.47642   0.34372   0.74780   0.00000  Uiso   1.00
C625   C     0.48468   0.39994   0.74855   0.00000  Uiso   1.00
C626   C     0.53340   0.50382   0.65326   0.00000  Uiso   1.00
C627   C     0.62516   0.55856   0.52965   0.00000  Uiso   1.00
C628   C     0.55309   0.51249   0.59875   0.00000  Uiso   1.00
C629   C     0.38587   0.47279   0.92275   0.00000  Uiso   1.00
C630   C     0.36777   0.46327   0.97420   0.00000  Uiso   1.00
C631   C     0.41074   0.47718   0.50636   0.00000  Uiso   1.00
Cu632  Cu    0.44043   0.49439   0.74435   0.00000  Uiso   1.00
Cu633  Cu    0.55957   0.50561   0.75564   0.00000  Uiso   1.00
H634   H     0.64718   0.55412   0.60272   0.00000  Uiso   1.00
H635   H     0.43129   0.65268   0.74351   0.00000  Uiso   1.00
H636   H     0.33685   0.54083   0.78977   0.00000  Uiso   1.00
H637   H     0.63608   0.59130   0.93728   0.00000  Uiso   1.00
H638   H     0.33745   0.58216   0.51526   0.00000  Uiso   1.00
H639   H     0.46508   0.47179   0.58347   0.00000  Uiso   1.00
H640   H     0.35230   0.45852   0.89808   0.00000  Uiso   1.00
H641   H     0.65373   0.44361   0.98904   0.00000  Uiso   1.00
H642   H     0.55854   0.57118   0.88485   0.00000  Uiso   1.00
N643   N     0.64908   0.51407   0.76416   0.00000  Uiso   1.00
N644   N     0.35092   0.48593   0.73584   0.00000  Uiso   1.00
O645   O     0.46131   0.57141   0.74633   0.00000  Uiso   1.00
O646   O     0.56191   0.58089   0.75586   0.00000  Uiso   1.00
O647   O     0.42515   0.49293   0.81839   0.00000  Uiso   1.00
O648   O     0.52575   0.50241   0.82793   0.00000  Uiso   1.00
O649   O     0.43809   0.41911   0.74413   0.00000  Uiso   1.00
O650   O     0.53869   0.42859   0.75367   0.00000  Uiso   1.00
O651   O     0.47425   0.49759   0.67207   0.00000  Uiso   1.00
O652   O     0.57485   0.50707   0.68160   0.00000  Uiso   1.00
C653   C     0.33603   0.44452   0.69679   0.00000  Uiso   1.00
O654   O     0.37512   0.41938   0.67760   0.00000  Uiso   1.00
O655   O     0.61530   0.43201   0.67738   0.00000  Uiso   1.00
H656   H     0.61411   0.40209   0.64973   0.00000  Uiso   1.00
H657   H     0.39321   0.46820   0.54571   0.00000  Uiso   1.00
H658   H     0.56864   0.34732   0.75662   0.00000  Uiso   1.00
C659   C     0.84857   0.60007   0.75163   0.00000  Uiso   1.00
C660   C     0.80632   0.50312   0.98789   0.00000  Uiso   1.00
C661   C     0.82266   0.51812   0.93669   0.00000  Uiso   1.00
C662   C     0.85274   0.51522   0.51865   0.00000  Uiso   1.00
C663   C     0.91241   0.54622   0.99963   0.00000  Uiso   1.00
C664   C     0.92498   0.56572   0.95140   0.00000  Uiso   1.00
C665   C     0.88054   0.55264   0.92072   0.00000  Uiso   1.00
C666   C     0.84183   0.49722   0.56777   0.00000  Uiso   1.00
C667   C     0.94547   0.54199   0.57915   0.00000  Uiso   1.00
C668   C     0.78024   0.49864   0.90305   0.00000  Uiso   1.00
C669   C     0.85685   0.65629   0.75234   0.00000  Uiso   1.00
C670   C     0.80034   0.49939   0.84709   0.00000  Uiso   1.00
C671   C     0.80975   0.34372   0.74780   0.00000  Uiso   1.00
C672   C     0.81802   0.39994   0.74855   0.00000  Uiso   1.00
C673   C     0.86673   0.50382   0.65326   0.00000  Uiso   1.00
C674   C     0.95849   0.55856   0.52965   0.00000  Uiso   1.00
C675   C     0.88643   0.51249   0.59875   0.00000  Uiso   1.00
C676   C     0.71920   0.47279   0.92275   0.00000  Uiso   1.00
C677   C     0.70111   0.46327   0.97420   0.00000  Uiso   1.00
C678   C     0.74408   0.47718   0.50636   0.00000  Uiso   1.00
Cu679  Cu    0.77377   0.49439   0.74435   0.00000  Uiso   1.00
Cu680  Cu    0.89290   0.50561   0.75564   0.00000  Uiso   1.00
H681   H     0.98051   0.55412   0.60272   0.00000  Uiso   1.00
H682   H     0.76463   0.65268   0.74351   0.00000  Uiso   1.00
H683   H     0.67018   0.54083   0.78977   0.00000  Uiso   1.00
H684   H     0.96942   0.59130   0.93728   0.00000  Uiso   1.00
H685   H     0.67078   0.58216   0.51526   0.00000  Uiso   1.00
H686   H     0.79842   0.47179   0.58347   0.00000  Uiso   1.00
H687   H     0.68564   0.45852   0.89808   0.00000  Uiso   1.00
H688   H     0.98706   0.44361   0.98904   0.00000  Uiso   1.00
H689   H     0.89188   0.57118   0.88485   0.00000  Uiso   1.00
N690   N     0.98241   0.51407   0.76416   0.00000  Uiso   1.00
N691   N     0.68426   0.48593   0.73584   0.00000  Uiso   1.00
O692   O     0.79464   0.57141   0.74633   0.00000  Uiso   1.00
O693   O     0.89524   0.58089   0.75586   0.00000  Uiso   1.00
O694   O     0.75848   0.49293   0.81839   0.00000  Uiso   1.00
O695   O     0.85908   0.50241   0.82793   0.00000  Uiso   1.00
O696   O     0.77142   0.41911   0.74413   0.00000  Uiso   1.00
O697   O     0.87203   0.42859   0.75367   0.00000  Uiso   1.00
O698   O     0.80758   0.49759   0.67207   0.00000  Uiso   1.00
O699   O     0.90819   0.50707   0.68160   0.00000  Uiso   1.00
C700   C     0.66936   0.44452   0.69679   0.00000  Uiso   1.00
O701   O     0.70846   0.41938   0.67760   0.00000  Uiso   1.00
O702   O     0.94863   0.43201   0.67738   0.00000  Uiso   1.00
H703   H     0.94744   0.40209   0.64973   0.00000  Uiso   1.00
H704   H     0.72654   0.46820   0.54571   0.00000  Uiso   1.00
H705   H     0.90198   0.34732   0.75662   0.00000  Uiso   1.00
C706   C     0.18191   0.93340   0.75163   0.00000  Uiso   1.00
C707   C     0.13965   0.83646   0.98789   0.00000  Uiso   1.00
C708   C     0.15599   0.85146   0.93669   0.00000  Uiso   1.00
C709   C     0.18608   0.84855   0.51865   0.00000  Uiso   1.00
C710   C     0.24574   0.87956   0.99963   0.00000  Uiso   1.00
C711   C     0.25831   0.89906   0.95140   0.00000  Uiso   1.00
C712   C     0.21388   0.88597   0.92072   0.00000  Uiso   1.00
C713   C     0.17517   0.83055   0.56777   0.00000  Uiso   1.00
C714   C     0.27880   0.87532   0.57915   0.00000  Uiso   1.00
C715   C     0.11358   0.83198   0.90305   0.00000  Uiso   1.00
C716   C     0.19019   0.98962   0.75234   0.00000  Uiso   1.00
C717   C     0.13368   0.83272   0.84709   0.00000  Uiso   1.00
C718   C     0.14308   0.67705   0.74780   0.00000  Uiso   1.00
C719   C     0.15135   0.73327   0.74855   0.00000  Uiso   1.00
C720   C     0.20007   0.83716   0.65326   0.00000  Uiso   1.00
C721   C     0.29183   0.89189   0.52965   0.00000  Uiso   1.00
C722   C     0.21976   0.84583   0.59875   0.00000  Uiso   1.00
C723   C     0.05253   0.80612   0.92275   0.00000  Uiso   1.00
C724   C     0.03444   0.79660   0.97420   0.00000  Uiso   1.00
C725   C     0.07741   0.81051   0.50636   0.00000  Uiso   1.00
Cu726  Cu    0.10710   0.82772   0.74435   0.00000  Uiso   1.00
Cu727  Cu    0.22623   0.83895   0.75564   0.00000  Uiso   1.00
H728   H     0.31385   0.88746   0.60272   0.00000  Uiso   1.00
H729   H     0.09796   0.98601   0.74351   0.00000  Uiso   1.00
H730   H     0.00351   0.87416   0.78977   0.00000  Uiso   1.00
H731   H     0.30275   0.92464   0.93728   0.00000  Uiso   1.00
H732   H     0.00412   0.91549   0.51526   0.00000  Uiso   1.00
H733   H     0.13175   0.80513   0.58347   0.00000  Uiso   1.00
H734   H     0.01897   0.79186   0.89808   0.00000  Uiso   1.00
H735   H     0.32040   0.77694   0.98904   0.00000  Uiso   1.00
H736   H     0.22521   0.90451   0.88485   0.00000  Uiso   1.00
N737   N     0.31574   0.84741   0.76416   0.00000  Uiso   1.00
N738   N     0.01759   0.81926   0.73584   0.00000  Uiso   1.00
O739   O     0.12797   0.90474   0.74633   0.00000  Uiso   1.00
O740   O     0.22858   0.91422   0.75586   0.00000  Uiso   1.00
O741   O     0.09181   0.82627   0.81839   0.00000  Uiso   1.00
O742   O     0.19242   0.83575   0.82793   0.00000  Uiso   1.00
O743   O     0.10476   0.75245   0.74413   0.00000  Uiso   1.00
O744   O     0.20536   0.76193   0.75367   0.00000  Uiso   1.00
O745   O     0.14092   0.83092   0.67207   0.00000  Uiso   1.00
O746   O     0.24152   0.84040   0.68160   0.00000  Uiso   1.00
C747   C     0.00269   0.77786   0.69679   0.00000  Uiso   1.00
O748   O     0.04179   0.75271   0.67760   0.00000  Uiso   1.00
O749   O     0.28196   0.76535   0.67738   0.00000  Uiso   1.00
H750   H     0.28078   0.73542   0.64973   0.00000  Uiso   1.00
H751   H     0.05987   0.80153   0.54571   0.00000  Uiso   1.00
H752   H     0.23531   0.68066   0.75662   0.00000  Uiso   1.00
C753   C     0.51524   0.93340   0.75163   0.00000  Uiso   1.00
C754   C     0.47299   0.83646   0.98789   0.00000  Uiso   1.00
C755   C     0.48932   0.85146   0.93669   0.00000  Uiso   1.00
C756   C     0.51941   0.84855   0.51865   0.00000  Uiso   1.00
C757   C     0.57907   0.87956   0.99963   0.00000  Uiso   1.00
C758   C     0.59164   0.89906   0.95140   0.00000  Uiso   1.00
C759   C     0.54721   0.88597   0.92072   0.00000  Uiso   1.00
C760   C     0.50850   0.83055   0.56777   0.00000  Uiso   1.00
C761   C     0.61214   0.87532   0.57915   0.00000  Uiso   1.00
C762   C     0.44691   0.83198   0.90305   0.00000  Uiso   1.00
C763   C     0.52352   0.98962   0.75234   0.00000  Uiso   1.00
C764   C     0.46701   0.83272   0.84709   0.00000  Uiso   1.00
C765   C     0.47642   0.67705   0.74780   0.00000  Uiso   1.00
C766   C     0.48468   0.73327   0.74855   0.00000  Uiso   1.00
C767   C     0.53340   0.83716   0.65326   0.00000  Uiso   1.00
C768   C     0.62516   0.89189   0.52965   0.00000  Uiso   1.00
C769   C     0.55309   0.84583   0.59875   0.00000  Uiso   1.00
C770   C     0.38587   0.80612   0.92275   0.00000  Uiso   1.00
C771   C     0.36777   0.79660   0.97420   0.00000  Uiso   1.00
C772   C     0.41074   0.81051   0.50636   0.00000  Uiso   1.00
Cu773  Cu    0.44043   0.82772   0.74435   0.00000  Uiso   1.00
Cu774  Cu    0.55957   0.83895   0.75564   0.00000  Uiso   1.00
H775   H     0.64718   0.88746   0.60272   0.00000  Uiso   1.00
H776   H     0.43129   0.98601   0.74351   0.00000  Uiso   1.00
H777   H     0.33685   0.87416   0.78977   0.00000  Uiso   1.00
H778   H     0.63608   0.92464   0.93728   0.00000  Uiso   1.00
H779   H     0.33745   0.91549   0.51526   0.00000  Uiso   1.00
H780   H     0.46508   0.80513   0.58347   0.00000  Uiso   1.00
H781   H     0.35230   0.79186   0.89808   0.00000  Uiso   1.00
H782   H     0.65373   0.77694   0.98904   0.00000  Uiso   1.00
H783   H     0.55854   0.90451   0.88485   0.00000  Uiso   1.00
N784   N     0.64908   0.84741   0.76416   0.00000  Uiso   1.00
N785   N     0.35092   0.81926   0.73584   0.00000  Uiso   1.00
O786   O     0.46131   0.90474   0.74633   0.00000  Uiso   1.00
O787   O     0.56191   0.91422   0.75586   0.00000  Uiso   1.00
O788   O     0.42515   0.82627   0.81839   0.00000  Uiso   1.00
O789   O     0.52575   0.83575   0.82793   0.00000  Uiso   1.00
O790   O     0.43809   0.75245   0.74413   0.00000  Uiso   1.00
O791   O     0.53869   0.76193   0.75367   0.00000  Uiso   1.00
O792   O     0.47425   0.83092   0.67207   0.00000  Uiso   1.00
O793   O     0.57485   0.84040   0.68160   0.00000  Uiso   1.00
C794   C     0.33603   0.77786   0.69679   0.00000  Uiso   1.00
O795   O     0.37512   0.75271   0.67760   0.00000  Uiso   1.00
O796   O     0.61530   0.76535   0.67738   0.00000  Uiso   1.00
H797   H     0.61411   0.73542   0.64973   0.00000  Uiso   1.00
H798   H     0.39321   0.80153   0.54571   0.00000  Uiso   1.00
H799   H     0.56864   0.68066   0.75662   0.00000  Uiso   1.00
C800   C     0.84857   0.93340   0.75163   0.00000  Uiso   1.00
C801   C     0.80632   0.83646   0.98789   0.00000  Uiso   1.00
C802   C     0.82266   0.85146   0.93669   0.00000  Uiso   1.00
C803   C     0.85274   0.84855   0.51865   0.00000  Uiso   1.00
C804   C     0.91241   0.87956   0.99963   0.00000  Uiso   1.00
C805   C     0.92498   0.89906   0.95140   0.00000  Uiso   1.00
C806   C     0.88054   0.88597   0.92072   0.00000  Uiso   1.00
C807   C     0.84183   0.83055   0.56777   0.00000  Uiso   1.00
C808   C     0.94547   0.87532   0.57915   0.00000  Uiso   1.00
C809   C     0.78024   0.83198   0.90305   0.00000  Uiso   1.00
C810   C     0.85685   0.98962   0.75234   0.00000  Uiso   1.00
C811   C     0.80034   0.83272   0.84709   0.00000  Uiso   1.00
C812   C     0.80975   0.67705   0.74780   0.00000  Uiso   1.00
C813   C     0.81802   0.73327   0.74855   0.00000  Uiso   1.00
C814   C     0.86673   0.83716   0.65326   0.00000  Uiso   1.00
C815   C     0.95849   0.89189   0.52965   0.00000  Uiso   1.00
C816   C     0.88643   0.84583   0.59875   0.00000  Uiso   1.00
C817   C     0.71920   0.80612   0.92275   0.00000  Uiso   1.00
C818   C     0.70111   0.79660   0.97420   0.00000  Uiso   1.00
C819   C     0.74408   0.81051   0.50636   0.00000  Uiso   1.00
Cu820  Cu    0.77377   0.82772   0.74435   0.00000  Uiso   1.00
Cu821  Cu    0.89290   0.83895   0.75564   0.00000  Uiso   1.00
H822   H     0.98051   0.88746   0.60272   0.00000  Uiso   1.00
H823   H     0.76463   0.98601   0.74351   0.00000  Uiso   1.00
H824   H     0.67018   0.87416   0.78977   0.00000  Uiso   1.00
H825   H     0.96942   0.92464   0.93728   0.00000  Uiso   1.00
H826   H     0.67078   0.91549   0.51526   0.00000  Uiso   1.00
H827   H     0.79842   0.80513   0.58347   0.00000  Uiso   1.00
H828   H     0.68564   0.79186   0.89808   0.00000  Uiso   1.00
H829   H     0.98706   0.77694   0.98904   0.00000  Uiso   1.00
H830   H     0.89188   0.90451   0.88485   0.00000  Uiso   1.00
N831   N     0.98241   0.84741   0.76416   0.00000  Uiso   1.00
N832   N     0.68426   0.81926   0.73584   0.00000  Uiso   1.00
O833   O     0.79464   0.90474   0.74633   0.00000  Uiso   1.00
O834   O     0.89524   0.91422   0.75586   0.00000  Uiso   1.00
O835   O     0.75848   0.82627   0.81839   0.00000  Uiso   1.00
O836   O     0.85908   0.83575   0.82793   0.00000  Uiso   1.00
O837   O     0.77142   0.75245   0.74413   0.00000  Uiso   1.00
O838   O     0.87203   0.76193   0.75367   0.00000  Uiso   1.00
O839   O     0.80758   0.83092   0.67207   0.00000  Uiso   1.00
O840   O     0.90819   0.84040   0.68160   0.00000  Uiso   1.00
C841   C     0.66936   0.77786   0.69679   0.00000  Uiso   1.00
O842   O     0.70846   0.75271   0.67760   0.00000  Uiso   1.00
O843   O     0.94863   0.76535   0.67738   0.00000  Uiso   1.00
H844   H     0.94744   0.73542   0.64973   0.00000  Uiso   1.00
H845   H     0.72654   0.80153   0.54571   0.00000  Uiso   1.00
H846   H     0.90198   0.68066   0.75662   0.00000  Uiso   1.00
loop_
_geom_bond_atom_site_label_1
_geom_bond_atom_site_label_2
_geom_bond_distance
_geom_bond_site_symmetry_2
_ccdc_geom_bond_type
C1     C11     1.434   .     S
C1     O34     1.296   .     A
C1     O35     1.301   .     A
C2     C3      1.419   .     A
C2     C427    1.424   .     S
C2     C443    1.418   .     S
C3     C10     1.421   .     A
C3     C7      1.413   .     A
C4     C8      1.401   .     A
C4     C425    1.424   1_554 S
C4     C428    1.420   1_554 S
C5     C6      1.391   .     A
C5     C427    1.420   .     S
C5     C439    1.404   .     S
C6     C7      1.387   .     A
C6     H26     1.084   .     S
C7     H31     1.080   .     S
C8     H28     1.077   .     S
C8     C17     1.397   .     A
C9     C17     1.399   .     A
C9     C16     1.393   .     A
C9     H23     1.083   .     S
C10    C18     1.403   .     A
C10    C12     1.474   .     S
C11    C154    1.337   .     S
C11    H188    1.087   .     S
C12    O36     1.310   .     A
C12    O37     1.306   .     A
C13    C14     1.434   .     S
C13    C293    1.337   1_545 S
C13    H306    1.087   1_545 S
C14    O38     1.300   .     A
C14    O39     1.297   .     A
C15    O41     1.308   .     A
C15    O40     1.303   .     A
C15    C17     1.462   .     S
C16    C428    1.404   1_554 S
C16    H74     1.084   .     S
C18    H29     1.083   .     S
C18    C19     1.387   .     A
C19    C443    1.390   .     S
C19    H124    1.083   1_455 S
C20    H46     1.077   .     S
C20    C442    1.390   1_554 S
C20    C425    1.418   1_554 S
Cu21   N33     2.040   .     S
Cu21   O40     1.931   .     S
Cu21   O36     1.945   .     S
Cu21   O34     1.951   .     S
Cu21   Cu22    2.716   .     S
Cu21   O38     1.954   .     S
Cu22   O37     1.931   .     S
Cu22   N32     2.040   .     S
Cu22   O35     1.954   .     S
Cu22   O41     1.945   .     S
Cu22   O39     1.951   .     S
H24    C154    1.087   .     S
H25    N126    1.029   1_455 S
H27    C110    1.084   1_455 S
H30    C66     1.083   .     S
N32    H72     1.029   .     S
N32    N80     1.284   .     S
N33    C42     1.449   .     S
N33    N126    1.284   1_455 S
C42    O43     1.219   .     D
C42    O138    1.382   1_455 S
O44    H45     1.015   .     S
O44    C89     1.382   .     S
H47    C293    1.087   1_545 S
C48    C58     1.434   .     S
C48    O81     1.296   .     A
C48    O82     1.301   .     A
C49    C50     1.419   .     A
C49    C474    1.424   .     S
C49    C490    1.418   .     S
C50    C57     1.421   .     A
C50    C54     1.413   .     A
C51    C55     1.401   .     A
C51    C472    1.424   1_554 S
C51    C475    1.420   1_554 S
C52    C53     1.391   .     A
C52    C474    1.420   .     S
C52    C486    1.404   .     S
C53    C54     1.387   .     A
C53    H73     1.084   .     S
C54    H78     1.080   .     S
C55    H75     1.077   .     S
C55    C64     1.397   .     A
C56    C64     1.399   .     A
C56    C63     1.393   .     A
C56    H70     1.083   .     S
C57    C65     1.403   .     A
C57    C59     1.474   .     S
C58    C201    1.337   .     S
C58    H235    1.087   .     S
C59    O83     1.310   .     A
C59    O84     1.306   .     A
C60    C61     1.434   .     S
C60    C340    1.337   1_545 S
C60    H353    1.087   1_545 S
C61    O85     1.300   .     A
C61    O86     1.297   .     A
C62    O88     1.308   .     A
C62    O87     1.303   .     A
C62    C64     1.462   .     S
C63    C475    1.404   1_554 S
C63    H121    1.084   .     S
C65    H76     1.083   .     S
C65    C66     1.387   .     A
C66    C490    1.390   .     S
C67    H93     1.077   .     S
C67    C489    1.390   1_554 S
C67    C472    1.418   1_554 S
Cu68   N80     2.040   .     S
Cu68   O87     1.931   .     S
Cu68   O83     1.945   .     S
Cu68   O81     1.951   .     S
Cu68   Cu69    2.716   .     S
Cu68   O85     1.954   .     S
Cu69   O84     1.931   .     S
Cu69   N79     2.040   .     S
Cu69   O82     1.954   .     S
Cu69   O88     1.945   .     S
Cu69   O86     1.951   .     S
H71    C201    1.087   .     S
H77    C113    1.083   .     S
N79    H119    1.029   .     S
N79    N127    1.284   .     S
N80    C89     1.449   .     S
C89    O90     1.219   .     D
O91    H92     1.015   .     S
O91    C136    1.382   .     S
H94    C340    1.087   1_545 S
C95    C105    1.434   .     S
C95    O128    1.296   .     A
C95    O129    1.301   .     A
C96    C97     1.419   .     A
C96    C521    1.424   .     S
C96    C537    1.418   .     S
C97    C104    1.421   .     A
C97    C101    1.413   .     A
C98    C102    1.401   .     A
C98    C519    1.424   1_554 S
C98    C522    1.420   1_554 S
C99    C100    1.391   .     A
C99    C521    1.420   .     S
C99    C533    1.404   .     S
C100   C101    1.387   .     A
C100   H120    1.084   .     S
C101   H125    1.080   .     S
C102   H122    1.077   .     S
C102   C111    1.397   .     A
C103   C111    1.399   .     A
C103   C110    1.393   .     A
C103   H117    1.083   .     S
C104   C112    1.403   .     A
C104   C106    1.474   .     S
C105   C248    1.337   .     S
C105   H282    1.087   .     S
C106   O130    1.310   .     A
C106   O131    1.306   .     A
C107   C108    1.434   .     S
C107   C387    1.337   1_545 S
C107   H400    1.087   1_545 S
C108   O132    1.300   .     A
C108   O133    1.297   .     A
C109   O135    1.308   .     A
C109   O134    1.303   .     A
C109   C111    1.462   .     S
C110   C522    1.404   1_554 S
C110   H27     1.084   1_655 S
C112   H123    1.083   .     S
C112   C113    1.387   .     A
C113   C537    1.390   .     S
C114   H140    1.077   .     S
C114   C536    1.390   1_554 S
C114   C519    1.418   1_554 S
Cu115  N127    2.040   .     S
Cu115  O134    1.931   .     S
Cu115  O130    1.945   .     S
Cu115  O128    1.951   .     S
Cu115  Cu116   2.716   .     S
Cu115  O132    1.954   .     S
Cu116  O131    1.931   .     S
Cu116  N126    2.040   .     S
Cu116  O129    1.954   .     S
Cu116  O135    1.945   .     S
Cu116  O133    1.951   .     S
H118   C248    1.087   .     S
H124   C19     1.083   1_655 S
N126   H25     1.029   1_655 S
N126   N33     1.284   1_655 S
N127   C136    1.449   .     S
C136   O137    1.219   .     D
O138   H139    1.015   .     S
O138   C42     1.382   1_655 S
H141   C387    1.087   1_545 S
C142   C152    1.434   .     S
C142   O175    1.296   .     A
C142   O176    1.301   .     A
C143   C144    1.419   .     A
C143   C568    1.424   .     S
C143   C584    1.418   .     S
C144   C151    1.421   .     A
C144   C148    1.413   .     A
C145   C149    1.401   .     A
C145   C566    1.424   1_554 S
C145   C569    1.420   1_554 S
C146   C147    1.391   .     A
C146   C568    1.420   .     S
C146   C580    1.404   .     S
C147   C148    1.387   .     A
C147   H167    1.084   .     S
C148   H172    1.080   .     S
C149   H169    1.077   .     S
C149   C158    1.397   .     A
C150   C158    1.399   .     A
C150   C157    1.393   .     A
C150   H164    1.083   .     S
C151   C159    1.403   .     A
C151   C153    1.474   .     S
C152   C295    1.337   .     S
C152   H329    1.087   .     S
C153   O177    1.310   .     A
C153   O178    1.306   .     A
C154   C155    1.434   .     S
C155   O179    1.300   .     A
C155   O180    1.297   .     A
C156   O182    1.308   .     A
C156   O181    1.303   .     A
C156   C158    1.462   .     S
C157   C569    1.404   1_554 S
C157   H215    1.084   .     S
C159   H170    1.083   .     S
C159   C160    1.387   .     A
C160   C584    1.390   .     S
C160   H265    1.083   1_455 S
C161   H187    1.077   .     S
C161   C583    1.390   1_554 S
C161   C566    1.418   1_554 S
Cu162  N174    2.040   .     S
Cu162  O181    1.931   .     S
Cu162  O177    1.945   .     S
Cu162  O175    1.951   .     S
Cu162  Cu163   2.716   .     S
Cu162  O179    1.954   .     S
Cu163  O178    1.931   .     S
Cu163  N173    2.040   .     S
Cu163  O176    1.954   .     S
Cu163  O182    1.945   .     S
Cu163  O180    1.951   .     S
H165   C295    1.087   .     S
H166   N267    1.029   1_455 S
H168   C251    1.084   1_455 S
H171   C207    1.083   .     S
N173   H213    1.029   .     S
N173   N221    1.284   .     S
N174   C183    1.449   .     S
N174   N267    1.284   1_455 S
C183   O184    1.219   .     D
C183   O279    1.382   1_455 S
O185   H186    1.015   .     S
O185   C230    1.382   .     S
C189   C199    1.434   .     S
C189   O222    1.296   .     A
C189   O223    1.301   .     A
C190   C191    1.419   .     A
C190   C615    1.424   .     S
C190   C631    1.418   .     S
C191   C198    1.421   .     A
C191   C195    1.413   .     A
C192   C196    1.401   .     A
C192   C613    1.424   1_554 S
C192   C616    1.420   1_554 S
C193   C194    1.391   .     A
C193   C615    1.420   .     S
C193   C627    1.404   .     S
C194   C195    1.387   .     A
C194   H214    1.084   .     S
C195   H219    1.080   .     S
C196   H216    1.077   .     S
C196   C205    1.397   .     A
C197   C205    1.399   .     A
C197   C204    1.393   .     A
C197   H211    1.083   .     S
C198   C206    1.403   .     A
C198   C200    1.474   .     S
C199   C342    1.337   .     S
C199   H376    1.087   .     S
C200   O224    1.310   .     A
C200   O225    1.306   .     A
C201   C202    1.434   .     S
C202   O226    1.300   .     A
C202   O227    1.297   .     A
C203   O229    1.308   .     A
C203   O228    1.303   .     A
C203   C205    1.462   .     S
C204   C616    1.404   1_554 S
C204   H262    1.084   .     S
C206   H217    1.083   .     S
C206   C207    1.387   .     A
C207   C631    1.390   .     S
C208   H234    1.077   .     S
C208   C630    1.390   1_554 S
C208   C613    1.418   1_554 S
Cu209  N221    2.040   .     S
Cu209  O228    1.931   .     S
Cu209  O224    1.945   .     S
Cu209  O222    1.951   .     S
Cu209  Cu210   2.716   .     S
Cu209  O226    1.954   .     S
Cu210  O225    1.931   .     S
Cu210  N220    2.040   .     S
Cu210  O223    1.954   .     S
Cu210  O229    1.945   .     S
Cu210  O227    1.951   .     S
H212   C342    1.087   .     S
H218   C254    1.083   .     S
N220   H260    1.029   .     S
N220   N268    1.284   .     S
N221   C230    1.449   .     S
C230   O231    1.219   .     D
O232   H233    1.015   .     S
O232   C277    1.382   .     S
C236   C246    1.434   .     S
C236   O269    1.296   .     A
C236   O270    1.301   .     A
C237   C238    1.419   .     A
C237   C662    1.424   .     S
C237   C678    1.418   .     S
C238   C245    1.421   .     A
C238   C242    1.413   .     A
C239   C243    1.401   .     A
C239   C660    1.424   1_554 S
C239   C663    1.420   1_554 S
C240   C241    1.391   .     A
C240   C662    1.420   .     S
C240   C674    1.404   .     S
C241   C242    1.387   .     A
C241   H261    1.084   .     S
C242   H266    1.080   .     S
C243   H263    1.077   .     S
C243   C252    1.397   .     A
C244   C252    1.399   .     A
C244   C251    1.393   .     A
C244   H258    1.083   .     S
C245   C253    1.403   .     A
C245   C247    1.474   .     S
C246   C389    1.337   .     S
C246   H423    1.087   .     S
C247   O271    1.310   .     A
C247   O272    1.306   .     A
C248   C249    1.434   .     S
C249   O273    1.300   .     A
C249   O274    1.297   .     A
C250   O276    1.308   .     A
C250   O275    1.303   .     A
C250   C252    1.462   .     S
C251   C663    1.404   1_554 S
C251   H168    1.084   1_655 S
C253   H264    1.083   .     S
C253   C254    1.387   .     A
C254   C678    1.390   .     S
C255   H281    1.077   .     S
C255   C677    1.390   1_554 S
C255   C660    1.418   1_554 S
Cu256  N268    2.040   .     S
Cu256  O275    1.931   .     S
Cu256  O271    1.945   .     S
Cu256  O269    1.951   .     S
Cu256  Cu257   2.716   .     S
Cu256  O273    1.954   .     S
Cu257  O272    1.931   .     S
Cu257  N267    2.040   .     S
Cu257  O270    1.954   .     S
Cu257  O276    1.945   .     S
Cu257  O274    1.951   .     S
H259   C389    1.087   .     S
H265   C160    1.083   1_655 S
N267   H166    1.029   1_655 S
N267   N174    1.284   1_655 S
N268   C277    1.449   .     S
C277   O278    1.219   .     D
O279   H280    1.015   .     S
O279   C183    1.382   1_655 S
C283   C293    1.434   .     S
C283   O316    1.296   .     A
C283   O317    1.301   .     A
C284   C285    1.419   .     A
C284   C709    1.424   .     S
C284   C725    1.418   .     S
C285   C292    1.421   .     A
C285   C289    1.413   .     A
C286   C290    1.401   .     A
C286   C707    1.424   1_554 S
C286   C710    1.420   1_554 S
C287   C288    1.391   .     A
C287   C709    1.420   .     S
C287   C721    1.404   .     S
C288   C289    1.387   .     A
C288   H308    1.084   .     S
C289   H313    1.080   .     S
C290   H310    1.077   .     S
C290   C299    1.397   .     A
C291   C299    1.399   .     A
C291   C298    1.393   .     A
C291   H305    1.083   .     S
C292   C300    1.403   .     A
C292   C294    1.474   .     S
C293   C13     1.337   1_565 S
C293   H47     1.087   1_565 S
C294   O318    1.310   .     A
C294   O319    1.306   .     A
C295   C296    1.434   .     S
C296   O320    1.300   .     A
C296   O321    1.297   .     A
C297   O323    1.308   .     A
C297   O322    1.303   .     A
C297   C299    1.462   .     S
C298   C710    1.404   1_554 S
C298   H356    1.084   .     S
C300   H311    1.083   .     S
C300   C301    1.387   .     A
C301   C725    1.390   .     S
C301   H406    1.083   1_455 S
C302   H328    1.077   .     S
C302   C724    1.390   1_554 S
C302   C707    1.418   1_554 S
Cu303  N315    2.040   .     S
Cu303  O322    1.931   .     S
Cu303  O318    1.945   .     S
Cu303  O316    1.951   .     S
Cu303  Cu304   2.716   .     S
Cu303  O320    1.954   .     S
Cu304  O319    1.931   .     S
Cu304  N314    2.040   .     S
Cu304  O317    1.954   .     S
Cu304  O323    1.945   .     S
Cu304  O321    1.951   .     S
H306   C13     1.087   1_565 S
H307   N408    1.029   1_455 S
H309   C392    1.084   1_455 S
H312   C348    1.083   .     S
N314   H354    1.029   .     S
N314   N362    1.284   .     S
N315   C324    1.449   .     S
N315   N408    1.284   1_455 S
C324   O325    1.219   .     D
C324   O420    1.382   1_455 S
O326   H327    1.015   .     S
O326   C371    1.382   .     S
C330   C340    1.434   .     S
C330   O363    1.296   .     A
C330   O364    1.301   .     A
C331   C332    1.419   .     A
C331   C756    1.424   .     S
C331   C772    1.418   .     S
C332   C339    1.421   .     A
C332   C336    1.413   .     A
C333   C337    1.401   .     A
C333   C754    1.424   1_554 S
C333   C757    1.420   1_554 S
C334   C335    1.391   .     A
C334   C756    1.420   .     S
C334   C768    1.404   .     S
C335   C336    1.387   .     A
C335   H355    1.084   .     S
C336   H360    1.080   .     S
C337   H357    1.077   .     S
C337   C346    1.397   .     A
C338   C346    1.399   .     A
C338   C345    1.393   .     A
C338   H352    1.083   .     S
C339   C347    1.403   .     A
C339   C341    1.474   .     S
C340   C60     1.337   1_565 S
C340   H94     1.087   1_565 S
C341   O365    1.310   .     A
C341   O366    1.306   .     A
C342   C343    1.434   .     S
C343   O367    1.300   .     A
C343   O368    1.297   .     A
C344   O370    1.308   .     A
C344   O369    1.303   .     A
C344   C346    1.462   .     S
C345   C757    1.404   1_554 S
C345   H403    1.084   .     S
C347   H358    1.083   .     S
C347   C348    1.387   .     A
C348   C772    1.390   .     S
C349   H375    1.077   .     S
C349   C771    1.390   1_554 S
C349   C754    1.418   1_554 S
Cu350  N362    2.040   .     S
Cu350  O369    1.931   .     S
Cu350  O365    1.945   .     S
Cu350  O363    1.951   .     S
Cu350  Cu351   2.716   .     S
Cu350  O367    1.954   .     S
Cu351  O366    1.931   .     S
Cu351  N361    2.040   .     S
Cu351  O364    1.954   .     S
Cu351  O370    1.945   .     S
Cu351  O368    1.951   .     S
H353   C60     1.087   1_565 S
H359   C395    1.083   .     S
N361   H401    1.029   .     S
N361   N409    1.284   .     S
N362   C371    1.449   .     S
C371   O372    1.219   .     D
O373   H374    1.015   .     S
O373   C418    1.382   .     S
C377   C387    1.434   .     S
C377   O410    1.296   .     A
C377   O411    1.301   .     A
C378   C379    1.419   .     A
C378   C803    1.424   .     S
C378   C819    1.418   .     S
C379   C386    1.421   .     A
C379   C383    1.413   .     A
C380   C384    1.401   .     A
C380   C801    1.424   1_554 S
C380   C804    1.420   1_554 S
C381   C382    1.391   .     A
C381   C803    1.420   .     S
C381   C815    1.404   .     S
C382   C383    1.387   .     A
C382   H402    1.084   .     S
C383   H407    1.080   .     S
C384   H404    1.077   .     S
C384   C393    1.397   .     A
C385   C393    1.399   .     A
C385   C392    1.393   .     A
C385   H399    1.083   .     S
C386   C394    1.403   .     A
C386   C388    1.474   .     S
C387   C107    1.337   1_565 S
C387   H141    1.087   1_565 S
C388   O412    1.310   .     A
C388   O413    1.306   .     A
C389   C390    1.434   .     S
C390   O414    1.300   .     A
C390   O415    1.297   .     A
C391   O417    1.308   .     A
C391   O416    1.303   .     A
C391   C393    1.462   .     S
C392   C804    1.404   1_554 S
C392   H309    1.084   1_655 S
C394   H405    1.083   .     S
C394   C395    1.387   .     A
C395   C819    1.390   .     S
C396   H422    1.077   .     S
C396   C818    1.390   1_554 S
C396   C801    1.418   1_554 S
Cu397  N409    2.040   .     S
Cu397  O416    1.931   .     S
Cu397  O412    1.945   .     S
Cu397  O410    1.951   .     S
Cu397  Cu398   2.716   .     S
Cu397  O414    1.954   .     S
Cu398  O413    1.931   .     S
Cu398  N408    2.040   .     S
Cu398  O411    1.954   .     S
Cu398  O417    1.945   .     S
Cu398  O415    1.951   .     S
H400   C107    1.087   1_565 S
H406   C301    1.083   1_655 S
N408   H307    1.029   1_655 S
N408   N315    1.284   1_655 S
N409   C418    1.449   .     S
C418   O419    1.219   .     D
O420   H421    1.015   .     S
O420   C324    1.382   1_655 S
C424   C434    1.434   .     S
C424   O457    1.296   .     A
C424   O458    1.301   .     A
C425   C426    1.419   .     A
C425   C4      1.424   1_556 S
C425   C20     1.418   1_556 S
C426   C433    1.421   .     A
C426   C430    1.413   .     A
C427   C431    1.401   .     A
C428   C429    1.391   .     A
C428   C4      1.420   1_556 S
C428   C16     1.404   1_556 S
C429   C430    1.387   .     A
C429   H449    1.084   .     S
C430   H454    1.080   .     S
C431   H451    1.077   .     S
C431   C440    1.397   .     A
C432   C440    1.399   .     A
C432   C439    1.393   .     A
C432   H446    1.083   .     S
C433   C441    1.403   .     A
C433   C435    1.474   .     S
C434   C577    1.337   .     S
C434   H611    1.087   .     S
C435   O459    1.310   .     A
C435   O460    1.306   .     A
C436   C437    1.434   .     S
C436   C716    1.337   1_545 S
C436   H729    1.087   1_545 S
C437   O461    1.300   .     A
C437   O462    1.297   .     A
C438   O464    1.308   .     A
C438   O463    1.303   .     A
C438   C440    1.462   .     S
C439   H497    1.084   .     S
C441   H452    1.083   .     S
C441   C442    1.387   .     A
C442   C20     1.390   1_556 S
C442   H547    1.083   1_455 S
C443   H469    1.077   .     S
Cu444  N456    2.040   .     S
Cu444  O463    1.931   .     S
Cu444  O459    1.945   .     S
Cu444  O457    1.951   .     S
Cu444  Cu445   2.716   .     S
Cu444  O461    1.954   .     S
Cu445  O460    1.931   .     S
Cu445  N455    2.040   .     S
Cu445  O458    1.954   .     S
Cu445  O464    1.945   .     S
Cu445  O462    1.951   .     S
H447   C577    1.087   .     S
H448   N549    1.029   1_455 S
H450   C533    1.084   1_455 S
H453   C489    1.083   .     S
N455   H495    1.029   .     S
N455   N503    1.284   .     S
N456   C465    1.449   .     S
N456   N549    1.284   1_455 S
C465   O466    1.219   .     D
C465   O561    1.382   1_455 S
O467   H468    1.015   .     S
O467   C512    1.382   .     S
H470   C716    1.087   1_545 S
C471   C481    1.434   .     S
C471   O504    1.296   .     A
C471   O505    1.301   .     A
C472   C473    1.419   .     A
C472   C51     1.424   1_556 S
C472   C67     1.418   1_556 S
C473   C480    1.421   .     A
C473   C477    1.413   .     A
C474   C478    1.401   .     A
C475   C476    1.391   .     A
C475   C51     1.420   1_556 S
C475   C63     1.404   1_556 S
C476   C477    1.387   .     A
C476   H496    1.084   .     S
C477   H501    1.080   .     S
C478   H498    1.077   .     S
C478   C487    1.397   .     A
C479   C487    1.399   .     A
C479   C486    1.393   .     A
C479   H493    1.083   .     S
C480   C488    1.403   .     A
C480   C482    1.474   .     S
C481   C624    1.337   .     S
C481   H658    1.087   .     S
C482   O506    1.310   .     A
C482   O507    1.306   .     A
C483   C484    1.434   .     S
C483   C763    1.337   1_545 S
C483   H776    1.087   1_545 S
C484   O508    1.300   .     A
C484   O509    1.297   .     A
C485   O511    1.308   .     A
C485   O510    1.303   .     A
C485   C487    1.462   .     S
C486   H544    1.084   .     S
C488   H499    1.083   .     S
C488   C489    1.387   .     A
C489   C67     1.390   1_556 S
C490   H516    1.077   .     S
Cu491  N503    2.040   .     S
Cu491  O510    1.931   .     S
Cu491  O506    1.945   .     S
Cu491  O504    1.951   .     S
Cu491  Cu492   2.716   .     S
Cu491  O508    1.954   .     S
Cu492  O507    1.931   .     S
Cu492  N502    2.040   .     S
Cu492  O505    1.954   .     S
Cu492  O511    1.945   .     S
Cu492  O509    1.951   .     S
H494   C624    1.087   .     S
H500   C536    1.083   .     S
N502   H542    1.029   .     S
N502   N550    1.284   .     S
N503   C512    1.449   .     S
C512   O513    1.219   .     D
O514   H515    1.015   .     S
O514   C559    1.382   .     S
H517   C763    1.087   1_545 S
C518   C528    1.434   .     S
C518   O551    1.296   .     A
C518   O552    1.301   .     A
C519   C520    1.419   .     A
C519   C98     1.424   1_556 S
C519   C114    1.418   1_556 S
C520   C527    1.421   .     A
C520   C524    1.413   .     A
C521   C525    1.401   .     A
C522   C523    1.391   .     A
C522   C98     1.420   1_556 S
C522   C110    1.404   1_556 S
C523   C524    1.387   .     A
C523   H543    1.084   .     S
C524   H548    1.080   .     S
C525   H545    1.077   .     S
C525   C534    1.397   .     A
C526   C534    1.399   .     A
C526   C533    1.393   .     A
C526   H540    1.083   .     S
C527   C535    1.403   .     A
C527   C529    1.474   .     S
C528   C671    1.337   .     S
C528   H705    1.087   .     S
C529   O553    1.310   .     A
C529   O554    1.306   .     A
C530   C531    1.434   .     S
C530   C810    1.337   1_545 S
C530   H823    1.087   1_545 S
C531   O555    1.300   .     A
C531   O556    1.297   .     A
C532   O558    1.308   .     A
C532   O557    1.303   .     A
C532   C534    1.462   .     S
C533   H450    1.084   1_655 S
C535   H546    1.083   .     S
C535   C536    1.387   .     A
C536   C114    1.390   1_556 S
C537   H563    1.077   .     S
Cu538  N550    2.040   .     S
Cu538  O557    1.931   .     S
Cu538  O553    1.945   .     S
Cu538  O551    1.951   .     S
Cu538  Cu539   2.716   .     S
Cu538  O555    1.954   .     S
Cu539  O554    1.931   .     S
Cu539  N549    2.040   .     S
Cu539  O552    1.954   .     S
Cu539  O558    1.945   .     S
Cu539  O556    1.951   .     S
H541   C671    1.087   .     S
H547   C442    1.083   1_655 S
N549   H448    1.029   1_655 S
N549   N456    1.284   1_655 S
N550   C559    1.449   .     S
C559   O560    1.219   .     D
O561   H562    1.015   .     S
O561   C465    1.382   1_655 S
H564   C810    1.087   1_545 S
C565   C575    1.434   .     S
C565   O598    1.296   .     A
C565   O599    1.301   .     A
C566   C567    1.419   .     A
C566   C145    1.424   1_556 S
C566   C161    1.418   1_556 S
C567   C574    1.421   .     A
C567   C571    1.413   .     A
C568   C572    1.401   .     A
C569   C570    1.391   .     A
C569   C145    1.420   1_556 S
C569   C157    1.404   1_556 S
C570   C571    1.387   .     A
C570   H590    1.084   .     S
C571   H595    1.080   .     S
C572   H592    1.077   .     S
C572   C581    1.397   .     A
C573   C581    1.399   .     A
C573   C580    1.393   .     A
C573   H587    1.083   .     S
C574   C582    1.403   .     A
C574   C576    1.474   .     S
C575   C718    1.337   .     S
C575   H752    1.087   .     S
C576   O600    1.310   .     A
C576   O601    1.306   .     A
C577   C578    1.434   .     S
C578   O602    1.300   .     A
C578   O603    1.297   .     A
C579   O605    1.308   .     A
C579   O604    1.303   .     A
C579   C581    1.462   .     S
C580   H638    1.084   .     S
C582   H593    1.083   .     S
C582   C583    1.387   .     A
C583   C161    1.390   1_556 S
C583   H688    1.083   1_455 S
C584   H610    1.077   .     S
Cu585  N597    2.040   .     S
Cu585  O604    1.931   .     S
Cu585  O600    1.945   .     S
Cu585  O598    1.951   .     S
Cu585  Cu586   2.716   .     S
Cu585  O602    1.954   .     S
Cu586  O601    1.931   .     S
Cu586  N596    2.040   .     S
Cu586  O599    1.954   .     S
Cu586  O605    1.945   .     S
Cu586  O603    1.951   .     S
H588   C718    1.087   .     S
H589   N690    1.029   1_455 S
H591   C674    1.084   1_455 S
H594   C630    1.083   .     S
N596   H636    1.029   .     S
N596   N644    1.284   .     S
N597   C606    1.449   .     S
N597   N690    1.284   1_455 S
C606   O607    1.219   .     D
C606   O702    1.382   1_455 S
O608   H609    1.015   .     S
O608   C653    1.382   .     S
C612   C622    1.434   .     S
C612   O645    1.296   .     A
C612   O646    1.301   .     A
C613   C614    1.419   .     A
C613   C192    1.424   1_556 S
C613   C208    1.418   1_556 S
C614   C621    1.421   .     A
C614   C618    1.413   .     A
C615   C619    1.401   .     A
C616   C617    1.391   .     A
C616   C192    1.420   1_556 S
C616   C204    1.404   1_556 S
C617   C618    1.387   .     A
C617   H637    1.084   .     S
C618   H642    1.080   .     S
C619   H639    1.077   .     S
C619   C628    1.397   .     A
C620   C628    1.399   .     A
C620   C627    1.393   .     A
C620   H634    1.083   .     S
C621   C629    1.403   .     A
C621   C623    1.474   .     S
C622   C765    1.337   .     S
C622   H799    1.087   .     S
C623   O647    1.310   .     A
C623   O648    1.306   .     A
C624   C625    1.434   .     S
C625   O649    1.300   .     A
C625   O650    1.297   .     A
C626   O652    1.308   .     A
C626   O651    1.303   .     A
C626   C628    1.462   .     S
C627   H685    1.084   .     S
C629   H640    1.083   .     S
C629   C630    1.387   .     A
C630   C208    1.390   1_556 S
C631   H657    1.077   .     S
Cu632  N644    2.040   .     S
Cu632  O651    1.931   .     S
Cu632  O647    1.945   .     S
Cu632  O645    1.951   .     S
Cu632  Cu633   2.716   .     S
Cu632  O649    1.954   .     S
Cu633  O648    1.931   .     S
Cu633  N643    2.040   .     S
Cu633  O646    1.954   .     S
Cu633  O652    1.945   .     S
Cu633  O650    1.951   .     S
H635   C765    1.087   .     S
H641   C677    1.083   .     S
N643   H683    1.029   .     S
N643   N691    1.284   .     S
N644   C653    1.449   .     S
C653   O654    1.219   .     D
O655   H656    1.015   .     S
O655   C700    1.382   .     S
C659   C669    1.434   .     S
C659   O692    1.296   .     A
C659   O693    1.301   .     A
C660   C661    1.419   .     A
C660   C239    1.424   1_556 S
C660   C255    1.418   1_556 S
C661   C668    1.421   .     A
C661   C665    1.413   .     A
C662   C666    1.401   .     A
C663   C664    1.391   .     A
C663   C239    1.420   1_556 S
C663   C251    1.404   1_556 S
C664   C665    1.387   .     A
C664   H684    1.084   .     S
C665   H689    1.080   .     S
C666   H686    1.077   .     S
C666   C675    1.397   .     A
C667   C675    1.399   .     A
C667   C674    1.393   .     A
C667   H681    1.083   .     S
C668   C676    1.403   .     A
C668   C670    1.474   .     S
C669   C812    1.337   .     S
C669   H846    1.087   .     S
C670   O694    1.310   .     A
C670   O695    1.306   .     A
C671   C672    1.434   .     S
C672   O696    1.300   .     A
C672   O697    1.297   .     A
C673   O699    1.308   .     A
C673   O698    1.303   .     A
C673   C675    1.462   .     S
C674   H591    1.084   1_655 S
C676   H687    1.083   .     S
C676   C677    1.387   .     A
C677   C255    1.390   1_556 S
C678   H704    1.077   .     S
Cu679  N691    2.040   .     S
Cu679  O698    1.931   .     S
Cu679  O694    1.945   .     S
Cu679  O692    1.951   .     S
Cu679  Cu680   2.716   .     S
Cu679  O696    1.954   .     S
Cu680  O695    1.931   .     S
Cu680  N690    2.040   .     S
Cu680  O693    1.954   .     S
Cu680  O699    1.945   .     S
Cu680  O697    1.951   .     S
H682   C812    1.087   .     S
H688   C583    1.083   1_655 S
N690   H589    1.029   1_655 S
N690   N597    1.284   1_655 S
N691   C700    1.449   .     S
C700   O701    1.219   .     D
O702   H703    1.015   .     S
O702   C606    1.382   1_655 S
C706   C716    1.434   .     S
C706   O739    1.296   .     A
C706   O740    1.301   .     A
C707   C708    1.419   .     A
C707   C286    1.424   1_556 S
C707   C302    1.418   1_556 S
C708   C715    1.421   .     A
C708   C712    1.413   .     A
C709   C713    1.401   .     A
C710   C711    1.391   .     A
C710   C286    1.420   1_556 S
C710   C298    1.404   1_556 S
C711   C712    1.387   .     A
C711   H731    1.084   .     S
C712   H736    1.080   .     S
C713   H733    1.077   .     S
C713   C722    1.397   .     A
C714   C722    1.399   .     A
C714   C721    1.393   .     A
C714   H728    1.083   .     S
C715   C723    1.403   .     A
C715   C717    1.474   .     S
C716   C436    1.337   1_565 S
C716   H470    1.087   1_565 S
C717   O741    1.310   .     A
C717   O742    1.306   .     A
C718   C719    1.434   .     S
C719   O743    1.300   .     A
C719   O744    1.297   .     A
C720   O746    1.308   .     A
C720   O745    1.303   .     A
C720   C722    1.462   .     S
C721   H779    1.084   .     S
C723   H734    1.083   .     S
C723   C724    1.387   .     A
C724   C302    1.390   1_556 S
C724   H829    1.083   1_455 S
C725   H751    1.077   .     S
Cu726  N738    2.040   .     S
Cu726  O745    1.931   .     S
Cu726  O741    1.945   .     S
Cu726  O739    1.951   .     S
Cu726  Cu727   2.716   .     S
Cu726  O743    1.954   .     S
Cu727  O742    1.931   .     S
Cu727  N737    2.040   .     S
Cu727  O740    1.954   .     S
Cu727  O746    1.945   .     S
Cu727  O744    1.951   .     S
H729   C436    1.087   1_565 S
H730   N831    1.029   1_455 S
H732   C815    1.084   1_455 S
H735   C771    1.083   .     S
N737   H777    1.029   .     S
N737   N785    1.284   .     S
N738   C747    1.449   .     S
N738   N831    1.284   1_455 S
C747   O748    1.219   .     D
C747   O843    1.382   1_455 S
O749   H750    1.015   .     S
O749   C794    1.382   .     S
C753   C763    1.434   .     S
C753   O786    1.296   .     A
C753   O787    1.301   .     A
C754   C755    1.419   .     A
C754   C333    1.424   1_556 S
C754   C349    1.418   1_556 S
C755   C762    1.421   .     A
C755   C759    1.413   .     A
C756   C760    1.401   .     A
C757   C758    1.391   .     A
C757   C333    1.420   1_556 S
C757   C345    1.404   1_556 S
C758   C759    1.387   .     A
C758   H778    1.084   .     S
C759   H783    1.080   .     S
C760   H780    1.077   .     S
C760   C769    1.397   .     A
C761   C769    1.399   .     A
C761   C768    1.393   .     A
C761   H775    1.083   .     S
C762   C770    1.403   .     A
C762   C764    1.474   .     S
C763   C483    1.337   1_565 S
C763   H517    1.087   1_565 S
C764   O788    1.310   .     A
C764   O789    1.306   .     A
C765   C766    1.434   .     S
C766   O790    1.300   .     A
C766   O791    1.297   .     A
C767   O793    1.308   .     A
C767   O792    1.303   .     A
C767   C769    1.462   .     S
C768   H826    1.084   .     S
C770   H781    1.083   .     S
C770   C771    1.387   .     A
C771   C349    1.390   1_556 S
C772   H798    1.077   .     S
Cu773  N785    2.040   .     S
Cu773  O792    1.931   .     S
Cu773  O788    1.945   .     S
Cu773  O786    1.951   .     S
Cu773  Cu774   2.716   .     S
Cu773  O790    1.954   .     S
Cu774  O789    1.931   .     S
Cu774  N784    2.040   .     S
Cu774  O787    1.954   .     S
Cu774  O793    1.945   .     S
Cu774  O791    1.951   .     S
H776   C483    1.087   1_565 S
H782   C818    1.083   .     S
N784   H824    1.029   .     S
N784   N832    1.284   .     S
N785   C794    1.449   .     S
C794   O795    1.219   .     D
O796   H797    1.015   .     S
O796   C841    1.382   .     S
C800   C810    1.434   .     S
C800   O833    1.296   .     A
C800   O834    1.301   .     A
C801   C802    1.419   .     A
C801   C380    1.424   1_556 S
C801   C396    1.418   1_556 S
C802   C809    1.421   .     A
C802   C806    1.413   .     A
C803   C807    1.401   .     A
C804   C805    1.391   .     A
C804   C380    1.420   1_556 S
C804   C392    1.404   1_556 S
C805   C806    1.387   .     A
C805   H825    1.084   .     S
C806   H830    1.080   .     S
C807   H827    1.077   .     S
C807   C816    1.397   .     A
C808   C816    1.399   .     A
C808   C815    1.393   .     A
C808   H822    1.083   .     S
C809   C817    1.403   .     A
C809   C811    1.474   .     S
C810   C530    1.337   1_565 S
C810   H564    1.087   1_565 S
C811   O835    1.310   .     A
C811   O836    1.306   .     A
C812   C813    1.434   .     S
C813   O837    1.300   .     A
C813   O838    1.297   .     A
C814   O840    1.308   .     A
C814   O839    1.303   .     A
C814   C816    1.462   .     S
C815   H732    1.084   1_655 S
C817   H828    1.083   .     S
C817   C818    1.387   .     A
C818   C396    1.390   1_556 S
C819   H845    1.077   .     S
Cu820  N832    2.040   .     S
Cu820  O839    1.931   .     S
Cu820  O835    1.945   .     S
Cu820  O833    1.951   .     S
Cu820  Cu821   2.716   .     S
Cu820  O837    1.954   .     S
Cu821  O836    1.931   .     S
Cu821  N831    2.040   .     S
Cu821  O834    1.954   .     S
Cu821  O840    1.945   .     S
Cu821  O838    1.951   .     S
H823   C530    1.087   1_565 S
H829   C724    1.083   1_655 S
N831   H730    1.029   1_655 S
N831   N738    1.284   1_655 S
N832   C841    1.449   .     S
C841   O842    1.219   .     D
O843   H844    1.015   .     S
O843   C747    1.382   1_655 S
