data_str_m3_o10_o16_pcu_sym.89
_audit_creation_date              2020-01-03
_audit_creation_method            'Materials Studio'
_symmetry_space_group_name_H-M    'P1'
_symmetry_Int_Tables_number       1
_symmetry_cell_setting            triclinic
loop_
_symmetry_equiv_pos_as_xyz
  x,y,z
_cell_length_a                    23.5707
_cell_length_b                    25.6780
_cell_length_c                    24.2897
_cell_angle_alpha                 92.8943
_cell_angle_beta                  101.1430
_cell_angle_gamma                 93.7277
loop_
_atom_site_label
_atom_site_type_symbol
_atom_site_fract_x
_atom_site_fract_y
_atom_site_fract_z
_atom_site_U_iso_or_equiv
_atom_site_adp_type
_atom_site_occupancy
C1     C     0.01373   0.26459   0.24617   0.00000  Uiso   1.00
C2     C     0.05585   0.17504   0.41564   0.00000  Uiso   1.00
C3     C     0.02027   0.31919   0.24537   0.00000  Uiso   1.00
C4     C     0.03549   0.16832   0.35512   0.00000  Uiso   1.00
C5     C     0.30674   0.01401   0.23616   0.00000  Uiso   1.00
C6     C     0.31764   0.06847   0.24787   0.00000  Uiso   1.00
C7     C     0.29775   0.16372   0.14494   0.00000  Uiso   1.00
C8     C     0.27960   0.11458   0.49530   0.00000  Uiso   1.00
C9     C     0.27902   0.15961   0.08455   0.00000  Uiso   1.00
C10    C     0.03096   0.21217   0.44574   0.00000  Uiso   1.00
C11    C     0.06468   0.24001   0.49237   0.00000  Uiso   1.00
C12    C     0.14464   0.18544   0.48623   0.00000  Uiso   1.00
C13    C     0.12282   0.23042   0.00955   0.00000  Uiso   1.00
C14    C     0.24552   0.32649   0.20840   0.00000  Uiso   1.00
C15    C     0.11012   0.15752   0.43866   0.00000  Uiso   1.00
C16    C     0.19963   0.16764   0.00719   0.00000  Uiso   1.00
C17    C     0.22381   0.13012   0.47530   0.00000  Uiso   1.00
C18    C     0.18961   0.10443   0.42744   0.00000  Uiso   1.00
C19    C     0.13210   0.11513   0.41202   0.00000  Uiso   1.00
C20    C     0.22682   0.17974   0.06257   0.00000  Uiso   1.00
C21    C     0.30771   0.13000   0.05002   0.00000  Uiso   1.00
H22    H     0.01550   0.11467   0.06678   0.00000  Uiso   1.00
H23    H     0.22116   0.02413   0.18628   0.00000  Uiso   1.00
H24    H     0.24631   0.29452   0.17610   0.00000  Uiso   1.00
H25    H     0.22159   0.31254   0.24053   0.00000  Uiso   1.00
H26    H     0.15649   0.12483   0.20804   0.00000  Uiso   1.00
H27    H     0.20602   0.07348   0.40432   0.00000  Uiso   1.00
H28    H     0.29935   0.08750   0.47041   0.00000  Uiso   1.00
H29    H     0.20418   0.19985   0.09085   0.00000  Uiso   1.00
H30    H     0.32189   0.22503   0.42883   0.00000  Uiso   1.00
H31    H     0.04745   0.27329   0.01081   0.00000  Uiso   1.00
H32    H     0.10523   0.09095   0.37773   0.00000  Uiso   1.00
H33    H     0.06432   0.00340   0.25943   0.00000  Uiso   1.00
I34    I     0.17775   0.23951   0.32318   0.00000  Uiso   1.00
I35    I     0.17505   0.29609   0.05403   0.00000  Uiso   1.00
N36    N     0.14493   0.15223   0.23542   0.00000  Uiso   1.00
N37    N     0.18840   0.18110   0.26457   0.00000  Uiso   1.00
O38    O     0.29769   0.24629   0.25357   0.00000  Uiso   1.00
O39    O     0.05742   0.23704   0.24424   0.00000  Uiso   1.00
O40    O     0.31490   0.17358   0.33380   0.00000  Uiso   1.00
O41    O     0.07463   0.16433   0.32446   0.00000  Uiso   1.00
O42    O     0.27592   0.09629   0.25576   0.00000  Uiso   1.00
O43    O     0.03565   0.08704   0.24642   0.00000  Uiso   1.00
O44    O     0.25870   0.16901   0.17554   0.00000  Uiso   1.00
O45    O     0.01843   0.15976   0.16620   0.00000  Uiso   1.00
Zn46   Zn    0.27119   0.17284   0.25623   0.00000  Uiso   1.00
Zn47   Zn    0.06214   0.16049   0.24376   0.00000  Uiso   1.00
C48    C     0.34707   0.26459   0.24617   0.00000  Uiso   1.00
C49    C     0.38918   0.17504   0.41564   0.00000  Uiso   1.00
C50    C     0.35360   0.31919   0.24537   0.00000  Uiso   1.00
C51    C     0.36882   0.16832   0.35512   0.00000  Uiso   1.00
C52    C     0.64007   0.01401   0.23616   0.00000  Uiso   1.00
C53    C     0.65097   0.06847   0.24787   0.00000  Uiso   1.00
C54    C     0.63108   0.16372   0.14494   0.00000  Uiso   1.00
C55    C     0.61293   0.11458   0.49530   0.00000  Uiso   1.00
C56    C     0.61235   0.15961   0.08455   0.00000  Uiso   1.00
C57    C     0.36429   0.21217   0.44574   0.00000  Uiso   1.00
C58    C     0.39801   0.24001   0.49237   0.00000  Uiso   1.00
C59    C     0.47797   0.18544   0.48623   0.00000  Uiso   1.00
C60    C     0.45615   0.23042   0.00955   0.00000  Uiso   1.00
C61    C     0.57886   0.32649   0.20840   0.00000  Uiso   1.00
C62    C     0.44345   0.15752   0.43866   0.00000  Uiso   1.00
C63    C     0.53296   0.16764   0.00719   0.00000  Uiso   1.00
C64    C     0.55715   0.13012   0.47530   0.00000  Uiso   1.00
C65    C     0.52295   0.10443   0.42744   0.00000  Uiso   1.00
C66    C     0.46543   0.11513   0.41202   0.00000  Uiso   1.00
C67    C     0.56015   0.17974   0.06257   0.00000  Uiso   1.00
C68    C     0.64105   0.13000   0.05002   0.00000  Uiso   1.00
H69    H     0.34883   0.11467   0.06678   0.00000  Uiso   1.00
H70    H     0.55450   0.02413   0.18628   0.00000  Uiso   1.00
H71    H     0.57964   0.29452   0.17610   0.00000  Uiso   1.00
H72    H     0.55492   0.31254   0.24053   0.00000  Uiso   1.00
H73    H     0.48983   0.12483   0.20804   0.00000  Uiso   1.00
H74    H     0.53936   0.07348   0.40432   0.00000  Uiso   1.00
H75    H     0.63269   0.08750   0.47041   0.00000  Uiso   1.00
H76    H     0.53752   0.19985   0.09085   0.00000  Uiso   1.00
H77    H     0.65522   0.22503   0.42883   0.00000  Uiso   1.00
H78    H     0.38078   0.27329   0.01081   0.00000  Uiso   1.00
H79    H     0.43856   0.09095   0.37773   0.00000  Uiso   1.00
H80    H     0.39765   0.00340   0.25943   0.00000  Uiso   1.00
I81    I     0.51109   0.23951   0.32318   0.00000  Uiso   1.00
I82    I     0.50838   0.29609   0.05403   0.00000  Uiso   1.00
N83    N     0.47827   0.15223   0.23542   0.00000  Uiso   1.00
N84    N     0.52173   0.18110   0.26457   0.00000  Uiso   1.00
O85    O     0.63102   0.24629   0.25357   0.00000  Uiso   1.00
O86    O     0.39075   0.23704   0.24424   0.00000  Uiso   1.00
O87    O     0.64823   0.17358   0.33380   0.00000  Uiso   1.00
O88    O     0.40796   0.16433   0.32446   0.00000  Uiso   1.00
O89    O     0.60925   0.09629   0.25576   0.00000  Uiso   1.00
O90    O     0.36898   0.08704   0.24642   0.00000  Uiso   1.00
O91    O     0.59204   0.16901   0.17554   0.00000  Uiso   1.00
O92    O     0.35177   0.15976   0.16620   0.00000  Uiso   1.00
Zn93   Zn    0.60453   0.17284   0.25623   0.00000  Uiso   1.00
Zn94   Zn    0.39547   0.16049   0.24376   0.00000  Uiso   1.00
C95    C     0.68040   0.26459   0.24617   0.00000  Uiso   1.00
C96    C     0.72251   0.17504   0.41564   0.00000  Uiso   1.00
C97    C     0.68693   0.31919   0.24537   0.00000  Uiso   1.00
C98    C     0.70216   0.16832   0.35512   0.00000  Uiso   1.00
C99    C     0.97341   0.01401   0.23616   0.00000  Uiso   1.00
C100   C     0.98430   0.06847   0.24787   0.00000  Uiso   1.00
C101   C     0.96442   0.16372   0.14494   0.00000  Uiso   1.00
C102   C     0.94626   0.11458   0.49530   0.00000  Uiso   1.00
C103   C     0.94569   0.15961   0.08455   0.00000  Uiso   1.00
C104   C     0.69762   0.21217   0.44574   0.00000  Uiso   1.00
C105   C     0.73135   0.24001   0.49237   0.00000  Uiso   1.00
C106   C     0.81131   0.18544   0.48623   0.00000  Uiso   1.00
C107   C     0.78949   0.23042   0.00955   0.00000  Uiso   1.00
C108   C     0.91219   0.32649   0.20840   0.00000  Uiso   1.00
C109   C     0.77678   0.15752   0.43866   0.00000  Uiso   1.00
C110   C     0.86629   0.16764   0.00719   0.00000  Uiso   1.00
C111   C     0.89048   0.13012   0.47530   0.00000  Uiso   1.00
C112   C     0.85628   0.10443   0.42744   0.00000  Uiso   1.00
C113   C     0.79876   0.11513   0.41202   0.00000  Uiso   1.00
C114   C     0.89348   0.17974   0.06257   0.00000  Uiso   1.00
C115   C     0.97438   0.13000   0.05002   0.00000  Uiso   1.00
H116   H     0.68216   0.11467   0.06678   0.00000  Uiso   1.00
H117   H     0.88783   0.02413   0.18628   0.00000  Uiso   1.00
H118   H     0.91298   0.29452   0.17610   0.00000  Uiso   1.00
H119   H     0.88826   0.31254   0.24053   0.00000  Uiso   1.00
H120   H     0.82316   0.12483   0.20804   0.00000  Uiso   1.00
H121   H     0.87269   0.07348   0.40432   0.00000  Uiso   1.00
H122   H     0.96602   0.08750   0.47041   0.00000  Uiso   1.00
H123   H     0.87085   0.19985   0.09085   0.00000  Uiso   1.00
H124   H     0.98856   0.22503   0.42883   0.00000  Uiso   1.00
H125   H     0.71412   0.27329   0.01081   0.00000  Uiso   1.00
H126   H     0.77190   0.09095   0.37773   0.00000  Uiso   1.00
H127   H     0.73099   0.00340   0.25943   0.00000  Uiso   1.00
I128   I     0.84442   0.23951   0.32318   0.00000  Uiso   1.00
I129   I     0.84171   0.29609   0.05403   0.00000  Uiso   1.00
N130   N     0.81160   0.15223   0.23542   0.00000  Uiso   1.00
N131   N     0.85507   0.18110   0.26457   0.00000  Uiso   1.00
O132   O     0.96435   0.24629   0.25357   0.00000  Uiso   1.00
O133   O     0.72408   0.23704   0.24424   0.00000  Uiso   1.00
O134   O     0.98157   0.17358   0.33380   0.00000  Uiso   1.00
O135   O     0.74130   0.16433   0.32446   0.00000  Uiso   1.00
O136   O     0.94258   0.09629   0.25576   0.00000  Uiso   1.00
O137   O     0.70231   0.08704   0.24642   0.00000  Uiso   1.00
O138   O     0.92537   0.16901   0.17554   0.00000  Uiso   1.00
O139   O     0.68510   0.15976   0.16620   0.00000  Uiso   1.00
Zn140  Zn    0.93786   0.17284   0.25623   0.00000  Uiso   1.00
Zn141  Zn    0.72881   0.16049   0.24376   0.00000  Uiso   1.00
C142   C     0.01373   0.59793   0.24617   0.00000  Uiso   1.00
C143   C     0.05585   0.50838   0.41564   0.00000  Uiso   1.00
C144   C     0.02027   0.65252   0.24537   0.00000  Uiso   1.00
C145   C     0.03549   0.50165   0.35512   0.00000  Uiso   1.00
C146   C     0.30674   0.34734   0.23616   0.00000  Uiso   1.00
C147   C     0.31764   0.40180   0.24787   0.00000  Uiso   1.00
C148   C     0.29775   0.49705   0.14494   0.00000  Uiso   1.00
C149   C     0.27960   0.44792   0.49530   0.00000  Uiso   1.00
C150   C     0.27902   0.49294   0.08455   0.00000  Uiso   1.00
C151   C     0.03096   0.54551   0.44574   0.00000  Uiso   1.00
C152   C     0.06468   0.57335   0.49237   0.00000  Uiso   1.00
C153   C     0.14464   0.51878   0.48623   0.00000  Uiso   1.00
C154   C     0.12282   0.56375   0.00955   0.00000  Uiso   1.00
C155   C     0.24552   0.65982   0.20840   0.00000  Uiso   1.00
C156   C     0.11012   0.49085   0.43866   0.00000  Uiso   1.00
C157   C     0.19963   0.50097   0.00719   0.00000  Uiso   1.00
C158   C     0.22381   0.46345   0.47530   0.00000  Uiso   1.00
C159   C     0.18961   0.43776   0.42744   0.00000  Uiso   1.00
C160   C     0.13210   0.44846   0.41202   0.00000  Uiso   1.00
C161   C     0.22682   0.51307   0.06257   0.00000  Uiso   1.00
C162   C     0.30771   0.46333   0.05002   0.00000  Uiso   1.00
H163   H     0.01550   0.44800   0.06678   0.00000  Uiso   1.00
H164   H     0.22116   0.35747   0.18628   0.00000  Uiso   1.00
H165   H     0.24631   0.62786   0.17610   0.00000  Uiso   1.00
H166   H     0.22159   0.64588   0.24053   0.00000  Uiso   1.00
H167   H     0.15649   0.45817   0.20804   0.00000  Uiso   1.00
H168   H     0.20602   0.40682   0.40432   0.00000  Uiso   1.00
H169   H     0.29935   0.42083   0.47041   0.00000  Uiso   1.00
H170   H     0.20418   0.53318   0.09085   0.00000  Uiso   1.00
H171   H     0.32189   0.55836   0.42883   0.00000  Uiso   1.00
H172   H     0.04745   0.60662   0.01081   0.00000  Uiso   1.00
H173   H     0.10523   0.42429   0.37773   0.00000  Uiso   1.00
H174   H     0.06432   0.33674   0.25943   0.00000  Uiso   1.00
I175   I     0.17775   0.57285   0.32318   0.00000  Uiso   1.00
I176   I     0.17505   0.62942   0.05403   0.00000  Uiso   1.00
N177   N     0.14493   0.48556   0.23542   0.00000  Uiso   1.00
N178   N     0.18840   0.51444   0.26457   0.00000  Uiso   1.00
O179   O     0.29769   0.57963   0.25357   0.00000  Uiso   1.00
O180   O     0.05742   0.57038   0.24424   0.00000  Uiso   1.00
O181   O     0.31490   0.50691   0.33380   0.00000  Uiso   1.00
O182   O     0.07463   0.49766   0.32446   0.00000  Uiso   1.00
O183   O     0.27592   0.42962   0.25576   0.00000  Uiso   1.00
O184   O     0.03565   0.42037   0.24642   0.00000  Uiso   1.00
O185   O     0.25870   0.50234   0.17554   0.00000  Uiso   1.00
O186   O     0.01843   0.49309   0.16620   0.00000  Uiso   1.00
Zn187  Zn    0.27119   0.50618   0.25623   0.00000  Uiso   1.00
Zn188  Zn    0.06214   0.49382   0.24376   0.00000  Uiso   1.00
C189   C     0.34707   0.59793   0.24617   0.00000  Uiso   1.00
C190   C     0.38918   0.50838   0.41564   0.00000  Uiso   1.00
C191   C     0.35360   0.65252   0.24537   0.00000  Uiso   1.00
C192   C     0.36882   0.50165   0.35512   0.00000  Uiso   1.00
C193   C     0.64007   0.34734   0.23616   0.00000  Uiso   1.00
C194   C     0.65097   0.40180   0.24787   0.00000  Uiso   1.00
C195   C     0.63108   0.49705   0.14494   0.00000  Uiso   1.00
C196   C     0.61293   0.44792   0.49530   0.00000  Uiso   1.00
C197   C     0.61235   0.49294   0.08455   0.00000  Uiso   1.00
C198   C     0.36429   0.54551   0.44574   0.00000  Uiso   1.00
C199   C     0.39801   0.57335   0.49237   0.00000  Uiso   1.00
C200   C     0.47797   0.51878   0.48623   0.00000  Uiso   1.00
C201   C     0.45615   0.56375   0.00955   0.00000  Uiso   1.00
C202   C     0.57886   0.65982   0.20840   0.00000  Uiso   1.00
C203   C     0.44345   0.49085   0.43866   0.00000  Uiso   1.00
C204   C     0.53296   0.50097   0.00719   0.00000  Uiso   1.00
C205   C     0.55715   0.46345   0.47530   0.00000  Uiso   1.00
C206   C     0.52295   0.43776   0.42744   0.00000  Uiso   1.00
C207   C     0.46543   0.44846   0.41202   0.00000  Uiso   1.00
C208   C     0.56015   0.51307   0.06257   0.00000  Uiso   1.00
C209   C     0.64105   0.46333   0.05002   0.00000  Uiso   1.00
H210   H     0.34883   0.44800   0.06678   0.00000  Uiso   1.00
H211   H     0.55450   0.35747   0.18628   0.00000  Uiso   1.00
H212   H     0.57964   0.62786   0.17610   0.00000  Uiso   1.00
H213   H     0.55492   0.64588   0.24053   0.00000  Uiso   1.00
H214   H     0.48983   0.45817   0.20804   0.00000  Uiso   1.00
H215   H     0.53936   0.40682   0.40432   0.00000  Uiso   1.00
H216   H     0.63269   0.42083   0.47041   0.00000  Uiso   1.00
H217   H     0.53752   0.53318   0.09085   0.00000  Uiso   1.00
H218   H     0.65522   0.55836   0.42883   0.00000  Uiso   1.00
H219   H     0.38078   0.60662   0.01081   0.00000  Uiso   1.00
H220   H     0.43856   0.42429   0.37773   0.00000  Uiso   1.00
H221   H     0.39765   0.33674   0.25943   0.00000  Uiso   1.00
I222   I     0.51109   0.57285   0.32318   0.00000  Uiso   1.00
I223   I     0.50838   0.62942   0.05403   0.00000  Uiso   1.00
N224   N     0.47827   0.48556   0.23542   0.00000  Uiso   1.00
N225   N     0.52173   0.51444   0.26457   0.00000  Uiso   1.00
O226   O     0.63102   0.57963   0.25357   0.00000  Uiso   1.00
O227   O     0.39075   0.57038   0.24424   0.00000  Uiso   1.00
O228   O     0.64823   0.50691   0.33380   0.00000  Uiso   1.00
O229   O     0.40796   0.49766   0.32446   0.00000  Uiso   1.00
O230   O     0.60925   0.42962   0.25576   0.00000  Uiso   1.00
O231   O     0.36898   0.42037   0.24642   0.00000  Uiso   1.00
O232   O     0.59204   0.50234   0.17554   0.00000  Uiso   1.00
O233   O     0.35177   0.49309   0.16620   0.00000  Uiso   1.00
Zn234  Zn    0.60453   0.50618   0.25623   0.00000  Uiso   1.00
Zn235  Zn    0.39547   0.49382   0.24376   0.00000  Uiso   1.00
C236   C     0.68040   0.59793   0.24617   0.00000  Uiso   1.00
C237   C     0.72251   0.50838   0.41564   0.00000  Uiso   1.00
C238   C     0.68693   0.65252   0.24537   0.00000  Uiso   1.00
C239   C     0.70216   0.50165   0.35512   0.00000  Uiso   1.00
C240   C     0.97341   0.34734   0.23616   0.00000  Uiso   1.00
C241   C     0.98430   0.40180   0.24787   0.00000  Uiso   1.00
C242   C     0.96442   0.49705   0.14494   0.00000  Uiso   1.00
C243   C     0.94626   0.44792   0.49530   0.00000  Uiso   1.00
C244   C     0.94569   0.49294   0.08455   0.00000  Uiso   1.00
C245   C     0.69762   0.54551   0.44574   0.00000  Uiso   1.00
C246   C     0.73135   0.57335   0.49237   0.00000  Uiso   1.00
C247   C     0.81131   0.51878   0.48623   0.00000  Uiso   1.00
C248   C     0.78949   0.56375   0.00955   0.00000  Uiso   1.00
C249   C     0.91219   0.65982   0.20840   0.00000  Uiso   1.00
C250   C     0.77678   0.49085   0.43866   0.00000  Uiso   1.00
C251   C     0.86629   0.50097   0.00719   0.00000  Uiso   1.00
C252   C     0.89048   0.46345   0.47530   0.00000  Uiso   1.00
C253   C     0.85628   0.43776   0.42744   0.00000  Uiso   1.00
C254   C     0.79876   0.44846   0.41202   0.00000  Uiso   1.00
C255   C     0.89348   0.51307   0.06257   0.00000  Uiso   1.00
C256   C     0.97438   0.46333   0.05002   0.00000  Uiso   1.00
H257   H     0.68216   0.44800   0.06678   0.00000  Uiso   1.00
H258   H     0.88783   0.35747   0.18628   0.00000  Uiso   1.00
H259   H     0.91298   0.62786   0.17610   0.00000  Uiso   1.00
H260   H     0.88826   0.64588   0.24053   0.00000  Uiso   1.00
H261   H     0.82316   0.45817   0.20804   0.00000  Uiso   1.00
H262   H     0.87269   0.40682   0.40432   0.00000  Uiso   1.00
H263   H     0.96602   0.42083   0.47041   0.00000  Uiso   1.00
H264   H     0.87085   0.53318   0.09085   0.00000  Uiso   1.00
H265   H     0.98856   0.55836   0.42883   0.00000  Uiso   1.00
H266   H     0.71412   0.60662   0.01081   0.00000  Uiso   1.00
H267   H     0.77190   0.42429   0.37773   0.00000  Uiso   1.00
H268   H     0.73099   0.33674   0.25943   0.00000  Uiso   1.00
I269   I     0.84442   0.57285   0.32318   0.00000  Uiso   1.00
I270   I     0.84171   0.62942   0.05403   0.00000  Uiso   1.00
N271   N     0.81160   0.48556   0.23542   0.00000  Uiso   1.00
N272   N     0.85507   0.51444   0.26457   0.00000  Uiso   1.00
O273   O     0.96435   0.57963   0.25357   0.00000  Uiso   1.00
O274   O     0.72408   0.57038   0.24424   0.00000  Uiso   1.00
O275   O     0.98157   0.50691   0.33380   0.00000  Uiso   1.00
O276   O     0.74130   0.49766   0.32446   0.00000  Uiso   1.00
O277   O     0.94258   0.42962   0.25576   0.00000  Uiso   1.00
O278   O     0.70231   0.42037   0.24642   0.00000  Uiso   1.00
O279   O     0.92537   0.50234   0.17554   0.00000  Uiso   1.00
O280   O     0.68510   0.49309   0.16620   0.00000  Uiso   1.00
Zn281  Zn    0.93786   0.50618   0.25623   0.00000  Uiso   1.00
Zn282  Zn    0.72881   0.49382   0.24376   0.00000  Uiso   1.00
C283   C     0.01373   0.93126   0.24617   0.00000  Uiso   1.00
C284   C     0.05585   0.84171   0.41564   0.00000  Uiso   1.00
C285   C     0.02027   0.98585   0.24537   0.00000  Uiso   1.00
C286   C     0.03549   0.83498   0.35512   0.00000  Uiso   1.00
C287   C     0.30674   0.68067   0.23616   0.00000  Uiso   1.00
C288   C     0.31764   0.73513   0.24787   0.00000  Uiso   1.00
C289   C     0.29775   0.83038   0.14494   0.00000  Uiso   1.00
C290   C     0.27960   0.78125   0.49530   0.00000  Uiso   1.00
C291   C     0.27902   0.82627   0.08455   0.00000  Uiso   1.00
C292   C     0.03096   0.87884   0.44574   0.00000  Uiso   1.00
C293   C     0.06468   0.90668   0.49237   0.00000  Uiso   1.00
C294   C     0.14464   0.85211   0.48623   0.00000  Uiso   1.00
C295   C     0.12282   0.89708   0.00955   0.00000  Uiso   1.00
C296   C     0.24552   0.99315   0.20840   0.00000  Uiso   1.00
C297   C     0.11012   0.82419   0.43866   0.00000  Uiso   1.00
C298   C     0.19963   0.83431   0.00719   0.00000  Uiso   1.00
C299   C     0.22381   0.79679   0.47530   0.00000  Uiso   1.00
C300   C     0.18961   0.77109   0.42744   0.00000  Uiso   1.00
C301   C     0.13210   0.78180   0.41202   0.00000  Uiso   1.00
C302   C     0.22682   0.84641   0.06257   0.00000  Uiso   1.00
C303   C     0.30771   0.79666   0.05002   0.00000  Uiso   1.00
H304   H     0.01550   0.78133   0.06678   0.00000  Uiso   1.00
H305   H     0.22116   0.69080   0.18628   0.00000  Uiso   1.00
H306   H     0.24631   0.96119   0.17610   0.00000  Uiso   1.00
H307   H     0.22159   0.97921   0.24053   0.00000  Uiso   1.00
H308   H     0.15649   0.79150   0.20804   0.00000  Uiso   1.00
H309   H     0.20602   0.74015   0.40432   0.00000  Uiso   1.00
H310   H     0.29935   0.75416   0.47041   0.00000  Uiso   1.00
H311   H     0.20418   0.86652   0.09085   0.00000  Uiso   1.00
H312   H     0.32189   0.89169   0.42883   0.00000  Uiso   1.00
H313   H     0.04745   0.93996   0.01081   0.00000  Uiso   1.00
H314   H     0.10523   0.75762   0.37773   0.00000  Uiso   1.00
H315   H     0.06432   0.67007   0.25943   0.00000  Uiso   1.00
I316   I     0.17775   0.90618   0.32318   0.00000  Uiso   1.00
I317   I     0.17505   0.96275   0.05403   0.00000  Uiso   1.00
N318   N     0.14493   0.81890   0.23542   0.00000  Uiso   1.00
N319   N     0.18840   0.84777   0.26457   0.00000  Uiso   1.00
O320   O     0.29769   0.91296   0.25357   0.00000  Uiso   1.00
O321   O     0.05742   0.90371   0.24424   0.00000  Uiso   1.00
O322   O     0.31490   0.84024   0.33380   0.00000  Uiso   1.00
O323   O     0.07463   0.83099   0.32446   0.00000  Uiso   1.00
O324   O     0.27592   0.76296   0.25576   0.00000  Uiso   1.00
O325   O     0.03565   0.75371   0.24642   0.00000  Uiso   1.00
O326   O     0.25870   0.83567   0.17554   0.00000  Uiso   1.00
O327   O     0.01843   0.82642   0.16620   0.00000  Uiso   1.00
Zn328  Zn    0.27119   0.83951   0.25623   0.00000  Uiso   1.00
Zn329  Zn    0.06214   0.82716   0.24376   0.00000  Uiso   1.00
C330   C     0.34707   0.93126   0.24617   0.00000  Uiso   1.00
C331   C     0.38918   0.84171   0.41564   0.00000  Uiso   1.00
C332   C     0.35360   0.98585   0.24537   0.00000  Uiso   1.00
C333   C     0.36882   0.83498   0.35512   0.00000  Uiso   1.00
C334   C     0.64007   0.68067   0.23616   0.00000  Uiso   1.00
C335   C     0.65097   0.73513   0.24787   0.00000  Uiso   1.00
C336   C     0.63108   0.83038   0.14494   0.00000  Uiso   1.00
C337   C     0.61293   0.78125   0.49530   0.00000  Uiso   1.00
C338   C     0.61235   0.82627   0.08455   0.00000  Uiso   1.00
C339   C     0.36429   0.87884   0.44574   0.00000  Uiso   1.00
C340   C     0.39801   0.90668   0.49237   0.00000  Uiso   1.00
C341   C     0.47797   0.85211   0.48623   0.00000  Uiso   1.00
C342   C     0.45615   0.89708   0.00955   0.00000  Uiso   1.00
C343   C     0.57886   0.99315   0.20840   0.00000  Uiso   1.00
C344   C     0.44345   0.82419   0.43866   0.00000  Uiso   1.00
C345   C     0.53296   0.83431   0.00719   0.00000  Uiso   1.00
C346   C     0.55715   0.79679   0.47530   0.00000  Uiso   1.00
C347   C     0.52295   0.77109   0.42744   0.00000  Uiso   1.00
C348   C     0.46543   0.78180   0.41202   0.00000  Uiso   1.00
C349   C     0.56015   0.84641   0.06257   0.00000  Uiso   1.00
C350   C     0.64105   0.79666   0.05002   0.00000  Uiso   1.00
H351   H     0.34883   0.78133   0.06678   0.00000  Uiso   1.00
H352   H     0.55450   0.69080   0.18628   0.00000  Uiso   1.00
H353   H     0.57964   0.96119   0.17610   0.00000  Uiso   1.00
H354   H     0.55492   0.97921   0.24053   0.00000  Uiso   1.00
H355   H     0.48983   0.79150   0.20804   0.00000  Uiso   1.00
H356   H     0.53936   0.74015   0.40432   0.00000  Uiso   1.00
H357   H     0.63269   0.75416   0.47041   0.00000  Uiso   1.00
H358   H     0.53752   0.86652   0.09085   0.00000  Uiso   1.00
H359   H     0.65522   0.89169   0.42883   0.00000  Uiso   1.00
H360   H     0.38078   0.93996   0.01081   0.00000  Uiso   1.00
H361   H     0.43856   0.75762   0.37773   0.00000  Uiso   1.00
H362   H     0.39765   0.67007   0.25943   0.00000  Uiso   1.00
I363   I     0.51109   0.90618   0.32318   0.00000  Uiso   1.00
I364   I     0.50838   0.96275   0.05403   0.00000  Uiso   1.00
N365   N     0.47827   0.81890   0.23542   0.00000  Uiso   1.00
N366   N     0.52173   0.84777   0.26457   0.00000  Uiso   1.00
O367   O     0.63102   0.91296   0.25357   0.00000  Uiso   1.00
O368   O     0.39075   0.90371   0.24424   0.00000  Uiso   1.00
O369   O     0.64823   0.84024   0.33380   0.00000  Uiso   1.00
O370   O     0.40796   0.83099   0.32446   0.00000  Uiso   1.00
O371   O     0.60925   0.76296   0.25576   0.00000  Uiso   1.00
O372   O     0.36898   0.75371   0.24642   0.00000  Uiso   1.00
O373   O     0.59204   0.83567   0.17554   0.00000  Uiso   1.00
O374   O     0.35177   0.82642   0.16620   0.00000  Uiso   1.00
Zn375  Zn    0.60453   0.83951   0.25623   0.00000  Uiso   1.00
Zn376  Zn    0.39547   0.82716   0.24376   0.00000  Uiso   1.00
C377   C     0.68040   0.93126   0.24617   0.00000  Uiso   1.00
C378   C     0.72251   0.84171   0.41564   0.00000  Uiso   1.00
C379   C     0.68693   0.98585   0.24537   0.00000  Uiso   1.00
C380   C     0.70216   0.83498   0.35512   0.00000  Uiso   1.00
C381   C     0.97341   0.68067   0.23616   0.00000  Uiso   1.00
C382   C     0.98430   0.73513   0.24787   0.00000  Uiso   1.00
C383   C     0.96442   0.83038   0.14494   0.00000  Uiso   1.00
C384   C     0.94626   0.78125   0.49530   0.00000  Uiso   1.00
C385   C     0.94569   0.82627   0.08455   0.00000  Uiso   1.00
C386   C     0.69762   0.87884   0.44574   0.00000  Uiso   1.00
C387   C     0.73135   0.90668   0.49237   0.00000  Uiso   1.00
C388   C     0.81131   0.85211   0.48623   0.00000  Uiso   1.00
C389   C     0.78949   0.89708   0.00955   0.00000  Uiso   1.00
C390   C     0.91219   0.99315   0.20840   0.00000  Uiso   1.00
C391   C     0.77678   0.82419   0.43866   0.00000  Uiso   1.00
C392   C     0.86629   0.83431   0.00719   0.00000  Uiso   1.00
C393   C     0.89048   0.79679   0.47530   0.00000  Uiso   1.00
C394   C     0.85628   0.77109   0.42744   0.00000  Uiso   1.00
C395   C     0.79876   0.78180   0.41202   0.00000  Uiso   1.00
C396   C     0.89348   0.84641   0.06257   0.00000  Uiso   1.00
C397   C     0.97438   0.79666   0.05002   0.00000  Uiso   1.00
H398   H     0.68216   0.78133   0.06678   0.00000  Uiso   1.00
H399   H     0.88783   0.69080   0.18628   0.00000  Uiso   1.00
H400   H     0.91298   0.96119   0.17610   0.00000  Uiso   1.00
H401   H     0.88826   0.97921   0.24053   0.00000  Uiso   1.00
H402   H     0.82316   0.79150   0.20804   0.00000  Uiso   1.00
H403   H     0.87269   0.74015   0.40432   0.00000  Uiso   1.00
H404   H     0.96602   0.75416   0.47041   0.00000  Uiso   1.00
H405   H     0.87085   0.86652   0.09085   0.00000  Uiso   1.00
H406   H     0.98856   0.89169   0.42883   0.00000  Uiso   1.00
H407   H     0.71412   0.93996   0.01081   0.00000  Uiso   1.00
H408   H     0.77190   0.75762   0.37773   0.00000  Uiso   1.00
H409   H     0.73099   0.67007   0.25943   0.00000  Uiso   1.00
I410   I     0.84442   0.90618   0.32318   0.00000  Uiso   1.00
I411   I     0.84171   0.96275   0.05403   0.00000  Uiso   1.00
N412   N     0.81160   0.81890   0.23542   0.00000  Uiso   1.00
N413   N     0.85507   0.84777   0.26457   0.00000  Uiso   1.00
O414   O     0.96435   0.91296   0.25357   0.00000  Uiso   1.00
O415   O     0.72408   0.90371   0.24424   0.00000  Uiso   1.00
O416   O     0.98157   0.84024   0.33380   0.00000  Uiso   1.00
O417   O     0.74130   0.83099   0.32446   0.00000  Uiso   1.00
O418   O     0.94258   0.76296   0.25576   0.00000  Uiso   1.00
O419   O     0.70231   0.75371   0.24642   0.00000  Uiso   1.00
O420   O     0.92537   0.83567   0.17554   0.00000  Uiso   1.00
O421   O     0.68510   0.82642   0.16620   0.00000  Uiso   1.00
Zn422  Zn    0.93786   0.83951   0.25623   0.00000  Uiso   1.00
Zn423  Zn    0.72881   0.82716   0.24376   0.00000  Uiso   1.00
C424   C     0.01373   0.26459   0.74617   0.00000  Uiso   1.00
C425   C     0.05585   0.17504   0.91564   0.00000  Uiso   1.00
C426   C     0.02027   0.31919   0.74537   0.00000  Uiso   1.00
C427   C     0.03549   0.16832   0.85512   0.00000  Uiso   1.00
C428   C     0.30674   0.01401   0.73616   0.00000  Uiso   1.00
C429   C     0.31764   0.06847   0.74787   0.00000  Uiso   1.00
C430   C     0.29775   0.16372   0.64494   0.00000  Uiso   1.00
C431   C     0.27960   0.11458   0.99530   0.00000  Uiso   1.00
C432   C     0.27902   0.15961   0.58455   0.00000  Uiso   1.00
C433   C     0.03096   0.21217   0.94574   0.00000  Uiso   1.00
C434   C     0.06468   0.24001   0.99237   0.00000  Uiso   1.00
C435   C     0.14464   0.18544   0.98623   0.00000  Uiso   1.00
C436   C     0.12282   0.23042   0.50955   0.00000  Uiso   1.00
C437   C     0.24552   0.32649   0.70840   0.00000  Uiso   1.00
C438   C     0.11012   0.15752   0.93866   0.00000  Uiso   1.00
C439   C     0.19963   0.16764   0.50719   0.00000  Uiso   1.00
C440   C     0.22381   0.13012   0.97530   0.00000  Uiso   1.00
C441   C     0.18961   0.10443   0.92744   0.00000  Uiso   1.00
C442   C     0.13210   0.11513   0.91202   0.00000  Uiso   1.00
C443   C     0.22682   0.17974   0.56257   0.00000  Uiso   1.00
C444   C     0.30771   0.13000   0.55002   0.00000  Uiso   1.00
H445   H     0.01550   0.11467   0.56678   0.00000  Uiso   1.00
H446   H     0.22116   0.02413   0.68628   0.00000  Uiso   1.00
H447   H     0.24631   0.29452   0.67610   0.00000  Uiso   1.00
H448   H     0.22159   0.31254   0.74053   0.00000  Uiso   1.00
H449   H     0.15649   0.12483   0.70804   0.00000  Uiso   1.00
H450   H     0.20602   0.07348   0.90432   0.00000  Uiso   1.00
H451   H     0.29935   0.08750   0.97041   0.00000  Uiso   1.00
H452   H     0.20418   0.19985   0.59085   0.00000  Uiso   1.00
H453   H     0.32189   0.22503   0.92883   0.00000  Uiso   1.00
H454   H     0.04745   0.27329   0.51081   0.00000  Uiso   1.00
H455   H     0.10523   0.09095   0.87773   0.00000  Uiso   1.00
H456   H     0.06432   0.00340   0.75943   0.00000  Uiso   1.00
I457   I     0.17775   0.23951   0.82318   0.00000  Uiso   1.00
I458   I     0.17505   0.29609   0.55403   0.00000  Uiso   1.00
N459   N     0.14493   0.15223   0.73542   0.00000  Uiso   1.00
N460   N     0.18840   0.18110   0.76457   0.00000  Uiso   1.00
O461   O     0.29769   0.24629   0.75357   0.00000  Uiso   1.00
O462   O     0.05742   0.23704   0.74424   0.00000  Uiso   1.00
O463   O     0.31490   0.17358   0.83380   0.00000  Uiso   1.00
O464   O     0.07463   0.16433   0.82446   0.00000  Uiso   1.00
O465   O     0.27592   0.09629   0.75576   0.00000  Uiso   1.00
O466   O     0.03565   0.08704   0.74642   0.00000  Uiso   1.00
O467   O     0.25870   0.16901   0.67554   0.00000  Uiso   1.00
O468   O     0.01843   0.15976   0.66620   0.00000  Uiso   1.00
Zn469  Zn    0.27119   0.17284   0.75623   0.00000  Uiso   1.00
Zn470  Zn    0.06214   0.16049   0.74376   0.00000  Uiso   1.00
C471   C     0.34707   0.26459   0.74617   0.00000  Uiso   1.00
C472   C     0.38918   0.17504   0.91564   0.00000  Uiso   1.00
C473   C     0.35360   0.31919   0.74537   0.00000  Uiso   1.00
C474   C     0.36882   0.16832   0.85512   0.00000  Uiso   1.00
C475   C     0.64007   0.01401   0.73616   0.00000  Uiso   1.00
C476   C     0.65097   0.06847   0.74787   0.00000  Uiso   1.00
C477   C     0.63108   0.16372   0.64494   0.00000  Uiso   1.00
C478   C     0.61293   0.11458   0.99530   0.00000  Uiso   1.00
C479   C     0.61235   0.15961   0.58455   0.00000  Uiso   1.00
C480   C     0.36429   0.21217   0.94574   0.00000  Uiso   1.00
C481   C     0.39801   0.24001   0.99237   0.00000  Uiso   1.00
C482   C     0.47797   0.18544   0.98623   0.00000  Uiso   1.00
C483   C     0.45615   0.23042   0.50955   0.00000  Uiso   1.00
C484   C     0.57886   0.32649   0.70840   0.00000  Uiso   1.00
C485   C     0.44345   0.15752   0.93866   0.00000  Uiso   1.00
C486   C     0.53296   0.16764   0.50719   0.00000  Uiso   1.00
C487   C     0.55715   0.13012   0.97530   0.00000  Uiso   1.00
C488   C     0.52295   0.10443   0.92744   0.00000  Uiso   1.00
C489   C     0.46543   0.11513   0.91202   0.00000  Uiso   1.00
C490   C     0.56015   0.17974   0.56257   0.00000  Uiso   1.00
C491   C     0.64105   0.13000   0.55002   0.00000  Uiso   1.00
H492   H     0.34883   0.11467   0.56678   0.00000  Uiso   1.00
H493   H     0.55450   0.02413   0.68628   0.00000  Uiso   1.00
H494   H     0.57964   0.29452   0.67610   0.00000  Uiso   1.00
H495   H     0.55492   0.31254   0.74053   0.00000  Uiso   1.00
H496   H     0.48983   0.12483   0.70804   0.00000  Uiso   1.00
H497   H     0.53936   0.07348   0.90432   0.00000  Uiso   1.00
H498   H     0.63269   0.08750   0.97041   0.00000  Uiso   1.00
H499   H     0.53752   0.19985   0.59085   0.00000  Uiso   1.00
H500   H     0.65522   0.22503   0.92883   0.00000  Uiso   1.00
H501   H     0.38078   0.27329   0.51081   0.00000  Uiso   1.00
H502   H     0.43856   0.09095   0.87773   0.00000  Uiso   1.00
H503   H     0.39765   0.00340   0.75943   0.00000  Uiso   1.00
I504   I     0.51109   0.23951   0.82318   0.00000  Uiso   1.00
I505   I     0.50838   0.29609   0.55403   0.00000  Uiso   1.00
N506   N     0.47827   0.15223   0.73542   0.00000  Uiso   1.00
N507   N     0.52173   0.18110   0.76457   0.00000  Uiso   1.00
O508   O     0.63102   0.24629   0.75357   0.00000  Uiso   1.00
O509   O     0.39075   0.23704   0.74424   0.00000  Uiso   1.00
O510   O     0.64823   0.17358   0.83380   0.00000  Uiso   1.00
O511   O     0.40796   0.16433   0.82446   0.00000  Uiso   1.00
O512   O     0.60925   0.09629   0.75576   0.00000  Uiso   1.00
O513   O     0.36898   0.08704   0.74642   0.00000  Uiso   1.00
O514   O     0.59204   0.16901   0.67554   0.00000  Uiso   1.00
O515   O     0.35177   0.15976   0.66620   0.00000  Uiso   1.00
Zn516  Zn    0.60453   0.17284   0.75623   0.00000  Uiso   1.00
Zn517  Zn    0.39547   0.16049   0.74376   0.00000  Uiso   1.00
C518   C     0.68040   0.26459   0.74617   0.00000  Uiso   1.00
C519   C     0.72251   0.17504   0.91564   0.00000  Uiso   1.00
C520   C     0.68693   0.31919   0.74537   0.00000  Uiso   1.00
C521   C     0.70216   0.16832   0.85512   0.00000  Uiso   1.00
C522   C     0.97341   0.01401   0.73616   0.00000  Uiso   1.00
C523   C     0.98430   0.06847   0.74787   0.00000  Uiso   1.00
C524   C     0.96442   0.16372   0.64494   0.00000  Uiso   1.00
C525   C     0.94626   0.11458   0.99530   0.00000  Uiso   1.00
C526   C     0.94569   0.15961   0.58455   0.00000  Uiso   1.00
C527   C     0.69762   0.21217   0.94574   0.00000  Uiso   1.00
C528   C     0.73135   0.24001   0.99237   0.00000  Uiso   1.00
C529   C     0.81131   0.18544   0.98623   0.00000  Uiso   1.00
C530   C     0.78949   0.23042   0.50955   0.00000  Uiso   1.00
C531   C     0.91219   0.32649   0.70840   0.00000  Uiso   1.00
C532   C     0.77678   0.15752   0.93866   0.00000  Uiso   1.00
C533   C     0.86629   0.16764   0.50719   0.00000  Uiso   1.00
C534   C     0.89048   0.13012   0.97530   0.00000  Uiso   1.00
C535   C     0.85628   0.10443   0.92744   0.00000  Uiso   1.00
C536   C     0.79876   0.11513   0.91202   0.00000  Uiso   1.00
C537   C     0.89348   0.17974   0.56257   0.00000  Uiso   1.00
C538   C     0.97438   0.13000   0.55002   0.00000  Uiso   1.00
H539   H     0.68216   0.11467   0.56678   0.00000  Uiso   1.00
H540   H     0.88783   0.02413   0.68628   0.00000  Uiso   1.00
H541   H     0.91298   0.29452   0.67610   0.00000  Uiso   1.00
H542   H     0.88826   0.31254   0.74053   0.00000  Uiso   1.00
H543   H     0.82316   0.12483   0.70804   0.00000  Uiso   1.00
H544   H     0.87269   0.07348   0.90432   0.00000  Uiso   1.00
H545   H     0.96602   0.08750   0.97041   0.00000  Uiso   1.00
H546   H     0.87085   0.19985   0.59085   0.00000  Uiso   1.00
H547   H     0.98856   0.22503   0.92883   0.00000  Uiso   1.00
H548   H     0.71412   0.27329   0.51081   0.00000  Uiso   1.00
H549   H     0.77190   0.09095   0.87773   0.00000  Uiso   1.00
H550   H     0.73099   0.00340   0.75943   0.00000  Uiso   1.00
I551   I     0.84442   0.23951   0.82318   0.00000  Uiso   1.00
I552   I     0.84171   0.29609   0.55403   0.00000  Uiso   1.00
N553   N     0.81160   0.15223   0.73542   0.00000  Uiso   1.00
N554   N     0.85507   0.18110   0.76457   0.00000  Uiso   1.00
O555   O     0.96435   0.24629   0.75357   0.00000  Uiso   1.00
O556   O     0.72408   0.23704   0.74424   0.00000  Uiso   1.00
O557   O     0.98157   0.17358   0.83380   0.00000  Uiso   1.00
O558   O     0.74130   0.16433   0.82446   0.00000  Uiso   1.00
O559   O     0.94258   0.09629   0.75576   0.00000  Uiso   1.00
O560   O     0.70231   0.08704   0.74642   0.00000  Uiso   1.00
O561   O     0.92537   0.16901   0.67554   0.00000  Uiso   1.00
O562   O     0.68510   0.15976   0.66620   0.00000  Uiso   1.00
Zn563  Zn    0.93786   0.17284   0.75623   0.00000  Uiso   1.00
Zn564  Zn    0.72881   0.16049   0.74376   0.00000  Uiso   1.00
C565   C     0.01373   0.59793   0.74617   0.00000  Uiso   1.00
C566   C     0.05585   0.50838   0.91564   0.00000  Uiso   1.00
C567   C     0.02027   0.65252   0.74537   0.00000  Uiso   1.00
C568   C     0.03549   0.50165   0.85512   0.00000  Uiso   1.00
C569   C     0.30674   0.34734   0.73616   0.00000  Uiso   1.00
C570   C     0.31764   0.40180   0.74787   0.00000  Uiso   1.00
C571   C     0.29775   0.49705   0.64494   0.00000  Uiso   1.00
C572   C     0.27960   0.44792   0.99530   0.00000  Uiso   1.00
C573   C     0.27902   0.49294   0.58455   0.00000  Uiso   1.00
C574   C     0.03096   0.54551   0.94574   0.00000  Uiso   1.00
C575   C     0.06468   0.57335   0.99237   0.00000  Uiso   1.00
C576   C     0.14464   0.51878   0.98623   0.00000  Uiso   1.00
C577   C     0.12282   0.56375   0.50955   0.00000  Uiso   1.00
C578   C     0.24552   0.65982   0.70840   0.00000  Uiso   1.00
C579   C     0.11012   0.49085   0.93866   0.00000  Uiso   1.00
C580   C     0.19963   0.50097   0.50719   0.00000  Uiso   1.00
C581   C     0.22381   0.46345   0.97530   0.00000  Uiso   1.00
C582   C     0.18961   0.43776   0.92744   0.00000  Uiso   1.00
C583   C     0.13210   0.44846   0.91202   0.00000  Uiso   1.00
C584   C     0.22682   0.51307   0.56257   0.00000  Uiso   1.00
C585   C     0.30771   0.46333   0.55002   0.00000  Uiso   1.00
H586   H     0.01550   0.44800   0.56678   0.00000  Uiso   1.00
H587   H     0.22116   0.35747   0.68628   0.00000  Uiso   1.00
H588   H     0.24631   0.62786   0.67610   0.00000  Uiso   1.00
H589   H     0.22159   0.64588   0.74053   0.00000  Uiso   1.00
H590   H     0.15649   0.45817   0.70804   0.00000  Uiso   1.00
H591   H     0.20602   0.40682   0.90432   0.00000  Uiso   1.00
H592   H     0.29935   0.42083   0.97041   0.00000  Uiso   1.00
H593   H     0.20418   0.53318   0.59085   0.00000  Uiso   1.00
H594   H     0.32189   0.55836   0.92883   0.00000  Uiso   1.00
H595   H     0.04745   0.60662   0.51081   0.00000  Uiso   1.00
H596   H     0.10523   0.42429   0.87773   0.00000  Uiso   1.00
H597   H     0.06432   0.33674   0.75943   0.00000  Uiso   1.00
I598   I     0.17775   0.57285   0.82318   0.00000  Uiso   1.00
I599   I     0.17505   0.62942   0.55403   0.00000  Uiso   1.00
N600   N     0.14493   0.48556   0.73542   0.00000  Uiso   1.00
N601   N     0.18840   0.51444   0.76457   0.00000  Uiso   1.00
O602   O     0.29769   0.57963   0.75357   0.00000  Uiso   1.00
O603   O     0.05742   0.57038   0.74424   0.00000  Uiso   1.00
O604   O     0.31490   0.50691   0.83380   0.00000  Uiso   1.00
O605   O     0.07463   0.49766   0.82446   0.00000  Uiso   1.00
O606   O     0.27592   0.42962   0.75576   0.00000  Uiso   1.00
O607   O     0.03565   0.42037   0.74642   0.00000  Uiso   1.00
O608   O     0.25870   0.50234   0.67554   0.00000  Uiso   1.00
O609   O     0.01843   0.49309   0.66620   0.00000  Uiso   1.00
Zn610  Zn    0.27119   0.50618   0.75623   0.00000  Uiso   1.00
Zn611  Zn    0.06214   0.49382   0.74376   0.00000  Uiso   1.00
C612   C     0.34707   0.59793   0.74617   0.00000  Uiso   1.00
C613   C     0.38918   0.50838   0.91564   0.00000  Uiso   1.00
C614   C     0.35360   0.65252   0.74537   0.00000  Uiso   1.00
C615   C     0.36882   0.50165   0.85512   0.00000  Uiso   1.00
C616   C     0.64007   0.34734   0.73616   0.00000  Uiso   1.00
C617   C     0.65097   0.40180   0.74787   0.00000  Uiso   1.00
C618   C     0.63108   0.49705   0.64494   0.00000  Uiso   1.00
C619   C     0.61293   0.44792   0.99530   0.00000  Uiso   1.00
C620   C     0.61235   0.49294   0.58455   0.00000  Uiso   1.00
C621   C     0.36429   0.54551   0.94574   0.00000  Uiso   1.00
C622   C     0.39801   0.57335   0.99237   0.00000  Uiso   1.00
C623   C     0.47797   0.51878   0.98623   0.00000  Uiso   1.00
C624   C     0.45615   0.56375   0.50955   0.00000  Uiso   1.00
C625   C     0.57886   0.65982   0.70840   0.00000  Uiso   1.00
C626   C     0.44345   0.49085   0.93866   0.00000  Uiso   1.00
C627   C     0.53296   0.50097   0.50719   0.00000  Uiso   1.00
C628   C     0.55715   0.46345   0.97530   0.00000  Uiso   1.00
C629   C     0.52295   0.43776   0.92744   0.00000  Uiso   1.00
C630   C     0.46543   0.44846   0.91202   0.00000  Uiso   1.00
C631   C     0.56015   0.51307   0.56257   0.00000  Uiso   1.00
C632   C     0.64105   0.46333   0.55002   0.00000  Uiso   1.00
H633   H     0.34883   0.44800   0.56678   0.00000  Uiso   1.00
H634   H     0.55450   0.35747   0.68628   0.00000  Uiso   1.00
H635   H     0.57964   0.62786   0.67610   0.00000  Uiso   1.00
H636   H     0.55492   0.64588   0.74053   0.00000  Uiso   1.00
H637   H     0.48983   0.45817   0.70804   0.00000  Uiso   1.00
H638   H     0.53936   0.40682   0.90432   0.00000  Uiso   1.00
H639   H     0.63269   0.42083   0.97041   0.00000  Uiso   1.00
H640   H     0.53752   0.53318   0.59085   0.00000  Uiso   1.00
H641   H     0.65522   0.55836   0.92883   0.00000  Uiso   1.00
H642   H     0.38078   0.60662   0.51081   0.00000  Uiso   1.00
H643   H     0.43856   0.42429   0.87773   0.00000  Uiso   1.00
H644   H     0.39765   0.33674   0.75943   0.00000  Uiso   1.00
I645   I     0.51109   0.57285   0.82318   0.00000  Uiso   1.00
I646   I     0.50838   0.62942   0.55403   0.00000  Uiso   1.00
N647   N     0.47827   0.48556   0.73542   0.00000  Uiso   1.00
N648   N     0.52173   0.51444   0.76457   0.00000  Uiso   1.00
O649   O     0.63102   0.57963   0.75357   0.00000  Uiso   1.00
O650   O     0.39075   0.57038   0.74424   0.00000  Uiso   1.00
O651   O     0.64823   0.50691   0.83380   0.00000  Uiso   1.00
O652   O     0.40796   0.49766   0.82446   0.00000  Uiso   1.00
O653   O     0.60925   0.42962   0.75576   0.00000  Uiso   1.00
O654   O     0.36898   0.42037   0.74642   0.00000  Uiso   1.00
O655   O     0.59204   0.50234   0.67554   0.00000  Uiso   1.00
O656   O     0.35177   0.49309   0.66620   0.00000  Uiso   1.00
Zn657  Zn    0.60453   0.50618   0.75623   0.00000  Uiso   1.00
Zn658  Zn    0.39547   0.49382   0.74376   0.00000  Uiso   1.00
C659   C     0.68040   0.59793   0.74617   0.00000  Uiso   1.00
C660   C     0.72251   0.50838   0.91564   0.00000  Uiso   1.00
C661   C     0.68693   0.65252   0.74537   0.00000  Uiso   1.00
C662   C     0.70216   0.50165   0.85512   0.00000  Uiso   1.00
C663   C     0.97341   0.34734   0.73616   0.00000  Uiso   1.00
C664   C     0.98430   0.40180   0.74787   0.00000  Uiso   1.00
C665   C     0.96442   0.49705   0.64494   0.00000  Uiso   1.00
C666   C     0.94626   0.44792   0.99530   0.00000  Uiso   1.00
C667   C     0.94569   0.49294   0.58455   0.00000  Uiso   1.00
C668   C     0.69762   0.54551   0.94574   0.00000  Uiso   1.00
C669   C     0.73135   0.57335   0.99237   0.00000  Uiso   1.00
C670   C     0.81131   0.51878   0.98623   0.00000  Uiso   1.00
C671   C     0.78949   0.56375   0.50955   0.00000  Uiso   1.00
C672   C     0.91219   0.65982   0.70840   0.00000  Uiso   1.00
C673   C     0.77678   0.49085   0.93866   0.00000  Uiso   1.00
C674   C     0.86629   0.50097   0.50719   0.00000  Uiso   1.00
C675   C     0.89048   0.46345   0.97530   0.00000  Uiso   1.00
C676   C     0.85628   0.43776   0.92744   0.00000  Uiso   1.00
C677   C     0.79876   0.44846   0.91202   0.00000  Uiso   1.00
C678   C     0.89348   0.51307   0.56257   0.00000  Uiso   1.00
C679   C     0.97438   0.46333   0.55002   0.00000  Uiso   1.00
H680   H     0.68216   0.44800   0.56678   0.00000  Uiso   1.00
H681   H     0.88783   0.35747   0.68628   0.00000  Uiso   1.00
H682   H     0.91298   0.62786   0.67610   0.00000  Uiso   1.00
H683   H     0.88826   0.64588   0.74053   0.00000  Uiso   1.00
H684   H     0.82316   0.45817   0.70804   0.00000  Uiso   1.00
H685   H     0.87269   0.40682   0.90432   0.00000  Uiso   1.00
H686   H     0.96602   0.42083   0.97041   0.00000  Uiso   1.00
H687   H     0.87085   0.53318   0.59085   0.00000  Uiso   1.00
H688   H     0.98856   0.55836   0.92883   0.00000  Uiso   1.00
H689   H     0.71412   0.60662   0.51081   0.00000  Uiso   1.00
H690   H     0.77190   0.42429   0.87773   0.00000  Uiso   1.00
H691   H     0.73099   0.33674   0.75943   0.00000  Uiso   1.00
I692   I     0.84442   0.57285   0.82318   0.00000  Uiso   1.00
I693   I     0.84171   0.62942   0.55403   0.00000  Uiso   1.00
N694   N     0.81160   0.48556   0.73542   0.00000  Uiso   1.00
N695   N     0.85507   0.51444   0.76457   0.00000  Uiso   1.00
O696   O     0.96435   0.57963   0.75357   0.00000  Uiso   1.00
O697   O     0.72408   0.57038   0.74424   0.00000  Uiso   1.00
O698   O     0.98157   0.50691   0.83380   0.00000  Uiso   1.00
O699   O     0.74130   0.49766   0.82446   0.00000  Uiso   1.00
O700   O     0.94258   0.42962   0.75576   0.00000  Uiso   1.00
O701   O     0.70231   0.42037   0.74642   0.00000  Uiso   1.00
O702   O     0.92537   0.50234   0.67554   0.00000  Uiso   1.00
O703   O     0.68510   0.49309   0.66620   0.00000  Uiso   1.00
Zn704  Zn    0.93786   0.50618   0.75623   0.00000  Uiso   1.00
Zn705  Zn    0.72881   0.49382   0.74376   0.00000  Uiso   1.00
C706   C     0.01373   0.93126   0.74617   0.00000  Uiso   1.00
C707   C     0.05585   0.84171   0.91564   0.00000  Uiso   1.00
C708   C     0.02027   0.98585   0.74537   0.00000  Uiso   1.00
C709   C     0.03549   0.83498   0.85512   0.00000  Uiso   1.00
C710   C     0.30674   0.68067   0.73616   0.00000  Uiso   1.00
C711   C     0.31764   0.73513   0.74787   0.00000  Uiso   1.00
C712   C     0.29775   0.83038   0.64494   0.00000  Uiso   1.00
C713   C     0.27960   0.78125   0.99530   0.00000  Uiso   1.00
C714   C     0.27902   0.82627   0.58455   0.00000  Uiso   1.00
C715   C     0.03096   0.87884   0.94574   0.00000  Uiso   1.00
C716   C     0.06468   0.90668   0.99237   0.00000  Uiso   1.00
C717   C     0.14464   0.85211   0.98623   0.00000  Uiso   1.00
C718   C     0.12282   0.89708   0.50955   0.00000  Uiso   1.00
C719   C     0.24552   0.99315   0.70840   0.00000  Uiso   1.00
C720   C     0.11012   0.82419   0.93866   0.00000  Uiso   1.00
C721   C     0.19963   0.83431   0.50719   0.00000  Uiso   1.00
C722   C     0.22381   0.79679   0.97530   0.00000  Uiso   1.00
C723   C     0.18961   0.77109   0.92744   0.00000  Uiso   1.00
C724   C     0.13210   0.78180   0.91202   0.00000  Uiso   1.00
C725   C     0.22682   0.84641   0.56257   0.00000  Uiso   1.00
C726   C     0.30771   0.79666   0.55002   0.00000  Uiso   1.00
H727   H     0.01550   0.78133   0.56678   0.00000  Uiso   1.00
H728   H     0.22116   0.69080   0.68628   0.00000  Uiso   1.00
H729   H     0.24631   0.96119   0.67610   0.00000  Uiso   1.00
H730   H     0.22159   0.97921   0.74053   0.00000  Uiso   1.00
H731   H     0.15649   0.79150   0.70804   0.00000  Uiso   1.00
H732   H     0.20602   0.74015   0.90432   0.00000  Uiso   1.00
H733   H     0.29935   0.75416   0.97041   0.00000  Uiso   1.00
H734   H     0.20418   0.86652   0.59085   0.00000  Uiso   1.00
H735   H     0.32189   0.89169   0.92883   0.00000  Uiso   1.00
H736   H     0.04745   0.93996   0.51081   0.00000  Uiso   1.00
H737   H     0.10523   0.75762   0.87773   0.00000  Uiso   1.00
H738   H     0.06432   0.67007   0.75943   0.00000  Uiso   1.00
I739   I     0.17775   0.90618   0.82318   0.00000  Uiso   1.00
I740   I     0.17505   0.96275   0.55403   0.00000  Uiso   1.00
N741   N     0.14493   0.81890   0.73542   0.00000  Uiso   1.00
N742   N     0.18840   0.84777   0.76457   0.00000  Uiso   1.00
O743   O     0.29769   0.91296   0.75357   0.00000  Uiso   1.00
O744   O     0.05742   0.90371   0.74424   0.00000  Uiso   1.00
O745   O     0.31490   0.84024   0.83380   0.00000  Uiso   1.00
O746   O     0.07463   0.83099   0.82446   0.00000  Uiso   1.00
O747   O     0.27592   0.76296   0.75576   0.00000  Uiso   1.00
O748   O     0.03565   0.75371   0.74642   0.00000  Uiso   1.00
O749   O     0.25870   0.83567   0.67554   0.00000  Uiso   1.00
O750   O     0.01843   0.82642   0.66620   0.00000  Uiso   1.00
Zn751  Zn    0.27119   0.83951   0.75623   0.00000  Uiso   1.00
Zn752  Zn    0.06214   0.82716   0.74376   0.00000  Uiso   1.00
C753   C     0.34707   0.93126   0.74617   0.00000  Uiso   1.00
C754   C     0.38918   0.84171   0.91564   0.00000  Uiso   1.00
C755   C     0.35360   0.98585   0.74537   0.00000  Uiso   1.00
C756   C     0.36882   0.83498   0.85512   0.00000  Uiso   1.00
C757   C     0.64007   0.68067   0.73616   0.00000  Uiso   1.00
C758   C     0.65097   0.73513   0.74787   0.00000  Uiso   1.00
C759   C     0.63108   0.83038   0.64494   0.00000  Uiso   1.00
C760   C     0.61293   0.78125   0.99530   0.00000  Uiso   1.00
C761   C     0.61235   0.82627   0.58455   0.00000  Uiso   1.00
C762   C     0.36429   0.87884   0.94574   0.00000  Uiso   1.00
C763   C     0.39801   0.90668   0.99237   0.00000  Uiso   1.00
C764   C     0.47797   0.85211   0.98623   0.00000  Uiso   1.00
C765   C     0.45615   0.89708   0.50955   0.00000  Uiso   1.00
C766   C     0.57886   0.99315   0.70840   0.00000  Uiso   1.00
C767   C     0.44345   0.82419   0.93866   0.00000  Uiso   1.00
C768   C     0.53296   0.83431   0.50719   0.00000  Uiso   1.00
C769   C     0.55715   0.79679   0.97530   0.00000  Uiso   1.00
C770   C     0.52295   0.77109   0.92744   0.00000  Uiso   1.00
C771   C     0.46543   0.78180   0.91202   0.00000  Uiso   1.00
C772   C     0.56015   0.84641   0.56257   0.00000  Uiso   1.00
C773   C     0.64105   0.79666   0.55002   0.00000  Uiso   1.00
H774   H     0.34883   0.78133   0.56678   0.00000  Uiso   1.00
H775   H     0.55450   0.69080   0.68628   0.00000  Uiso   1.00
H776   H     0.57964   0.96119   0.67610   0.00000  Uiso   1.00
H777   H     0.55492   0.97921   0.74053   0.00000  Uiso   1.00
H778   H     0.48983   0.79150   0.70804   0.00000  Uiso   1.00
H779   H     0.53936   0.74015   0.90432   0.00000  Uiso   1.00
H780   H     0.63269   0.75416   0.97041   0.00000  Uiso   1.00
H781   H     0.53752   0.86652   0.59085   0.00000  Uiso   1.00
H782   H     0.65522   0.89169   0.92883   0.00000  Uiso   1.00
H783   H     0.38078   0.93996   0.51081   0.00000  Uiso   1.00
H784   H     0.43856   0.75762   0.87773   0.00000  Uiso   1.00
H785   H     0.39765   0.67007   0.75943   0.00000  Uiso   1.00
I786   I     0.51109   0.90618   0.82318   0.00000  Uiso   1.00
I787   I     0.50838   0.96275   0.55403   0.00000  Uiso   1.00
N788   N     0.47827   0.81890   0.73542   0.00000  Uiso   1.00
N789   N     0.52173   0.84777   0.76457   0.00000  Uiso   1.00
O790   O     0.63102   0.91296   0.75357   0.00000  Uiso   1.00
O791   O     0.39075   0.90371   0.74424   0.00000  Uiso   1.00
O792   O     0.64823   0.84024   0.83380   0.00000  Uiso   1.00
O793   O     0.40796   0.83099   0.82446   0.00000  Uiso   1.00
O794   O     0.60925   0.76296   0.75576   0.00000  Uiso   1.00
O795   O     0.36898   0.75371   0.74642   0.00000  Uiso   1.00
O796   O     0.59204   0.83567   0.67554   0.00000  Uiso   1.00
O797   O     0.35177   0.82642   0.66620   0.00000  Uiso   1.00
Zn798  Zn    0.60453   0.83951   0.75623   0.00000  Uiso   1.00
Zn799  Zn    0.39547   0.82716   0.74376   0.00000  Uiso   1.00
C800   C     0.68040   0.93126   0.74617   0.00000  Uiso   1.00
C801   C     0.72251   0.84171   0.91564   0.00000  Uiso   1.00
C802   C     0.68693   0.98585   0.74537   0.00000  Uiso   1.00
C803   C     0.70216   0.83498   0.85512   0.00000  Uiso   1.00
C804   C     0.97341   0.68067   0.73616   0.00000  Uiso   1.00
C805   C     0.98430   0.73513   0.74787   0.00000  Uiso   1.00
C806   C     0.96442   0.83038   0.64494   0.00000  Uiso   1.00
C807   C     0.94626   0.78125   0.99530   0.00000  Uiso   1.00
C808   C     0.94569   0.82627   0.58455   0.00000  Uiso   1.00
C809   C     0.69762   0.87884   0.94574   0.00000  Uiso   1.00
C810   C     0.73135   0.90668   0.99237   0.00000  Uiso   1.00
C811   C     0.81131   0.85211   0.98623   0.00000  Uiso   1.00
C812   C     0.78949   0.89708   0.50955   0.00000  Uiso   1.00
C813   C     0.91219   0.99315   0.70840   0.00000  Uiso   1.00
C814   C     0.77678   0.82419   0.93866   0.00000  Uiso   1.00
C815   C     0.86629   0.83431   0.50719   0.00000  Uiso   1.00
C816   C     0.89048   0.79679   0.97530   0.00000  Uiso   1.00
C817   C     0.85628   0.77109   0.92744   0.00000  Uiso   1.00
C818   C     0.79876   0.78180   0.91202   0.00000  Uiso   1.00
C819   C     0.89348   0.84641   0.56257   0.00000  Uiso   1.00
C820   C     0.97438   0.79666   0.55002   0.00000  Uiso   1.00
H821   H     0.68216   0.78133   0.56678   0.00000  Uiso   1.00
H822   H     0.88783   0.69080   0.68628   0.00000  Uiso   1.00
H823   H     0.91298   0.96119   0.67610   0.00000  Uiso   1.00
H824   H     0.88826   0.97921   0.74053   0.00000  Uiso   1.00
H825   H     0.82316   0.79150   0.70804   0.00000  Uiso   1.00
H826   H     0.87269   0.74015   0.90432   0.00000  Uiso   1.00
H827   H     0.96602   0.75416   0.97041   0.00000  Uiso   1.00
H828   H     0.87085   0.86652   0.59085   0.00000  Uiso   1.00
H829   H     0.98856   0.89169   0.92883   0.00000  Uiso   1.00
H830   H     0.71412   0.93996   0.51081   0.00000  Uiso   1.00
H831   H     0.77190   0.75762   0.87773   0.00000  Uiso   1.00
H832   H     0.73099   0.67007   0.75943   0.00000  Uiso   1.00
I833   I     0.84442   0.90618   0.82318   0.00000  Uiso   1.00
I834   I     0.84171   0.96275   0.55403   0.00000  Uiso   1.00
N835   N     0.81160   0.81890   0.73542   0.00000  Uiso   1.00
N836   N     0.85507   0.84777   0.76457   0.00000  Uiso   1.00
O837   O     0.96435   0.91296   0.75357   0.00000  Uiso   1.00
O838   O     0.72408   0.90371   0.74424   0.00000  Uiso   1.00
O839   O     0.98157   0.84024   0.83380   0.00000  Uiso   1.00
O840   O     0.74130   0.83099   0.82446   0.00000  Uiso   1.00
O841   O     0.94258   0.76296   0.75576   0.00000  Uiso   1.00
O842   O     0.70231   0.75371   0.74642   0.00000  Uiso   1.00
O843   O     0.92537   0.83567   0.67554   0.00000  Uiso   1.00
O844   O     0.68510   0.82642   0.66620   0.00000  Uiso   1.00
Zn845  Zn    0.93786   0.83951   0.75623   0.00000  Uiso   1.00
Zn846  Zn    0.72881   0.82716   0.74376   0.00000  Uiso   1.00
loop_
_geom_bond_atom_site_label_1
_geom_bond_atom_site_label_2
_geom_bond_distance
_geom_bond_site_symmetry_2
_ccdc_geom_bond_type
C1     O39     1.293   .     A
C1     C3      1.402   .     S
C1     O132    1.275   1_455 S
C2     C4      1.453   .     S
C2     C15     1.405   .     A
C2     C10     1.399   .     A
C3     C240    1.348   1_455 S
C3     H174    1.088   .     S
C4     O41     1.299   .     A
C4     O134    1.295   1_455 S
C5     C6      1.410   .     S
C5     C332    1.348   1_545 S
C5     C296    1.520   1_545 S
C6     O42     1.290   .     A
C6     O90     1.279   .     S
C7     C9      1.444   .     S
C7     O44     1.299   .     A
C7     O92     1.291   .     S
C8     C17     1.402   .     A
C8     H28     1.084   .     S
C8     C444    1.391   .     S
C9     C20     1.387   .     A
C9     C21     1.400   .     A
C10    C11     1.386   .     A
C10    H124    1.084   1_455 S
C11    C436    1.395   .     S
C11    H454    1.083   .     S
C12    C15     1.410   .     A
C12    C436    1.429   .     S
C12    C439    1.412   .     S
C13    I35     2.135   .     S
C13    C434    1.395   1_554 S
C13    C435    1.429   1_554 S
C14    H25     1.108   .     S
C14    H24     1.110   .     S
C14    C146    1.520   .     S
C14    H164    1.111   .     S
C15    C19     1.416   .     A
C16    C20     1.384   .     A
C16    C435    1.412   1_554 S
C16    C440    1.421   1_554 S
C17    C18     1.388   .     A
C17    C439    1.421   .     S
C18    C19     1.384   .     A
C18    H27     1.084   .     S
C19    H32     1.083   .     S
C20    H29     1.079   .     S
C21    C431    1.391   1_554 S
C21    H69     1.083   .     S
H22    C115    1.083   1_455 S
H23    C296    1.111   1_545 S
H26    N36     1.029   .     S
H30    C57     1.084   .     S
H31    C434    1.083   1_554 S
H33    C285    1.088   1_545 S
I34    N37     2.076   .     S
N36    N37     1.292   .     D
N36    Zn47    2.024   .     S
N37    Zn46    2.024   .     S
O38    Zn46    1.956   .     S
O38    C48     1.275   .     S
O39    Zn47    1.976   .     S
O40    Zn46    1.963   .     S
O40    C51     1.295   .     S
O41    Zn47    1.921   .     S
O42    Zn46    1.976   .     S
O43    Zn47    1.956   .     S
O43    C100    1.279   1_455 S
O44    Zn46    1.921   .     S
O45    Zn47    1.963   .     S
O45    C101    1.291   1_455 S
C48    O86     1.293   .     A
C48    C50     1.402   .     S
C49    C51     1.453   .     S
C49    C62     1.405   .     A
C49    C57     1.399   .     A
C50    C146    1.348   .     S
C50    H221    1.088   .     S
C51    O88     1.299   .     A
C52    C53     1.410   .     S
C52    C379    1.348   1_545 S
C52    C343    1.520   1_545 S
C53    O89     1.290   .     A
C53    O137    1.279   .     S
C54    C56     1.444   .     S
C54    O91     1.299   .     A
C54    O139    1.291   .     S
C55    C64     1.402   .     A
C55    H75     1.084   .     S
C55    C491    1.391   .     S
C56    C67     1.387   .     A
C56    C68     1.400   .     A
C57    C58     1.386   .     A
C58    C483    1.395   .     S
C58    H501    1.083   .     S
C59    C62     1.410   .     A
C59    C483    1.429   .     S
C59    C486    1.412   .     S
C60    I82     2.135   .     S
C60    C481    1.395   1_554 S
C60    C482    1.429   1_554 S
C61    H72     1.108   .     S
C61    H71     1.110   .     S
C61    C193    1.520   .     S
C61    H211    1.111   .     S
C62    C66     1.416   .     A
C63    C67     1.384   .     A
C63    C482    1.412   1_554 S
C63    C487    1.421   1_554 S
C64    C65     1.388   .     A
C64    C486    1.421   .     S
C65    C66     1.384   .     A
C65    H74     1.084   .     S
C66    H79     1.083   .     S
C67    H76     1.079   .     S
C68    C478    1.391   1_554 S
C68    H116    1.083   .     S
H70    C343    1.111   1_545 S
H73    N83     1.029   .     S
H77    C104    1.084   .     S
H78    C481    1.083   1_554 S
H80    C332    1.088   1_545 S
I81    N84     2.076   .     S
N83    N84     1.292   .     D
N83    Zn94    2.024   .     S
N84    Zn93    2.024   .     S
O85    Zn93    1.956   .     S
O85    C95     1.275   .     S
O86    Zn94    1.976   .     S
O87    Zn93    1.963   .     S
O87    C98     1.295   .     S
O88    Zn94    1.921   .     S
O89    Zn93    1.976   .     S
O90    Zn94    1.956   .     S
O91    Zn93    1.921   .     S
O92    Zn94    1.963   .     S
C95    O133    1.293   .     A
C95    C97     1.402   .     S
C96    C98     1.453   .     S
C96    C109    1.405   .     A
C96    C104    1.399   .     A
C97    C193    1.348   .     S
C97    H268    1.088   .     S
C98    O135    1.299   .     A
C99    C100    1.410   .     S
C99    C285    1.348   1_645 S
C99    C390    1.520   1_545 S
C100   O136    1.290   .     A
C100   O43     1.279   1_655 S
C101   C103    1.444   .     S
C101   O138    1.299   .     A
C101   O45     1.291   1_655 S
C102   C111    1.402   .     A
C102   H122    1.084   .     S
C102   C538    1.391   .     S
C103   C114    1.387   .     A
C103   C115    1.400   .     A
C104   C105    1.386   .     A
C105   C530    1.395   .     S
C105   H548    1.083   .     S
C106   C109    1.410   .     A
C106   C530    1.429   .     S
C106   C533    1.412   .     S
C107   I129    2.135   .     S
C107   C528    1.395   1_554 S
C107   C529    1.429   1_554 S
C108   H119    1.108   .     S
C108   H118    1.110   .     S
C108   C240    1.520   .     S
C108   H258    1.111   .     S
C109   C113    1.416   .     A
C110   C114    1.384   .     A
C110   C529    1.412   1_554 S
C110   C534    1.421   1_554 S
C111   C112    1.388   .     A
C111   C533    1.421   .     S
C112   C113    1.384   .     A
C112   H121    1.084   .     S
C113   H126    1.083   .     S
C114   H123    1.079   .     S
C115   C525    1.391   1_554 S
C115   H22     1.083   1_655 S
H117   C390    1.111   1_545 S
H120   N130    1.029   .     S
H124   C10     1.084   1_655 S
H125   C528    1.083   1_554 S
H127   C379    1.088   1_545 S
I128   N131    2.076   .     S
N130   N131    1.292   .     D
N130   Zn141   2.024   .     S
N131   Zn140   2.024   .     S
O132   Zn140   1.956   .     S
O132   C1      1.275   1_655 S
O133   Zn141   1.976   .     S
O134   Zn140   1.963   .     S
O134   C4      1.295   1_655 S
O135   Zn141   1.921   .     S
O136   Zn140   1.976   .     S
O137   Zn141   1.956   .     S
O138   Zn140   1.921   .     S
O139   Zn141   1.963   .     S
C142   O180    1.293   .     A
C142   C144    1.402   .     S
C142   O273    1.275   1_455 S
C143   C145    1.453   .     S
C143   C156    1.405   .     A
C143   C151    1.399   .     A
C144   C381    1.348   1_455 S
C144   H315    1.088   .     S
C145   O182    1.299   .     A
C145   O275    1.295   1_455 S
C146   C147    1.410   .     S
C147   O183    1.290   .     A
C147   O231    1.279   .     S
C148   C150    1.444   .     S
C148   O185    1.299   .     A
C148   O233    1.291   .     S
C149   C158    1.402   .     A
C149   H169    1.084   .     S
C149   C585    1.391   .     S
C150   C161    1.387   .     A
C150   C162    1.400   .     A
C151   C152    1.386   .     A
C151   H265    1.084   1_455 S
C152   C577    1.395   .     S
C152   H595    1.083   .     S
C153   C156    1.410   .     A
C153   C577    1.429   .     S
C153   C580    1.412   .     S
C154   I176    2.135   .     S
C154   C575    1.395   1_554 S
C154   C576    1.429   1_554 S
C155   H166    1.108   .     S
C155   H165    1.110   .     S
C155   C287    1.520   .     S
C155   H305    1.111   .     S
C156   C160    1.416   .     A
C157   C161    1.384   .     A
C157   C576    1.412   1_554 S
C157   C581    1.421   1_554 S
C158   C159    1.388   .     A
C158   C580    1.421   .     S
C159   C160    1.384   .     A
C159   H168    1.084   .     S
C160   H173    1.083   .     S
C161   H170    1.079   .     S
C162   C572    1.391   1_554 S
C162   H210    1.083   .     S
H163   C256    1.083   1_455 S
H167   N177    1.029   .     S
H171   C198    1.084   .     S
H172   C575    1.083   1_554 S
I175   N178    2.076   .     S
N177   N178    1.292   .     D
N177   Zn188   2.024   .     S
N178   Zn187   2.024   .     S
O179   Zn187   1.956   .     S
O179   C189    1.275   .     S
O180   Zn188   1.976   .     S
O181   Zn187   1.963   .     S
O181   C192    1.295   .     S
O182   Zn188   1.921   .     S
O183   Zn187   1.976   .     S
O184   Zn188   1.956   .     S
O184   C241    1.279   1_455 S
O185   Zn187   1.921   .     S
O186   Zn188   1.963   .     S
O186   C242    1.291   1_455 S
C189   O227    1.293   .     A
C189   C191    1.402   .     S
C190   C192    1.453   .     S
C190   C203    1.405   .     A
C190   C198    1.399   .     A
C191   C287    1.348   .     S
C191   H362    1.088   .     S
C192   O229    1.299   .     A
C193   C194    1.410   .     S
C194   O230    1.290   .     A
C194   O278    1.279   .     S
C195   C197    1.444   .     S
C195   O232    1.299   .     A
C195   O280    1.291   .     S
C196   C205    1.402   .     A
C196   H216    1.084   .     S
C196   C632    1.391   .     S
C197   C208    1.387   .     A
C197   C209    1.400   .     A
C198   C199    1.386   .     A
C199   C624    1.395   .     S
C199   H642    1.083   .     S
C200   C203    1.410   .     A
C200   C624    1.429   .     S
C200   C627    1.412   .     S
C201   I223    2.135   .     S
C201   C622    1.395   1_554 S
C201   C623    1.429   1_554 S
C202   H213    1.108   .     S
C202   H212    1.110   .     S
C202   C334    1.520   .     S
C202   H352    1.111   .     S
C203   C207    1.416   .     A
C204   C208    1.384   .     A
C204   C623    1.412   1_554 S
C204   C628    1.421   1_554 S
C205   C206    1.388   .     A
C205   C627    1.421   .     S
C206   C207    1.384   .     A
C206   H215    1.084   .     S
C207   H220    1.083   .     S
C208   H217    1.079   .     S
C209   C619    1.391   1_554 S
C209   H257    1.083   .     S
H214   N224    1.029   .     S
H218   C245    1.084   .     S
H219   C622    1.083   1_554 S
I222   N225    2.076   .     S
N224   N225    1.292   .     D
N224   Zn235   2.024   .     S
N225   Zn234   2.024   .     S
O226   Zn234   1.956   .     S
O226   C236    1.275   .     S
O227   Zn235   1.976   .     S
O228   Zn234   1.963   .     S
O228   C239    1.295   .     S
O229   Zn235   1.921   .     S
O230   Zn234   1.976   .     S
O231   Zn235   1.956   .     S
O232   Zn234   1.921   .     S
O233   Zn235   1.963   .     S
C236   O274    1.293   .     A
C236   C238    1.402   .     S
C237   C239    1.453   .     S
C237   C250    1.405   .     A
C237   C245    1.399   .     A
C238   C334    1.348   .     S
C238   H409    1.088   .     S
C239   O276    1.299   .     A
C240   C241    1.410   .     S
C240   C3      1.348   1_655 S
C241   O277    1.290   .     A
C241   O184    1.279   1_655 S
C242   C244    1.444   .     S
C242   O279    1.299   .     A
C242   O186    1.291   1_655 S
C243   C252    1.402   .     A
C243   H263    1.084   .     S
C243   C679    1.391   .     S
C244   C255    1.387   .     A
C244   C256    1.400   .     A
C245   C246    1.386   .     A
C246   C671    1.395   .     S
C246   H689    1.083   .     S
C247   C250    1.410   .     A
C247   C671    1.429   .     S
C247   C674    1.412   .     S
C248   I270    2.135   .     S
C248   C669    1.395   1_554 S
C248   C670    1.429   1_554 S
C249   H260    1.108   .     S
C249   H259    1.110   .     S
C249   C381    1.520   .     S
C249   H399    1.111   .     S
C250   C254    1.416   .     A
C251   C255    1.384   .     A
C251   C670    1.412   1_554 S
C251   C675    1.421   1_554 S
C252   C253    1.388   .     A
C252   C674    1.421   .     S
C253   C254    1.384   .     A
C253   H262    1.084   .     S
C254   H267    1.083   .     S
C255   H264    1.079   .     S
C256   C666    1.391   1_554 S
C256   H163    1.083   1_655 S
H261   N271    1.029   .     S
H265   C151    1.084   1_655 S
H266   C669    1.083   1_554 S
I269   N272    2.076   .     S
N271   N272    1.292   .     D
N271   Zn282   2.024   .     S
N272   Zn281   2.024   .     S
O273   Zn281   1.956   .     S
O273   C142    1.275   1_655 S
O274   Zn282   1.976   .     S
O275   Zn281   1.963   .     S
O275   C145    1.295   1_655 S
O276   Zn282   1.921   .     S
O277   Zn281   1.976   .     S
O278   Zn282   1.956   .     S
O279   Zn281   1.921   .     S
O280   Zn282   1.963   .     S
C283   O321    1.293   .     A
C283   C285    1.402   .     S
C283   O414    1.275   1_455 S
C284   C286    1.453   .     S
C284   C297    1.405   .     A
C284   C292    1.399   .     A
C285   C99     1.348   1_465 S
C285   H33     1.088   1_565 S
C286   O323    1.299   .     A
C286   O416    1.295   1_455 S
C287   C288    1.410   .     S
C288   O324    1.290   .     A
C288   O372    1.279   .     S
C289   C291    1.444   .     S
C289   O326    1.299   .     A
C289   O374    1.291   .     S
C290   C299    1.402   .     A
C290   H310    1.084   .     S
C290   C726    1.391   .     S
C291   C302    1.387   .     A
C291   C303    1.400   .     A
C292   C293    1.386   .     A
C292   H406    1.084   1_455 S
C293   C718    1.395   .     S
C293   H736    1.083   .     S
C294   C297    1.410   .     A
C294   C718    1.429   .     S
C294   C721    1.412   .     S
C295   I317    2.135   .     S
C295   C716    1.395   1_554 S
C295   C717    1.429   1_554 S
C296   H307    1.108   .     S
C296   H306    1.110   .     S
C296   C5      1.520   1_565 S
C296   H23     1.111   1_565 S
C297   C301    1.416   .     A
C298   C302    1.384   .     A
C298   C717    1.412   1_554 S
C298   C722    1.421   1_554 S
C299   C300    1.388   .     A
C299   C721    1.421   .     S
C300   C301    1.384   .     A
C300   H309    1.084   .     S
C301   H314    1.083   .     S
C302   H311    1.079   .     S
C303   C713    1.391   1_554 S
C303   H351    1.083   .     S
H304   C397    1.083   1_455 S
H308   N318    1.029   .     S
H312   C339    1.084   .     S
H313   C716    1.083   1_554 S
I316   N319    2.076   .     S
N318   N319    1.292   .     D
N318   Zn329   2.024   .     S
N319   Zn328   2.024   .     S
O320   Zn328   1.956   .     S
O320   C330    1.275   .     S
O321   Zn329   1.976   .     S
O322   Zn328   1.963   .     S
O322   C333    1.295   .     S
O323   Zn329   1.921   .     S
O324   Zn328   1.976   .     S
O325   Zn329   1.956   .     S
O325   C382    1.279   1_455 S
O326   Zn328   1.921   .     S
O327   Zn329   1.963   .     S
O327   C383    1.291   1_455 S
C330   O368    1.293   .     A
C330   C332    1.402   .     S
C331   C333    1.453   .     S
C331   C344    1.405   .     A
C331   C339    1.399   .     A
C332   C5      1.348   1_565 S
C332   H80     1.088   1_565 S
C333   O370    1.299   .     A
C334   C335    1.410   .     S
C335   O371    1.290   .     A
C335   O419    1.279   .     S
C336   C338    1.444   .     S
C336   O373    1.299   .     A
C336   O421    1.291   .     S
C337   C346    1.402   .     A
C337   H357    1.084   .     S
C337   C773    1.391   .     S
C338   C349    1.387   .     A
C338   C350    1.400   .     A
C339   C340    1.386   .     A
C340   C765    1.395   .     S
C340   H783    1.083   .     S
C341   C344    1.410   .     A
C341   C765    1.429   .     S
C341   C768    1.412   .     S
C342   I364    2.135   .     S
C342   C763    1.395   1_554 S
C342   C764    1.429   1_554 S
C343   H354    1.108   .     S
C343   H353    1.110   .     S
C343   C52     1.520   1_565 S
C343   H70     1.111   1_565 S
C344   C348    1.416   .     A
C345   C349    1.384   .     A
C345   C764    1.412   1_554 S
C345   C769    1.421   1_554 S
C346   C347    1.388   .     A
C346   C768    1.421   .     S
C347   C348    1.384   .     A
C347   H356    1.084   .     S
C348   H361    1.083   .     S
C349   H358    1.079   .     S
C350   C760    1.391   1_554 S
C350   H398    1.083   .     S
H355   N365    1.029   .     S
H359   C386    1.084   .     S
H360   C763    1.083   1_554 S
I363   N366    2.076   .     S
N365   N366    1.292   .     D
N365   Zn376   2.024   .     S
N366   Zn375   2.024   .     S
O367   Zn375   1.956   .     S
O367   C377    1.275   .     S
O368   Zn376   1.976   .     S
O369   Zn375   1.963   .     S
O369   C380    1.295   .     S
O370   Zn376   1.921   .     S
O371   Zn375   1.976   .     S
O372   Zn376   1.956   .     S
O373   Zn375   1.921   .     S
O374   Zn376   1.963   .     S
C377   O415    1.293   .     A
C377   C379    1.402   .     S
C378   C380    1.453   .     S
C378   C391    1.405   .     A
C378   C386    1.399   .     A
C379   C52     1.348   1_565 S
C379   H127    1.088   1_565 S
C380   O417    1.299   .     A
C381   C382    1.410   .     S
C381   C144    1.348   1_655 S
C382   O418    1.290   .     A
C382   O325    1.279   1_655 S
C383   C385    1.444   .     S
C383   O420    1.299   .     A
C383   O327    1.291   1_655 S
C384   C393    1.402   .     A
C384   H404    1.084   .     S
C384   C820    1.391   .     S
C385   C396    1.387   .     A
C385   C397    1.400   .     A
C386   C387    1.386   .     A
C387   C812    1.395   .     S
C387   H830    1.083   .     S
C388   C391    1.410   .     A
C388   C812    1.429   .     S
C388   C815    1.412   .     S
C389   I411    2.135   .     S
C389   C810    1.395   1_554 S
C389   C811    1.429   1_554 S
C390   H401    1.108   .     S
C390   H400    1.110   .     S
C390   C99     1.520   1_565 S
C390   H117    1.111   1_565 S
C391   C395    1.416   .     A
C392   C396    1.384   .     A
C392   C811    1.412   1_554 S
C392   C816    1.421   1_554 S
C393   C394    1.388   .     A
C393   C815    1.421   .     S
C394   C395    1.384   .     A
C394   H403    1.084   .     S
C395   H408    1.083   .     S
C396   H405    1.079   .     S
C397   C807    1.391   1_554 S
C397   H304    1.083   1_655 S
H402   N412    1.029   .     S
H406   C292    1.084   1_655 S
H407   C810    1.083   1_554 S
I410   N413    2.076   .     S
N412   N413    1.292   .     D
N412   Zn423   2.024   .     S
N413   Zn422   2.024   .     S
O414   Zn422   1.956   .     S
O414   C283    1.275   1_655 S
O415   Zn423   1.976   .     S
O416   Zn422   1.963   .     S
O416   C286    1.295   1_655 S
O417   Zn423   1.921   .     S
O418   Zn422   1.976   .     S
O419   Zn423   1.956   .     S
O420   Zn422   1.921   .     S
O421   Zn423   1.963   .     S
C424   O462    1.293   .     A
C424   C426    1.402   .     S
C424   O555    1.275   1_455 S
C425   C427    1.453   .     S
C425   C438    1.405   .     A
C425   C433    1.399   .     A
C426   C663    1.348   1_455 S
C426   H597    1.088   .     S
C427   O464    1.299   .     A
C427   O557    1.295   1_455 S
C428   C429    1.410   .     S
C428   C755    1.348   1_545 S
C428   C719    1.520   1_545 S
C429   O465    1.290   .     A
C429   O513    1.279   .     S
C430   C432    1.444   .     S
C430   O467    1.299   .     A
C430   O515    1.291   .     S
C431   C440    1.402   .     A
C431   H451    1.084   .     S
C431   C21     1.391   1_556 S
C432   C443    1.387   .     A
C432   C444    1.400   .     A
C433   C434    1.386   .     A
C433   H547    1.084   1_455 S
C434   C13     1.395   1_556 S
C434   H31     1.083   1_556 S
C435   C438    1.410   .     A
C435   C13     1.429   1_556 S
C435   C16     1.412   1_556 S
C436   I458    2.135   .     S
C437   H448    1.108   .     S
C437   H447    1.110   .     S
C437   C569    1.520   .     S
C437   H587    1.111   .     S
C438   C442    1.416   .     A
C439   C443    1.384   .     A
C440   C441    1.388   .     A
C440   C16     1.421   1_556 S
C441   C442    1.384   .     A
C441   H450    1.084   .     S
C442   H455    1.083   .     S
C443   H452    1.079   .     S
C444   H492    1.083   .     S
H445   C538    1.083   1_455 S
H446   C719    1.111   1_545 S
H449   N459    1.029   .     S
H453   C480    1.084   .     S
H456   C708    1.088   1_545 S
I457   N460    2.076   .     S
N459   N460    1.292   .     D
N459   Zn470   2.024   .     S
N460   Zn469   2.024   .     S
O461   Zn469   1.956   .     S
O461   C471    1.275   .     S
O462   Zn470   1.976   .     S
O463   Zn469   1.963   .     S
O463   C474    1.295   .     S
O464   Zn470   1.921   .     S
O465   Zn469   1.976   .     S
O466   Zn470   1.956   .     S
O466   C523    1.279   1_455 S
O467   Zn469   1.921   .     S
O468   Zn470   1.963   .     S
O468   C524    1.291   1_455 S
C471   O509    1.293   .     A
C471   C473    1.402   .     S
C472   C474    1.453   .     S
C472   C485    1.405   .     A
C472   C480    1.399   .     A
C473   C569    1.348   .     S
C473   H644    1.088   .     S
C474   O511    1.299   .     A
C475   C476    1.410   .     S
C475   C802    1.348   1_545 S
C475   C766    1.520   1_545 S
C476   O512    1.290   .     A
C476   O560    1.279   .     S
C477   C479    1.444   .     S
C477   O514    1.299   .     A
C477   O562    1.291   .     S
C478   C487    1.402   .     A
C478   H498    1.084   .     S
C478   C68     1.391   1_556 S
C479   C490    1.387   .     A
C479   C491    1.400   .     A
C480   C481    1.386   .     A
C481   C60     1.395   1_556 S
C481   H78     1.083   1_556 S
C482   C485    1.410   .     A
C482   C60     1.429   1_556 S
C482   C63     1.412   1_556 S
C483   I505    2.135   .     S
C484   H495    1.108   .     S
C484   H494    1.110   .     S
C484   C616    1.520   .     S
C484   H634    1.111   .     S
C485   C489    1.416   .     A
C486   C490    1.384   .     A
C487   C488    1.388   .     A
C487   C63     1.421   1_556 S
C488   C489    1.384   .     A
C488   H497    1.084   .     S
C489   H502    1.083   .     S
C490   H499    1.079   .     S
C491   H539    1.083   .     S
H493   C766    1.111   1_545 S
H496   N506    1.029   .     S
H500   C527    1.084   .     S
H503   C755    1.088   1_545 S
I504   N507    2.076   .     S
N506   N507    1.292   .     D
N506   Zn517   2.024   .     S
N507   Zn516   2.024   .     S
O508   Zn516   1.956   .     S
O508   C518    1.275   .     S
O509   Zn517   1.976   .     S
O510   Zn516   1.963   .     S
O510   C521    1.295   .     S
O511   Zn517   1.921   .     S
O512   Zn516   1.976   .     S
O513   Zn517   1.956   .     S
O514   Zn516   1.921   .     S
O515   Zn517   1.963   .     S
C518   O556    1.293   .     A
C518   C520    1.402   .     S
C519   C521    1.453   .     S
C519   C532    1.405   .     A
C519   C527    1.399   .     A
C520   C616    1.348   .     S
C520   H691    1.088   .     S
C521   O558    1.299   .     A
C522   C523    1.410   .     S
C522   C708    1.348   1_645 S
C522   C813    1.520   1_545 S
C523   O559    1.290   .     A
C523   O466    1.279   1_655 S
C524   C526    1.444   .     S
C524   O561    1.299   .     A
C524   O468    1.291   1_655 S
C525   C534    1.402   .     A
C525   H545    1.084   .     S
C525   C115    1.391   1_556 S
C526   C537    1.387   .     A
C526   C538    1.400   .     A
C527   C528    1.386   .     A
C528   C107    1.395   1_556 S
C528   H125    1.083   1_556 S
C529   C532    1.410   .     A
C529   C107    1.429   1_556 S
C529   C110    1.412   1_556 S
C530   I552    2.135   .     S
C531   H542    1.108   .     S
C531   H541    1.110   .     S
C531   C663    1.520   .     S
C531   H681    1.111   .     S
C532   C536    1.416   .     A
C533   C537    1.384   .     A
C534   C535    1.388   .     A
C534   C110    1.421   1_556 S
C535   C536    1.384   .     A
C535   H544    1.084   .     S
C536   H549    1.083   .     S
C537   H546    1.079   .     S
C538   H445    1.083   1_655 S
H540   C813    1.111   1_545 S
H543   N553    1.029   .     S
H547   C433    1.084   1_655 S
H550   C802    1.088   1_545 S
I551   N554    2.076   .     S
N553   N554    1.292   .     D
N553   Zn564   2.024   .     S
N554   Zn563   2.024   .     S
O555   Zn563   1.956   .     S
O555   C424    1.275   1_655 S
O556   Zn564   1.976   .     S
O557   Zn563   1.963   .     S
O557   C427    1.295   1_655 S
O558   Zn564   1.921   .     S
O559   Zn563   1.976   .     S
O560   Zn564   1.956   .     S
O561   Zn563   1.921   .     S
O562   Zn564   1.963   .     S
C565   O603    1.293   .     A
C565   C567    1.402   .     S
C565   O696    1.275   1_455 S
C566   C568    1.453   .     S
C566   C579    1.405   .     A
C566   C574    1.399   .     A
C567   C804    1.348   1_455 S
C567   H738    1.088   .     S
C568   O605    1.299   .     A
C568   O698    1.295   1_455 S
C569   C570    1.410   .     S
C570   O606    1.290   .     A
C570   O654    1.279   .     S
C571   C573    1.444   .     S
C571   O608    1.299   .     A
C571   O656    1.291   .     S
C572   C581    1.402   .     A
C572   H592    1.084   .     S
C572   C162    1.391   1_556 S
C573   C584    1.387   .     A
C573   C585    1.400   .     A
C574   C575    1.386   .     A
C574   H688    1.084   1_455 S
C575   C154    1.395   1_556 S
C575   H172    1.083   1_556 S
C576   C579    1.410   .     A
C576   C154    1.429   1_556 S
C576   C157    1.412   1_556 S
C577   I599    2.135   .     S
C578   H589    1.108   .     S
C578   H588    1.110   .     S
C578   C710    1.520   .     S
C578   H728    1.111   .     S
C579   C583    1.416   .     A
C580   C584    1.384   .     A
C581   C582    1.388   .     A
C581   C157    1.421   1_556 S
C582   C583    1.384   .     A
C582   H591    1.084   .     S
C583   H596    1.083   .     S
C584   H593    1.079   .     S
C585   H633    1.083   .     S
H586   C679    1.083   1_455 S
H590   N600    1.029   .     S
H594   C621    1.084   .     S
I598   N601    2.076   .     S
N600   N601    1.292   .     D
N600   Zn611   2.024   .     S
N601   Zn610   2.024   .     S
O602   Zn610   1.956   .     S
O602   C612    1.275   .     S
O603   Zn611   1.976   .     S
O604   Zn610   1.963   .     S
O604   C615    1.295   .     S
O605   Zn611   1.921   .     S
O606   Zn610   1.976   .     S
O607   Zn611   1.956   .     S
O607   C664    1.279   1_455 S
O608   Zn610   1.921   .     S
O609   Zn611   1.963   .     S
O609   C665    1.291   1_455 S
C612   O650    1.293   .     A
C612   C614    1.402   .     S
C613   C615    1.453   .     S
C613   C626    1.405   .     A
C613   C621    1.399   .     A
C614   C710    1.348   .     S
C614   H785    1.088   .     S
C615   O652    1.299   .     A
C616   C617    1.410   .     S
C617   O653    1.290   .     A
C617   O701    1.279   .     S
C618   C620    1.444   .     S
C618   O655    1.299   .     A
C618   O703    1.291   .     S
C619   C628    1.402   .     A
C619   H639    1.084   .     S
C619   C209    1.391   1_556 S
C620   C631    1.387   .     A
C620   C632    1.400   .     A
C621   C622    1.386   .     A
C622   C201    1.395   1_556 S
C622   H219    1.083   1_556 S
C623   C626    1.410   .     A
C623   C201    1.429   1_556 S
C623   C204    1.412   1_556 S
C624   I646    2.135   .     S
C625   H636    1.108   .     S
C625   H635    1.110   .     S
C625   C757    1.520   .     S
C625   H775    1.111   .     S
C626   C630    1.416   .     A
C627   C631    1.384   .     A
C628   C629    1.388   .     A
C628   C204    1.421   1_556 S
C629   C630    1.384   .     A
C629   H638    1.084   .     S
C630   H643    1.083   .     S
C631   H640    1.079   .     S
C632   H680    1.083   .     S
H637   N647    1.029   .     S
H641   C668    1.084   .     S
I645   N648    2.076   .     S
N647   N648    1.292   .     D
N647   Zn658   2.024   .     S
N648   Zn657   2.024   .     S
O649   Zn657   1.956   .     S
O649   C659    1.275   .     S
O650   Zn658   1.976   .     S
O651   Zn657   1.963   .     S
O651   C662    1.295   .     S
O652   Zn658   1.921   .     S
O653   Zn657   1.976   .     S
O654   Zn658   1.956   .     S
O655   Zn657   1.921   .     S
O656   Zn658   1.963   .     S
C659   O697    1.293   .     A
C659   C661    1.402   .     S
C660   C662    1.453   .     S
C660   C673    1.405   .     A
C660   C668    1.399   .     A
C661   C757    1.348   .     S
C661   H832    1.088   .     S
C662   O699    1.299   .     A
C663   C664    1.410   .     S
C663   C426    1.348   1_655 S
C664   O700    1.290   .     A
C664   O607    1.279   1_655 S
C665   C667    1.444   .     S
C665   O702    1.299   .     A
C665   O609    1.291   1_655 S
C666   C675    1.402   .     A
C666   H686    1.084   .     S
C666   C256    1.391   1_556 S
C667   C678    1.387   .     A
C667   C679    1.400   .     A
C668   C669    1.386   .     A
C669   C248    1.395   1_556 S
C669   H266    1.083   1_556 S
C670   C673    1.410   .     A
C670   C248    1.429   1_556 S
C670   C251    1.412   1_556 S
C671   I693    2.135   .     S
C672   H683    1.108   .     S
C672   H682    1.110   .     S
C672   C804    1.520   .     S
C672   H822    1.111   .     S
C673   C677    1.416   .     A
C674   C678    1.384   .     A
C675   C676    1.388   .     A
C675   C251    1.421   1_556 S
C676   C677    1.384   .     A
C676   H685    1.084   .     S
C677   H690    1.083   .     S
C678   H687    1.079   .     S
C679   H586    1.083   1_655 S
H684   N694    1.029   .     S
H688   C574    1.084   1_655 S
I692   N695    2.076   .     S
N694   N695    1.292   .     D
N694   Zn705   2.024   .     S
N695   Zn704   2.024   .     S
O696   Zn704   1.956   .     S
O696   C565    1.275   1_655 S
O697   Zn705   1.976   .     S
O698   Zn704   1.963   .     S
O698   C568    1.295   1_655 S
O699   Zn705   1.921   .     S
O700   Zn704   1.976   .     S
O701   Zn705   1.956   .     S
O702   Zn704   1.921   .     S
O703   Zn705   1.963   .     S
C706   O744    1.293   .     A
C706   C708    1.402   .     S
C706   O837    1.275   1_455 S
C707   C709    1.453   .     S
C707   C720    1.405   .     A
C707   C715    1.399   .     A
C708   C522    1.348   1_465 S
C708   H456    1.088   1_565 S
C709   O746    1.299   .     A
C709   O839    1.295   1_455 S
C710   C711    1.410   .     S
C711   O747    1.290   .     A
C711   O795    1.279   .     S
C712   C714    1.444   .     S
C712   O749    1.299   .     A
C712   O797    1.291   .     S
C713   C722    1.402   .     A
C713   H733    1.084   .     S
C713   C303    1.391   1_556 S
C714   C725    1.387   .     A
C714   C726    1.400   .     A
C715   C716    1.386   .     A
C715   H829    1.084   1_455 S
C716   C295    1.395   1_556 S
C716   H313    1.083   1_556 S
C717   C720    1.410   .     A
C717   C295    1.429   1_556 S
C717   C298    1.412   1_556 S
C718   I740    2.135   .     S
C719   H730    1.108   .     S
C719   H729    1.110   .     S
C719   C428    1.520   1_565 S
C719   H446    1.111   1_565 S
C720   C724    1.416   .     A
C721   C725    1.384   .     A
C722   C723    1.388   .     A
C722   C298    1.421   1_556 S
C723   C724    1.384   .     A
C723   H732    1.084   .     S
C724   H737    1.083   .     S
C725   H734    1.079   .     S
C726   H774    1.083   .     S
H727   C820    1.083   1_455 S
H731   N741    1.029   .     S
H735   C762    1.084   .     S
I739   N742    2.076   .     S
N741   N742    1.292   .     D
N741   Zn752   2.024   .     S
N742   Zn751   2.024   .     S
O743   Zn751   1.956   .     S
O743   C753    1.275   .     S
O744   Zn752   1.976   .     S
O745   Zn751   1.963   .     S
O745   C756    1.295   .     S
O746   Zn752   1.921   .     S
O747   Zn751   1.976   .     S
O748   Zn752   1.956   .     S
O748   C805    1.279   1_455 S
O749   Zn751   1.921   .     S
O750   Zn752   1.963   .     S
O750   C806    1.291   1_455 S
C753   O791    1.293   .     A
C753   C755    1.402   .     S
C754   C756    1.453   .     S
C754   C767    1.405   .     A
C754   C762    1.399   .     A
C755   C428    1.348   1_565 S
C755   H503    1.088   1_565 S
C756   O793    1.299   .     A
C757   C758    1.410   .     S
C758   O794    1.290   .     A
C758   O842    1.279   .     S
C759   C761    1.444   .     S
C759   O796    1.299   .     A
C759   O844    1.291   .     S
C760   C769    1.402   .     A
C760   H780    1.084   .     S
C760   C350    1.391   1_556 S
C761   C772    1.387   .     A
C761   C773    1.400   .     A
C762   C763    1.386   .     A
C763   C342    1.395   1_556 S
C763   H360    1.083   1_556 S
C764   C767    1.410   .     A
C764   C342    1.429   1_556 S
C764   C345    1.412   1_556 S
C765   I787    2.135   .     S
C766   H777    1.108   .     S
C766   H776    1.110   .     S
C766   C475    1.520   1_565 S
C766   H493    1.111   1_565 S
C767   C771    1.416   .     A
C768   C772    1.384   .     A
C769   C770    1.388   .     A
C769   C345    1.421   1_556 S
C770   C771    1.384   .     A
C770   H779    1.084   .     S
C771   H784    1.083   .     S
C772   H781    1.079   .     S
C773   H821    1.083   .     S
H778   N788    1.029   .     S
H782   C809    1.084   .     S
I786   N789    2.076   .     S
N788   N789    1.292   .     D
N788   Zn799   2.024   .     S
N789   Zn798   2.024   .     S
O790   Zn798   1.956   .     S
O790   C800    1.275   .     S
O791   Zn799   1.976   .     S
O792   Zn798   1.963   .     S
O792   C803    1.295   .     S
O793   Zn799   1.921   .     S
O794   Zn798   1.976   .     S
O795   Zn799   1.956   .     S
O796   Zn798   1.921   .     S
O797   Zn799   1.963   .     S
C800   O838    1.293   .     A
C800   C802    1.402   .     S
C801   C803    1.453   .     S
C801   C814    1.405   .     A
C801   C809    1.399   .     A
C802   C475    1.348   1_565 S
C802   H550    1.088   1_565 S
C803   O840    1.299   .     A
C804   C805    1.410   .     S
C804   C567    1.348   1_655 S
C805   O841    1.290   .     A
C805   O748    1.279   1_655 S
C806   C808    1.444   .     S
C806   O843    1.299   .     A
C806   O750    1.291   1_655 S
C807   C816    1.402   .     A
C807   H827    1.084   .     S
C807   C397    1.391   1_556 S
C808   C819    1.387   .     A
C808   C820    1.400   .     A
C809   C810    1.386   .     A
C810   C389    1.395   1_556 S
C810   H407    1.083   1_556 S
C811   C814    1.410   .     A
C811   C389    1.429   1_556 S
C811   C392    1.412   1_556 S
C812   I834    2.135   .     S
C813   H824    1.108   .     S
C813   H823    1.110   .     S
C813   C522    1.520   1_565 S
C813   H540    1.111   1_565 S
C814   C818    1.416   .     A
C815   C819    1.384   .     A
C816   C817    1.388   .     A
C816   C392    1.421   1_556 S
C817   C818    1.384   .     A
C817   H826    1.084   .     S
C818   H831    1.083   .     S
C819   H828    1.079   .     S
C820   H727    1.083   1_655 S
H825   N835    1.029   .     S
H829   C715    1.084   1_655 S
I833   N836    2.076   .     S
N835   N836    1.292   .     D
N835   Zn846   2.024   .     S
N836   Zn845   2.024   .     S
O837   Zn845   1.956   .     S
O837   C706    1.275   1_655 S
O838   Zn846   1.976   .     S
O839   Zn845   1.963   .     S
O839   C709    1.295   1_655 S
O840   Zn846   1.921   .     S
O841   Zn845   1.976   .     S
O842   Zn846   1.956   .     S
O843   Zn845   1.921   .     S
O844   Zn846   1.963   .     S
