data_str_m3_o1_o1_pcu_sym.73
_audit_creation_date              2020-01-03
_audit_creation_method            'Materials Studio'
_symmetry_space_group_name_H-M    'P1'
_symmetry_Int_Tables_number       1
_symmetry_cell_setting            triclinic
loop_
_symmetry_equiv_pos_as_xyz
  x,y,z
_cell_length_a                    33.7982
_cell_length_b                    27.1529
_cell_length_c                    29.9659
_cell_angle_alpha                 89.3013
_cell_angle_beta                  89.5360
_cell_angle_gamma                 91.7191
loop_
_atom_site_label
_atom_site_type_symbol
_atom_site_fract_x
_atom_site_fract_y
_atom_site_fract_z
_atom_site_U_iso_or_equiv
_atom_site_adp_type
_atom_site_occupancy
C1     C     0.06000   0.18991   0.16668   0.00000  Uiso   1.00
C2     C     0.49770   0.20566   0.30979   0.00000  Uiso   1.00
C3     C     0.49889   0.20564   0.02499   0.00000  Uiso   1.00
C4     C     0.00253   0.29444   0.30875   0.00000  Uiso   1.00
C5     C     0.25127   0.04440   0.02400   0.00000  Uiso   1.00
C6     C     0.24770   0.45566   0.30979   0.00000  Uiso   1.00
C7     C     0.24889   0.45564   0.02499   0.00000  Uiso   1.00
C8     C     0.25253   0.04444   0.30875   0.00000  Uiso   1.00
C9     C     0.38558   0.14799   0.12467   0.00000  Uiso   1.00
C10    C     0.11712   0.34784   0.20508   0.00000  Uiso   1.00
C11    C     0.11448   0.35325   0.12382   0.00000  Uiso   1.00
C12    C     0.43990   0.30998   0.16662   0.00000  Uiso   1.00
C13    C     0.38621   0.14389   0.20643   0.00000  Uiso   1.00
C14    C     0.10616   0.13461   0.20664   0.00000  Uiso   1.00
C15    C     0.38705   0.35511   0.12632   0.00000  Uiso   1.00
C16    C     0.39283   0.36374   0.20664   0.00000  Uiso   1.00
C17    C     0.11348   0.14619   0.12644   0.00000  Uiso   1.00
C18    C     0.13558   0.39799   0.12467   0.00000  Uiso   1.00
C19    C     0.36712   0.09784   0.20508   0.00000  Uiso   1.00
C20    C     0.36448   0.10325   0.12382   0.00000  Uiso   1.00
C21    C     0.13621   0.39389   0.20643   0.00000  Uiso   1.00
C22    C     0.35616   0.38461   0.20664   0.00000  Uiso   1.00
C23    C     0.43734   0.19393   0.16670   0.00000  Uiso   1.00
C24    C     0.13705   0.10511   0.12632   0.00000  Uiso   1.00
C25    C     0.14283   0.11374   0.20664   0.00000  Uiso   1.00
C26    C     0.36348   0.39619   0.12644   0.00000  Uiso   1.00
C27    C     0.10057   0.33254   0.16464   0.00000  Uiso   1.00
C28    C     0.40031   0.16500   0.16606   0.00000  Uiso   1.00
C29    C     0.40649   0.34297   0.16650   0.00000  Uiso   1.00
C30    C     0.09329   0.15682   0.16660   0.00000  Uiso   1.00
C31    C     0.35057   0.08254   0.16464   0.00000  Uiso   1.00
C32    C     0.15031   0.41500   0.16606   0.00000  Uiso   1.00
C33    C     0.15649   0.09297   0.16650   0.00000  Uiso   1.00
C34    C     0.06283   0.30538   0.16618   0.00000  Uiso   1.00
C35    C     0.34329   0.40682   0.16660   0.00000  Uiso   1.00
C36    C     0.38832   0.17848   0.08184   0.00000  Uiso   1.00
C37    C     0.12227   0.31091   0.24284   0.00000  Uiso   1.00
C38    C     0.11112   0.32645   0.07974   0.00000  Uiso   1.00
C39    C     0.37656   0.17685   0.24524   0.00000  Uiso   1.00
C40    C     0.08074   0.12606   0.24752   0.00000  Uiso   1.00
C41    C     0.38340   0.32077   0.08714   0.00000  Uiso   1.00
C42    C     0.41766   0.37139   0.24745   0.00000  Uiso   1.00
C43    C     0.11644   0.18117   0.08687   0.00000  Uiso   1.00
C44    C     0.13832   0.42848   0.08184   0.00000  Uiso   1.00
C45    C     0.31000   0.43991   0.16668   0.00000  Uiso   1.00
C46    C     0.37227   0.06091   0.24284   0.00000  Uiso   1.00
C47    C     0.36112   0.07645   0.07974   0.00000  Uiso   1.00
C48    C     0.12656   0.42685   0.24524   0.00000  Uiso   1.00
C49    C     0.33074   0.37606   0.24752   0.00000  Uiso   1.00
C50    C     0.13340   0.07077   0.08714   0.00000  Uiso   1.00
C51    C     0.16766   0.12140   0.24745   0.00000  Uiso   1.00
C52    C     0.36644   0.43117   0.08687   0.00000  Uiso   1.00
C53    C     0.18990   0.05998   0.16662   0.00000  Uiso   1.00
C54    C     0.18734   0.44393   0.16670   0.00000  Uiso   1.00
C55    C     0.31283   0.05538   0.16618   0.00000  Uiso   1.00
C56    C     0.00127   0.29440   0.02400   0.00000  Uiso   1.00
H57    H     0.49708   0.39415   0.11408   0.00000  Uiso   1.00
H58    H     0.40821   0.16161   0.05730   0.00000  Uiso   1.00
H59    H     0.35846   0.18109   0.06697   0.00000  Uiso   1.00
H60    H     0.09441   0.30053   0.26040   0.00000  Uiso   1.00
H61    H     0.13477   0.27680   0.22915   0.00000  Uiso   1.00
H62    H     0.14329   0.32476   0.26815   0.00000  Uiso   1.00
H63    H     0.10058   0.28786   0.08335   0.00000  Uiso   1.00
H64    H     0.09136   0.34570   0.05665   0.00000  Uiso   1.00
H65    H     0.14085   0.32478   0.06390   0.00000  Uiso   1.00
H66    H     0.39784   0.20808   0.24955   0.00000  Uiso   1.00
H67    H     0.34718   0.19284   0.23926   0.00000  Uiso   1.00
H68    H     0.48090   0.11012   0.21924   0.00000  Uiso   1.00
H69    H     0.37454   0.15612   0.27725   0.00000  Uiso   1.00
H70    H     0.07361   0.16086   0.26428   0.00000  Uiso   1.00
H71    H     0.05488   0.10374   0.23688   0.00000  Uiso   1.00
H72    H     0.09472   0.10234   0.27302   0.00000  Uiso   1.00
H73    H     0.41177   0.31414   0.07021   0.00000  Uiso   1.00
H74    H     0.36963   0.28570   0.09948   0.00000  Uiso   1.00
H75    H     0.36318   0.33503   0.06132   0.00000  Uiso   1.00
H76    H     0.42471   0.33627   0.26436   0.00000  Uiso   1.00
H77    H     0.44356   0.39396   0.23647   0.00000  Uiso   1.00
H78    H     0.40336   0.39456   0.27287   0.00000  Uiso   1.00
H79    H     0.00255   0.10524   0.11687   0.00000  Uiso   1.00
H80    H     0.08820   0.18477   0.06913   0.00000  Uiso   1.00
H81    H     0.12723   0.21742   0.09895   0.00000  Uiso   1.00
H82    H     0.13860   0.16926   0.06198   0.00000  Uiso   1.00
H83    H     0.14851   0.46678   0.08712   0.00000  Uiso   1.00
H84    H     0.15821   0.41161   0.05730   0.00000  Uiso   1.00
H85    H     0.10846   0.43109   0.06697   0.00000  Uiso   1.00
H86    H     0.34441   0.05053   0.26040   0.00000  Uiso   1.00
H87    H     0.38477   0.02681   0.22915   0.00000  Uiso   1.00
H88    H     0.39328   0.07476   0.26815   0.00000  Uiso   1.00
H89    H     0.35058   0.03786   0.08335   0.00000  Uiso   1.00
H90    H     0.01818   0.39079   0.21588   0.00000  Uiso   1.00
H91    H     0.34137   0.09570   0.05665   0.00000  Uiso   1.00
H92    H     0.39085   0.07478   0.06390   0.00000  Uiso   1.00
H93    H     0.14784   0.45808   0.24956   0.00000  Uiso   1.00
H94    H     0.09719   0.44285   0.23926   0.00000  Uiso   1.00
H95    H     0.12454   0.40611   0.27725   0.00000  Uiso   1.00
H96    H     0.32361   0.41086   0.26428   0.00000  Uiso   1.00
H97    H     0.30488   0.35374   0.23688   0.00000  Uiso   1.00
H98    H     0.34471   0.35234   0.27302   0.00000  Uiso   1.00
H99    H     0.16177   0.06414   0.07021   0.00000  Uiso   1.00
H100   H     0.11963   0.03570   0.09948   0.00000  Uiso   1.00
H101   H     0.24708   0.14415   0.11408   0.00000  Uiso   1.00
H102   H     0.11318   0.08503   0.06132   0.00000  Uiso   1.00
H103   H     0.17471   0.08627   0.26436   0.00000  Uiso   1.00
H104   H     0.19356   0.14396   0.23647   0.00000  Uiso   1.00
H105   H     0.15336   0.14456   0.27287   0.00000  Uiso   1.00
H106   H     0.33820   0.43477   0.06913   0.00000  Uiso   1.00
H107   H     0.37723   0.46742   0.09895   0.00000  Uiso   1.00
H108   H     0.38860   0.41926   0.06198   0.00000  Uiso   1.00
H109   H     0.23090   0.36012   0.21924   0.00000  Uiso   1.00
H110   H     0.25255   0.35524   0.11687   0.00000  Uiso   1.00
H111   H     0.26818   0.14079   0.21588   0.00000  Uiso   1.00
H112   H     0.39851   0.21678   0.08712   0.00000  Uiso   1.00
N113   N     0.00000   0.25000   0.28573   0.00000  Uiso   1.00
N114   N     0.00000   0.25000   0.04760   0.00000  Uiso   1.00
N115   N     0.25000   0.00000   0.28573   0.00000  Uiso   1.00
N116   N     0.25000   0.00000   0.04760   0.00000  Uiso   1.00
O117   O     0.04581   0.20419   0.20487   0.00000  Uiso   1.00
O118   O     0.20420   0.04581   0.12846   0.00000  Uiso   1.00
O119   O     0.20420   0.04581   0.20487   0.00000  Uiso   1.00
O120   O     0.29581   0.45419   0.12846   0.00000  Uiso   1.00
O121   O     0.20420   0.45419   0.12846   0.00000  Uiso   1.00
O122   O     0.29581   0.04581   0.20487   0.00000  Uiso   1.00
O123   O     0.29581   0.04581   0.12846   0.00000  Uiso   1.00
O124   O     0.20420   0.45419   0.20487   0.00000  Uiso   1.00
O125   O     0.03145   0.38800   0.03541   0.00000  Uiso   1.00
O126   O     0.45978   0.37520   0.04085   0.00000  Uiso   1.00
O127   O     0.00221   0.35916   0.10781   0.00000  Uiso   1.00
O128   O     0.45420   0.29581   0.12846   0.00000  Uiso   1.00
O129   O     0.00965   0.10557   0.30169   0.00000  Uiso   1.00
O130   O     0.44396   0.13586   0.29086   0.00000  Uiso   1.00
O131   O     0.49505   0.14114   0.22754   0.00000  Uiso   1.00
O132   O     0.46744   0.11295   0.03931   0.00000  Uiso   1.00
O133   O     0.03942   0.12390   0.04214   0.00000  Uiso   1.00
O134   O     0.49820   0.14050   0.11024   0.00000  Uiso   1.00
O135   O     0.48869   0.39396   0.29880   0.00000  Uiso   1.00
O136   O     0.05526   0.36671   0.28745   0.00000  Uiso   1.00
O137   O     0.00452   0.35941   0.22500   0.00000  Uiso   1.00
O138   O     0.28145   0.13800   0.03541   0.00000  Uiso   1.00
O139   O     0.45420   0.29581   0.20487   0.00000  Uiso   1.00
O140   O     0.20978   0.12520   0.04085   0.00000  Uiso   1.00
O141   O     0.25221   0.10916   0.10781   0.00000  Uiso   1.00
O142   O     0.25965   0.35557   0.30169   0.00000  Uiso   1.00
O143   O     0.19396   0.38586   0.29086   0.00000  Uiso   1.00
O144   O     0.24505   0.39114   0.22754   0.00000  Uiso   1.00
O145   O     0.21744   0.36295   0.03932   0.00000  Uiso   1.00
O146   O     0.28942   0.37390   0.04214   0.00000  Uiso   1.00
O147   O     0.24820   0.39050   0.11024   0.00000  Uiso   1.00
O148   O     0.23869   0.14396   0.29880   0.00000  Uiso   1.00
O149   O     0.30526   0.11671   0.28745   0.00000  Uiso   1.00
O150   O     0.04581   0.20419   0.12846   0.00000  Uiso   1.00
O151   O     0.25452   0.10941   0.22500   0.00000  Uiso   1.00
O152   O     0.45420   0.20419   0.12846   0.00000  Uiso   1.00
O153   O     0.04581   0.29581   0.20487   0.00000  Uiso   1.00
O154   O     0.04581   0.29581   0.12846   0.00000  Uiso   1.00
O155   O     0.45420   0.20419   0.20487   0.00000  Uiso   1.00
O156   O     0.29581   0.45419   0.20487   0.00000  Uiso   1.00
S157   S     0.49890   0.35379   0.05252   0.00000  Uiso   1.00
S158   S     0.48696   0.14711   0.28223   0.00000  Uiso   1.00
S159   S     0.00078   0.14618   0.05472   0.00000  Uiso   1.00
S160   S     0.01251   0.35348   0.27975   0.00000  Uiso   1.00
S161   S     0.24890   0.10379   0.05252   0.00000  Uiso   1.00
S162   S     0.23696   0.39711   0.28223   0.00000  Uiso   1.00
S163   S     0.25078   0.39618   0.05472   0.00000  Uiso   1.00
S164   S     0.26251   0.10348   0.27975   0.00000  Uiso   1.00
Zn165  Zn    0.00000   0.25000   0.21771   0.00000  Uiso   1.00
Zn166  Zn    0.00000   0.25000   0.11563   0.00000  Uiso   1.00
Zn167  Zn    0.25000   0.00000   0.21771   0.00000  Uiso   1.00
Zn168  Zn    0.25000   0.00000   0.11563   0.00000  Uiso   1.00
C169   C     0.56000   0.18991   0.16668   0.00000  Uiso   1.00
C170   C     0.99770   0.20566   0.30979   0.00000  Uiso   1.00
C171   C     0.99889   0.20564   0.02499   0.00000  Uiso   1.00
C172   C     0.50253   0.29444   0.30875   0.00000  Uiso   1.00
C173   C     0.75127   0.04440   0.02400   0.00000  Uiso   1.00
C174   C     0.74770   0.45566   0.30979   0.00000  Uiso   1.00
C175   C     0.74889   0.45564   0.02499   0.00000  Uiso   1.00
C176   C     0.75253   0.04444   0.30875   0.00000  Uiso   1.00
C177   C     0.88558   0.14799   0.12467   0.00000  Uiso   1.00
C178   C     0.61712   0.34784   0.20508   0.00000  Uiso   1.00
C179   C     0.61448   0.35325   0.12382   0.00000  Uiso   1.00
C180   C     0.93990   0.30998   0.16662   0.00000  Uiso   1.00
C181   C     0.88621   0.14389   0.20643   0.00000  Uiso   1.00
C182   C     0.60616   0.13461   0.20664   0.00000  Uiso   1.00
C183   C     0.88705   0.35511   0.12632   0.00000  Uiso   1.00
C184   C     0.89283   0.36374   0.20664   0.00000  Uiso   1.00
C185   C     0.61348   0.14619   0.12644   0.00000  Uiso   1.00
C186   C     0.63558   0.39799   0.12467   0.00000  Uiso   1.00
C187   C     0.86712   0.09784   0.20508   0.00000  Uiso   1.00
C188   C     0.86448   0.10325   0.12382   0.00000  Uiso   1.00
C189   C     0.63621   0.39389   0.20643   0.00000  Uiso   1.00
C190   C     0.85616   0.38461   0.20664   0.00000  Uiso   1.00
C191   C     0.93734   0.19393   0.16670   0.00000  Uiso   1.00
C192   C     0.63705   0.10511   0.12632   0.00000  Uiso   1.00
C193   C     0.64283   0.11374   0.20664   0.00000  Uiso   1.00
C194   C     0.86348   0.39619   0.12644   0.00000  Uiso   1.00
C195   C     0.60057   0.33254   0.16464   0.00000  Uiso   1.00
C196   C     0.90031   0.16500   0.16606   0.00000  Uiso   1.00
C197   C     0.90649   0.34297   0.16650   0.00000  Uiso   1.00
C198   C     0.59329   0.15682   0.16660   0.00000  Uiso   1.00
C199   C     0.85057   0.08254   0.16464   0.00000  Uiso   1.00
C200   C     0.65031   0.41500   0.16606   0.00000  Uiso   1.00
C201   C     0.65649   0.09297   0.16650   0.00000  Uiso   1.00
C202   C     0.56283   0.30538   0.16618   0.00000  Uiso   1.00
C203   C     0.84329   0.40682   0.16660   0.00000  Uiso   1.00
C204   C     0.88832   0.17848   0.08184   0.00000  Uiso   1.00
C205   C     0.62227   0.31091   0.24284   0.00000  Uiso   1.00
C206   C     0.61112   0.32645   0.07974   0.00000  Uiso   1.00
C207   C     0.87656   0.17685   0.24524   0.00000  Uiso   1.00
C208   C     0.58074   0.12606   0.24752   0.00000  Uiso   1.00
C209   C     0.88340   0.32077   0.08714   0.00000  Uiso   1.00
C210   C     0.91766   0.37139   0.24745   0.00000  Uiso   1.00
C211   C     0.61644   0.18117   0.08687   0.00000  Uiso   1.00
C212   C     0.63832   0.42848   0.08184   0.00000  Uiso   1.00
C213   C     0.81000   0.43991   0.16668   0.00000  Uiso   1.00
C214   C     0.87227   0.06091   0.24284   0.00000  Uiso   1.00
C215   C     0.86112   0.07645   0.07974   0.00000  Uiso   1.00
C216   C     0.62656   0.42685   0.24524   0.00000  Uiso   1.00
C217   C     0.83074   0.37606   0.24752   0.00000  Uiso   1.00
C218   C     0.63340   0.07077   0.08714   0.00000  Uiso   1.00
C219   C     0.66766   0.12140   0.24745   0.00000  Uiso   1.00
C220   C     0.86644   0.43117   0.08687   0.00000  Uiso   1.00
C221   C     0.68990   0.05998   0.16662   0.00000  Uiso   1.00
C222   C     0.68734   0.44393   0.16670   0.00000  Uiso   1.00
C223   C     0.81283   0.05538   0.16618   0.00000  Uiso   1.00
C224   C     0.50127   0.29440   0.02400   0.00000  Uiso   1.00
H225   H     0.99708   0.39415   0.11408   0.00000  Uiso   1.00
H226   H     0.90821   0.16161   0.05730   0.00000  Uiso   1.00
H227   H     0.85846   0.18109   0.06697   0.00000  Uiso   1.00
H228   H     0.59441   0.30053   0.26040   0.00000  Uiso   1.00
H229   H     0.63477   0.27680   0.22915   0.00000  Uiso   1.00
H230   H     0.64329   0.32476   0.26815   0.00000  Uiso   1.00
H231   H     0.60058   0.28786   0.08335   0.00000  Uiso   1.00
H232   H     0.59136   0.34570   0.05665   0.00000  Uiso   1.00
H233   H     0.64085   0.32478   0.06390   0.00000  Uiso   1.00
H234   H     0.89784   0.20808   0.24955   0.00000  Uiso   1.00
H235   H     0.84718   0.19284   0.23926   0.00000  Uiso   1.00
H236   H     0.98090   0.11012   0.21924   0.00000  Uiso   1.00
H237   H     0.87454   0.15612   0.27725   0.00000  Uiso   1.00
H238   H     0.57361   0.16086   0.26428   0.00000  Uiso   1.00
H239   H     0.55488   0.10374   0.23688   0.00000  Uiso   1.00
H240   H     0.59472   0.10234   0.27302   0.00000  Uiso   1.00
H241   H     0.91177   0.31414   0.07021   0.00000  Uiso   1.00
H242   H     0.86963   0.28570   0.09948   0.00000  Uiso   1.00
H243   H     0.86318   0.33503   0.06132   0.00000  Uiso   1.00
H244   H     0.92471   0.33627   0.26436   0.00000  Uiso   1.00
H245   H     0.94356   0.39396   0.23647   0.00000  Uiso   1.00
H246   H     0.90336   0.39456   0.27287   0.00000  Uiso   1.00
H247   H     0.50255   0.10524   0.11687   0.00000  Uiso   1.00
H248   H     0.58820   0.18477   0.06913   0.00000  Uiso   1.00
H249   H     0.62723   0.21742   0.09895   0.00000  Uiso   1.00
H250   H     0.63860   0.16926   0.06198   0.00000  Uiso   1.00
H251   H     0.64851   0.46678   0.08712   0.00000  Uiso   1.00
H252   H     0.65821   0.41161   0.05730   0.00000  Uiso   1.00
H253   H     0.60846   0.43109   0.06697   0.00000  Uiso   1.00
H254   H     0.84441   0.05053   0.26040   0.00000  Uiso   1.00
H255   H     0.88477   0.02681   0.22915   0.00000  Uiso   1.00
H256   H     0.89328   0.07476   0.26815   0.00000  Uiso   1.00
H257   H     0.85058   0.03786   0.08335   0.00000  Uiso   1.00
H258   H     0.51818   0.39079   0.21588   0.00000  Uiso   1.00
H259   H     0.84137   0.09570   0.05665   0.00000  Uiso   1.00
H260   H     0.89085   0.07478   0.06390   0.00000  Uiso   1.00
H261   H     0.64784   0.45808   0.24956   0.00000  Uiso   1.00
H262   H     0.59719   0.44285   0.23926   0.00000  Uiso   1.00
H263   H     0.62454   0.40611   0.27725   0.00000  Uiso   1.00
H264   H     0.82361   0.41086   0.26428   0.00000  Uiso   1.00
H265   H     0.80488   0.35374   0.23688   0.00000  Uiso   1.00
H266   H     0.84471   0.35234   0.27302   0.00000  Uiso   1.00
H267   H     0.66177   0.06414   0.07021   0.00000  Uiso   1.00
H268   H     0.61963   0.03570   0.09948   0.00000  Uiso   1.00
H269   H     0.74708   0.14415   0.11408   0.00000  Uiso   1.00
H270   H     0.61318   0.08503   0.06132   0.00000  Uiso   1.00
H271   H     0.67471   0.08627   0.26436   0.00000  Uiso   1.00
H272   H     0.69356   0.14396   0.23647   0.00000  Uiso   1.00
H273   H     0.65336   0.14456   0.27287   0.00000  Uiso   1.00
H274   H     0.83820   0.43477   0.06913   0.00000  Uiso   1.00
H275   H     0.87723   0.46742   0.09895   0.00000  Uiso   1.00
H276   H     0.88860   0.41926   0.06198   0.00000  Uiso   1.00
H277   H     0.73090   0.36012   0.21924   0.00000  Uiso   1.00
H278   H     0.75255   0.35524   0.11687   0.00000  Uiso   1.00
H279   H     0.76818   0.14079   0.21588   0.00000  Uiso   1.00
H280   H     0.89851   0.21678   0.08712   0.00000  Uiso   1.00
N281   N     0.50000   0.25000   0.28573   0.00000  Uiso   1.00
N282   N     0.50000   0.25000   0.04760   0.00000  Uiso   1.00
N283   N     0.75000   0.00000   0.28573   0.00000  Uiso   1.00
N284   N     0.75000   0.00000   0.04760   0.00000  Uiso   1.00
O285   O     0.54581   0.20419   0.20487   0.00000  Uiso   1.00
O286   O     0.70420   0.04581   0.12846   0.00000  Uiso   1.00
O287   O     0.70420   0.04581   0.20487   0.00000  Uiso   1.00
O288   O     0.79581   0.45419   0.12846   0.00000  Uiso   1.00
O289   O     0.70420   0.45419   0.12846   0.00000  Uiso   1.00
O290   O     0.79581   0.04581   0.20487   0.00000  Uiso   1.00
O291   O     0.79581   0.04581   0.12846   0.00000  Uiso   1.00
O292   O     0.70420   0.45419   0.20487   0.00000  Uiso   1.00
O293   O     0.53145   0.38800   0.03541   0.00000  Uiso   1.00
O294   O     0.95978   0.37520   0.04085   0.00000  Uiso   1.00
O295   O     0.50221   0.35916   0.10781   0.00000  Uiso   1.00
O296   O     0.95420   0.29581   0.12846   0.00000  Uiso   1.00
O297   O     0.50965   0.10557   0.30169   0.00000  Uiso   1.00
O298   O     0.94396   0.13586   0.29086   0.00000  Uiso   1.00
O299   O     0.99505   0.14114   0.22754   0.00000  Uiso   1.00
O300   O     0.96744   0.11295   0.03931   0.00000  Uiso   1.00
O301   O     0.53942   0.12390   0.04214   0.00000  Uiso   1.00
O302   O     0.99820   0.14050   0.11024   0.00000  Uiso   1.00
O303   O     0.98869   0.39396   0.29880   0.00000  Uiso   1.00
O304   O     0.55526   0.36671   0.28745   0.00000  Uiso   1.00
O305   O     0.50452   0.35941   0.22500   0.00000  Uiso   1.00
O306   O     0.78145   0.13800   0.03541   0.00000  Uiso   1.00
O307   O     0.95420   0.29581   0.20487   0.00000  Uiso   1.00
O308   O     0.70978   0.12520   0.04085   0.00000  Uiso   1.00
O309   O     0.75221   0.10916   0.10781   0.00000  Uiso   1.00
O310   O     0.75965   0.35557   0.30169   0.00000  Uiso   1.00
O311   O     0.69396   0.38586   0.29086   0.00000  Uiso   1.00
O312   O     0.74505   0.39114   0.22754   0.00000  Uiso   1.00
O313   O     0.71744   0.36295   0.03932   0.00000  Uiso   1.00
O314   O     0.78942   0.37390   0.04214   0.00000  Uiso   1.00
O315   O     0.74820   0.39050   0.11024   0.00000  Uiso   1.00
O316   O     0.73869   0.14396   0.29880   0.00000  Uiso   1.00
O317   O     0.80526   0.11671   0.28745   0.00000  Uiso   1.00
O318   O     0.54581   0.20419   0.12846   0.00000  Uiso   1.00
O319   O     0.75452   0.10941   0.22500   0.00000  Uiso   1.00
O320   O     0.95420   0.20419   0.12846   0.00000  Uiso   1.00
O321   O     0.54581   0.29581   0.20487   0.00000  Uiso   1.00
O322   O     0.54581   0.29581   0.12846   0.00000  Uiso   1.00
O323   O     0.95420   0.20419   0.20487   0.00000  Uiso   1.00
O324   O     0.79581   0.45419   0.20487   0.00000  Uiso   1.00
S325   S     0.99890   0.35379   0.05252   0.00000  Uiso   1.00
S326   S     0.98696   0.14711   0.28223   0.00000  Uiso   1.00
S327   S     0.50078   0.14618   0.05472   0.00000  Uiso   1.00
S328   S     0.51251   0.35348   0.27975   0.00000  Uiso   1.00
S329   S     0.74890   0.10379   0.05252   0.00000  Uiso   1.00
S330   S     0.73696   0.39711   0.28223   0.00000  Uiso   1.00
S331   S     0.75078   0.39618   0.05472   0.00000  Uiso   1.00
S332   S     0.76251   0.10348   0.27975   0.00000  Uiso   1.00
Zn333  Zn    0.50000   0.25000   0.21771   0.00000  Uiso   1.00
Zn334  Zn    0.50000   0.25000   0.11563   0.00000  Uiso   1.00
Zn335  Zn    0.75000   0.00000   0.21771   0.00000  Uiso   1.00
Zn336  Zn    0.75000   0.00000   0.11563   0.00000  Uiso   1.00
C337   C     0.06000   0.68991   0.16668   0.00000  Uiso   1.00
C338   C     0.49770   0.70566   0.30979   0.00000  Uiso   1.00
C339   C     0.49889   0.70564   0.02499   0.00000  Uiso   1.00
C340   C     0.00253   0.79444   0.30875   0.00000  Uiso   1.00
C341   C     0.25127   0.54440   0.02400   0.00000  Uiso   1.00
C342   C     0.24770   0.95566   0.30979   0.00000  Uiso   1.00
C343   C     0.24889   0.95564   0.02499   0.00000  Uiso   1.00
C344   C     0.25253   0.54444   0.30875   0.00000  Uiso   1.00
C345   C     0.38558   0.64799   0.12467   0.00000  Uiso   1.00
C346   C     0.11712   0.84784   0.20508   0.00000  Uiso   1.00
C347   C     0.11448   0.85325   0.12382   0.00000  Uiso   1.00
C348   C     0.43990   0.80998   0.16662   0.00000  Uiso   1.00
C349   C     0.38621   0.64389   0.20643   0.00000  Uiso   1.00
C350   C     0.10616   0.63461   0.20664   0.00000  Uiso   1.00
C351   C     0.38705   0.85511   0.12632   0.00000  Uiso   1.00
C352   C     0.39283   0.86374   0.20664   0.00000  Uiso   1.00
C353   C     0.11348   0.64619   0.12644   0.00000  Uiso   1.00
C354   C     0.13558   0.89799   0.12467   0.00000  Uiso   1.00
C355   C     0.36712   0.59784   0.20508   0.00000  Uiso   1.00
C356   C     0.36448   0.60325   0.12382   0.00000  Uiso   1.00
C357   C     0.13621   0.89389   0.20643   0.00000  Uiso   1.00
C358   C     0.35616   0.88461   0.20664   0.00000  Uiso   1.00
C359   C     0.43734   0.69393   0.16670   0.00000  Uiso   1.00
C360   C     0.13705   0.60511   0.12632   0.00000  Uiso   1.00
C361   C     0.14283   0.61374   0.20664   0.00000  Uiso   1.00
C362   C     0.36348   0.89619   0.12644   0.00000  Uiso   1.00
C363   C     0.10057   0.83254   0.16464   0.00000  Uiso   1.00
C364   C     0.40031   0.66500   0.16606   0.00000  Uiso   1.00
C365   C     0.40649   0.84297   0.16650   0.00000  Uiso   1.00
C366   C     0.09329   0.65682   0.16660   0.00000  Uiso   1.00
C367   C     0.35057   0.58254   0.16464   0.00000  Uiso   1.00
C368   C     0.15031   0.91500   0.16606   0.00000  Uiso   1.00
C369   C     0.15649   0.59297   0.16650   0.00000  Uiso   1.00
C370   C     0.06283   0.80538   0.16618   0.00000  Uiso   1.00
C371   C     0.34329   0.90682   0.16660   0.00000  Uiso   1.00
C372   C     0.38832   0.67848   0.08184   0.00000  Uiso   1.00
C373   C     0.12227   0.81091   0.24284   0.00000  Uiso   1.00
C374   C     0.11112   0.82645   0.07974   0.00000  Uiso   1.00
C375   C     0.37656   0.67685   0.24524   0.00000  Uiso   1.00
C376   C     0.08074   0.62606   0.24752   0.00000  Uiso   1.00
C377   C     0.38340   0.82077   0.08714   0.00000  Uiso   1.00
C378   C     0.41766   0.87139   0.24745   0.00000  Uiso   1.00
C379   C     0.11644   0.68117   0.08687   0.00000  Uiso   1.00
C380   C     0.13832   0.92848   0.08184   0.00000  Uiso   1.00
C381   C     0.31000   0.93991   0.16668   0.00000  Uiso   1.00
C382   C     0.37227   0.56091   0.24284   0.00000  Uiso   1.00
C383   C     0.36112   0.57645   0.07974   0.00000  Uiso   1.00
C384   C     0.12656   0.92685   0.24524   0.00000  Uiso   1.00
C385   C     0.33074   0.87606   0.24752   0.00000  Uiso   1.00
C386   C     0.13340   0.57077   0.08714   0.00000  Uiso   1.00
C387   C     0.16766   0.62140   0.24745   0.00000  Uiso   1.00
C388   C     0.36644   0.93117   0.08687   0.00000  Uiso   1.00
C389   C     0.18990   0.55998   0.16662   0.00000  Uiso   1.00
C390   C     0.18734   0.94393   0.16670   0.00000  Uiso   1.00
C391   C     0.31283   0.55538   0.16618   0.00000  Uiso   1.00
C392   C     0.00127   0.79440   0.02400   0.00000  Uiso   1.00
H393   H     0.49708   0.89415   0.11408   0.00000  Uiso   1.00
H394   H     0.40821   0.66161   0.05730   0.00000  Uiso   1.00
H395   H     0.35846   0.68109   0.06697   0.00000  Uiso   1.00
H396   H     0.09441   0.80053   0.26040   0.00000  Uiso   1.00
H397   H     0.13477   0.77680   0.22915   0.00000  Uiso   1.00
H398   H     0.14329   0.82476   0.26815   0.00000  Uiso   1.00
H399   H     0.10058   0.78786   0.08335   0.00000  Uiso   1.00
H400   H     0.09136   0.84570   0.05665   0.00000  Uiso   1.00
H401   H     0.14085   0.82478   0.06390   0.00000  Uiso   1.00
H402   H     0.39784   0.70808   0.24955   0.00000  Uiso   1.00
H403   H     0.34718   0.69284   0.23926   0.00000  Uiso   1.00
H404   H     0.48090   0.61012   0.21924   0.00000  Uiso   1.00
H405   H     0.37454   0.65612   0.27725   0.00000  Uiso   1.00
H406   H     0.07361   0.66086   0.26428   0.00000  Uiso   1.00
H407   H     0.05488   0.60374   0.23688   0.00000  Uiso   1.00
H408   H     0.09472   0.60234   0.27302   0.00000  Uiso   1.00
H409   H     0.41177   0.81414   0.07021   0.00000  Uiso   1.00
H410   H     0.36963   0.78570   0.09948   0.00000  Uiso   1.00
H411   H     0.36318   0.83503   0.06132   0.00000  Uiso   1.00
H412   H     0.42471   0.83627   0.26436   0.00000  Uiso   1.00
H413   H     0.44356   0.89396   0.23647   0.00000  Uiso   1.00
H414   H     0.40336   0.89456   0.27287   0.00000  Uiso   1.00
H415   H     0.00255   0.60524   0.11687   0.00000  Uiso   1.00
H416   H     0.08820   0.68477   0.06913   0.00000  Uiso   1.00
H417   H     0.12723   0.71742   0.09895   0.00000  Uiso   1.00
H418   H     0.13860   0.66926   0.06198   0.00000  Uiso   1.00
H419   H     0.14851   0.96678   0.08712   0.00000  Uiso   1.00
H420   H     0.15821   0.91161   0.05730   0.00000  Uiso   1.00
H421   H     0.10846   0.93109   0.06697   0.00000  Uiso   1.00
H422   H     0.34441   0.55053   0.26040   0.00000  Uiso   1.00
H423   H     0.38477   0.52681   0.22915   0.00000  Uiso   1.00
H424   H     0.39328   0.57476   0.26815   0.00000  Uiso   1.00
H425   H     0.35058   0.53786   0.08335   0.00000  Uiso   1.00
H426   H     0.01818   0.89079   0.21588   0.00000  Uiso   1.00
H427   H     0.34137   0.59570   0.05665   0.00000  Uiso   1.00
H428   H     0.39085   0.57478   0.06390   0.00000  Uiso   1.00
H429   H     0.14784   0.95808   0.24956   0.00000  Uiso   1.00
H430   H     0.09719   0.94285   0.23926   0.00000  Uiso   1.00
H431   H     0.12454   0.90611   0.27725   0.00000  Uiso   1.00
H432   H     0.32361   0.91086   0.26428   0.00000  Uiso   1.00
H433   H     0.30488   0.85374   0.23688   0.00000  Uiso   1.00
H434   H     0.34471   0.85234   0.27302   0.00000  Uiso   1.00
H435   H     0.16177   0.56414   0.07021   0.00000  Uiso   1.00
H436   H     0.11963   0.53570   0.09948   0.00000  Uiso   1.00
H437   H     0.24708   0.64415   0.11408   0.00000  Uiso   1.00
H438   H     0.11318   0.58503   0.06132   0.00000  Uiso   1.00
H439   H     0.17471   0.58627   0.26436   0.00000  Uiso   1.00
H440   H     0.19356   0.64396   0.23647   0.00000  Uiso   1.00
H441   H     0.15336   0.64456   0.27287   0.00000  Uiso   1.00
H442   H     0.33820   0.93477   0.06913   0.00000  Uiso   1.00
H443   H     0.37723   0.96742   0.09895   0.00000  Uiso   1.00
H444   H     0.38860   0.91926   0.06198   0.00000  Uiso   1.00
H445   H     0.23090   0.86012   0.21924   0.00000  Uiso   1.00
H446   H     0.25255   0.85524   0.11687   0.00000  Uiso   1.00
H447   H     0.26818   0.64079   0.21588   0.00000  Uiso   1.00
H448   H     0.39851   0.71678   0.08712   0.00000  Uiso   1.00
N449   N     0.00000   0.75000   0.28573   0.00000  Uiso   1.00
N450   N     0.00000   0.75000   0.04760   0.00000  Uiso   1.00
N451   N     0.25000   0.50000   0.28573   0.00000  Uiso   1.00
N452   N     0.25000   0.50000   0.04760   0.00000  Uiso   1.00
O453   O     0.04581   0.70419   0.20487   0.00000  Uiso   1.00
O454   O     0.20420   0.54581   0.12846   0.00000  Uiso   1.00
O455   O     0.20420   0.54581   0.20487   0.00000  Uiso   1.00
O456   O     0.29581   0.95419   0.12846   0.00000  Uiso   1.00
O457   O     0.20420   0.95419   0.12846   0.00000  Uiso   1.00
O458   O     0.29581   0.54581   0.20487   0.00000  Uiso   1.00
O459   O     0.29581   0.54581   0.12846   0.00000  Uiso   1.00
O460   O     0.20420   0.95419   0.20487   0.00000  Uiso   1.00
O461   O     0.03145   0.88800   0.03541   0.00000  Uiso   1.00
O462   O     0.45978   0.87520   0.04085   0.00000  Uiso   1.00
O463   O     0.00221   0.85916   0.10781   0.00000  Uiso   1.00
O464   O     0.45420   0.79581   0.12846   0.00000  Uiso   1.00
O465   O     0.00965   0.60557   0.30169   0.00000  Uiso   1.00
O466   O     0.44396   0.63586   0.29086   0.00000  Uiso   1.00
O467   O     0.49505   0.64114   0.22754   0.00000  Uiso   1.00
O468   O     0.46744   0.61295   0.03931   0.00000  Uiso   1.00
O469   O     0.03942   0.62390   0.04214   0.00000  Uiso   1.00
O470   O     0.49820   0.64050   0.11024   0.00000  Uiso   1.00
O471   O     0.48869   0.89396   0.29880   0.00000  Uiso   1.00
O472   O     0.05526   0.86671   0.28745   0.00000  Uiso   1.00
O473   O     0.00452   0.85941   0.22500   0.00000  Uiso   1.00
O474   O     0.28145   0.63800   0.03541   0.00000  Uiso   1.00
O475   O     0.45420   0.79581   0.20487   0.00000  Uiso   1.00
O476   O     0.20978   0.62520   0.04085   0.00000  Uiso   1.00
O477   O     0.25221   0.60916   0.10781   0.00000  Uiso   1.00
O478   O     0.25965   0.85557   0.30169   0.00000  Uiso   1.00
O479   O     0.19396   0.88586   0.29086   0.00000  Uiso   1.00
O480   O     0.24505   0.89114   0.22754   0.00000  Uiso   1.00
O481   O     0.21744   0.86295   0.03932   0.00000  Uiso   1.00
O482   O     0.28942   0.87390   0.04214   0.00000  Uiso   1.00
O483   O     0.24820   0.89050   0.11024   0.00000  Uiso   1.00
O484   O     0.23869   0.64396   0.29880   0.00000  Uiso   1.00
O485   O     0.30526   0.61671   0.28745   0.00000  Uiso   1.00
O486   O     0.04581   0.70419   0.12846   0.00000  Uiso   1.00
O487   O     0.25452   0.60941   0.22500   0.00000  Uiso   1.00
O488   O     0.45420   0.70419   0.12846   0.00000  Uiso   1.00
O489   O     0.04581   0.79581   0.20487   0.00000  Uiso   1.00
O490   O     0.04581   0.79581   0.12846   0.00000  Uiso   1.00
O491   O     0.45420   0.70419   0.20487   0.00000  Uiso   1.00
O492   O     0.29581   0.95419   0.20487   0.00000  Uiso   1.00
S493   S     0.49890   0.85379   0.05252   0.00000  Uiso   1.00
S494   S     0.48696   0.64711   0.28223   0.00000  Uiso   1.00
S495   S     0.00078   0.64618   0.05472   0.00000  Uiso   1.00
S496   S     0.01251   0.85348   0.27975   0.00000  Uiso   1.00
S497   S     0.24890   0.60379   0.05252   0.00000  Uiso   1.00
S498   S     0.23696   0.89711   0.28223   0.00000  Uiso   1.00
S499   S     0.25078   0.89618   0.05472   0.00000  Uiso   1.00
S500   S     0.26251   0.60348   0.27975   0.00000  Uiso   1.00
Zn501  Zn    0.00000   0.75000   0.21771   0.00000  Uiso   1.00
Zn502  Zn    0.00000   0.75000   0.11563   0.00000  Uiso   1.00
Zn503  Zn    0.25000   0.50000   0.21771   0.00000  Uiso   1.00
Zn504  Zn    0.25000   0.50000   0.11563   0.00000  Uiso   1.00
C505   C     0.56000   0.68991   0.16668   0.00000  Uiso   1.00
C506   C     0.99770   0.70566   0.30979   0.00000  Uiso   1.00
C507   C     0.99889   0.70564   0.02499   0.00000  Uiso   1.00
C508   C     0.50253   0.79444   0.30875   0.00000  Uiso   1.00
C509   C     0.75127   0.54440   0.02400   0.00000  Uiso   1.00
C510   C     0.74770   0.95566   0.30979   0.00000  Uiso   1.00
C511   C     0.74889   0.95564   0.02499   0.00000  Uiso   1.00
C512   C     0.75253   0.54444   0.30875   0.00000  Uiso   1.00
C513   C     0.88558   0.64799   0.12467   0.00000  Uiso   1.00
C514   C     0.61712   0.84784   0.20508   0.00000  Uiso   1.00
C515   C     0.61448   0.85325   0.12382   0.00000  Uiso   1.00
C516   C     0.93990   0.80998   0.16662   0.00000  Uiso   1.00
C517   C     0.88621   0.64389   0.20643   0.00000  Uiso   1.00
C518   C     0.60616   0.63461   0.20664   0.00000  Uiso   1.00
C519   C     0.88705   0.85511   0.12632   0.00000  Uiso   1.00
C520   C     0.89283   0.86374   0.20664   0.00000  Uiso   1.00
C521   C     0.61348   0.64619   0.12644   0.00000  Uiso   1.00
C522   C     0.63558   0.89799   0.12467   0.00000  Uiso   1.00
C523   C     0.86712   0.59784   0.20508   0.00000  Uiso   1.00
C524   C     0.86448   0.60325   0.12382   0.00000  Uiso   1.00
C525   C     0.63621   0.89389   0.20643   0.00000  Uiso   1.00
C526   C     0.85616   0.88461   0.20664   0.00000  Uiso   1.00
C527   C     0.93734   0.69393   0.16670   0.00000  Uiso   1.00
C528   C     0.63705   0.60511   0.12632   0.00000  Uiso   1.00
C529   C     0.64283   0.61374   0.20664   0.00000  Uiso   1.00
C530   C     0.86348   0.89619   0.12644   0.00000  Uiso   1.00
C531   C     0.60057   0.83254   0.16464   0.00000  Uiso   1.00
C532   C     0.90031   0.66500   0.16606   0.00000  Uiso   1.00
C533   C     0.90649   0.84297   0.16650   0.00000  Uiso   1.00
C534   C     0.59329   0.65682   0.16660   0.00000  Uiso   1.00
C535   C     0.85057   0.58254   0.16464   0.00000  Uiso   1.00
C536   C     0.65031   0.91500   0.16606   0.00000  Uiso   1.00
C537   C     0.65649   0.59297   0.16650   0.00000  Uiso   1.00
C538   C     0.56283   0.80538   0.16618   0.00000  Uiso   1.00
C539   C     0.84329   0.90682   0.16660   0.00000  Uiso   1.00
C540   C     0.88832   0.67848   0.08184   0.00000  Uiso   1.00
C541   C     0.62227   0.81091   0.24284   0.00000  Uiso   1.00
C542   C     0.61112   0.82645   0.07974   0.00000  Uiso   1.00
C543   C     0.87656   0.67685   0.24524   0.00000  Uiso   1.00
C544   C     0.58074   0.62606   0.24752   0.00000  Uiso   1.00
C545   C     0.88340   0.82077   0.08714   0.00000  Uiso   1.00
C546   C     0.91766   0.87139   0.24745   0.00000  Uiso   1.00
C547   C     0.61644   0.68117   0.08687   0.00000  Uiso   1.00
C548   C     0.63832   0.92848   0.08184   0.00000  Uiso   1.00
C549   C     0.81000   0.93991   0.16668   0.00000  Uiso   1.00
C550   C     0.87227   0.56091   0.24284   0.00000  Uiso   1.00
C551   C     0.86112   0.57645   0.07974   0.00000  Uiso   1.00
C552   C     0.62656   0.92685   0.24524   0.00000  Uiso   1.00
C553   C     0.83074   0.87606   0.24752   0.00000  Uiso   1.00
C554   C     0.63340   0.57077   0.08714   0.00000  Uiso   1.00
C555   C     0.66766   0.62140   0.24745   0.00000  Uiso   1.00
C556   C     0.86644   0.93117   0.08687   0.00000  Uiso   1.00
C557   C     0.68990   0.55998   0.16662   0.00000  Uiso   1.00
C558   C     0.68734   0.94393   0.16670   0.00000  Uiso   1.00
C559   C     0.81283   0.55538   0.16618   0.00000  Uiso   1.00
C560   C     0.50127   0.79440   0.02400   0.00000  Uiso   1.00
H561   H     0.99708   0.89415   0.11408   0.00000  Uiso   1.00
H562   H     0.90821   0.66161   0.05730   0.00000  Uiso   1.00
H563   H     0.85846   0.68109   0.06697   0.00000  Uiso   1.00
H564   H     0.59441   0.80053   0.26040   0.00000  Uiso   1.00
H565   H     0.63477   0.77680   0.22915   0.00000  Uiso   1.00
H566   H     0.64329   0.82476   0.26815   0.00000  Uiso   1.00
H567   H     0.60058   0.78786   0.08335   0.00000  Uiso   1.00
H568   H     0.59136   0.84570   0.05665   0.00000  Uiso   1.00
H569   H     0.64085   0.82478   0.06390   0.00000  Uiso   1.00
H570   H     0.89784   0.70808   0.24955   0.00000  Uiso   1.00
H571   H     0.84718   0.69284   0.23926   0.00000  Uiso   1.00
H572   H     0.98090   0.61012   0.21924   0.00000  Uiso   1.00
H573   H     0.87454   0.65612   0.27725   0.00000  Uiso   1.00
H574   H     0.57361   0.66086   0.26428   0.00000  Uiso   1.00
H575   H     0.55488   0.60374   0.23688   0.00000  Uiso   1.00
H576   H     0.59472   0.60234   0.27302   0.00000  Uiso   1.00
H577   H     0.91177   0.81414   0.07021   0.00000  Uiso   1.00
H578   H     0.86963   0.78570   0.09948   0.00000  Uiso   1.00
H579   H     0.86318   0.83503   0.06132   0.00000  Uiso   1.00
H580   H     0.92471   0.83627   0.26436   0.00000  Uiso   1.00
H581   H     0.94356   0.89396   0.23647   0.00000  Uiso   1.00
H582   H     0.90336   0.89456   0.27287   0.00000  Uiso   1.00
H583   H     0.50255   0.60524   0.11687   0.00000  Uiso   1.00
H584   H     0.58820   0.68477   0.06913   0.00000  Uiso   1.00
H585   H     0.62723   0.71742   0.09895   0.00000  Uiso   1.00
H586   H     0.63860   0.66926   0.06198   0.00000  Uiso   1.00
H587   H     0.64851   0.96678   0.08712   0.00000  Uiso   1.00
H588   H     0.65821   0.91161   0.05730   0.00000  Uiso   1.00
H589   H     0.60846   0.93109   0.06697   0.00000  Uiso   1.00
H590   H     0.84441   0.55053   0.26040   0.00000  Uiso   1.00
H591   H     0.88477   0.52681   0.22915   0.00000  Uiso   1.00
H592   H     0.89328   0.57476   0.26815   0.00000  Uiso   1.00
H593   H     0.85058   0.53786   0.08335   0.00000  Uiso   1.00
H594   H     0.51818   0.89079   0.21588   0.00000  Uiso   1.00
H595   H     0.84137   0.59570   0.05665   0.00000  Uiso   1.00
H596   H     0.89085   0.57478   0.06390   0.00000  Uiso   1.00
H597   H     0.64784   0.95808   0.24956   0.00000  Uiso   1.00
H598   H     0.59719   0.94285   0.23926   0.00000  Uiso   1.00
H599   H     0.62454   0.90611   0.27725   0.00000  Uiso   1.00
H600   H     0.82361   0.91086   0.26428   0.00000  Uiso   1.00
H601   H     0.80488   0.85374   0.23688   0.00000  Uiso   1.00
H602   H     0.84471   0.85234   0.27302   0.00000  Uiso   1.00
H603   H     0.66177   0.56414   0.07021   0.00000  Uiso   1.00
H604   H     0.61963   0.53570   0.09948   0.00000  Uiso   1.00
H605   H     0.74708   0.64415   0.11408   0.00000  Uiso   1.00
H606   H     0.61318   0.58503   0.06132   0.00000  Uiso   1.00
H607   H     0.67471   0.58627   0.26436   0.00000  Uiso   1.00
H608   H     0.69356   0.64396   0.23647   0.00000  Uiso   1.00
H609   H     0.65336   0.64456   0.27287   0.00000  Uiso   1.00
H610   H     0.83820   0.93477   0.06913   0.00000  Uiso   1.00
H611   H     0.87723   0.96742   0.09895   0.00000  Uiso   1.00
H612   H     0.88860   0.91926   0.06198   0.00000  Uiso   1.00
H613   H     0.73090   0.86012   0.21924   0.00000  Uiso   1.00
H614   H     0.75255   0.85524   0.11687   0.00000  Uiso   1.00
H615   H     0.76818   0.64079   0.21588   0.00000  Uiso   1.00
H616   H     0.89851   0.71678   0.08712   0.00000  Uiso   1.00
N617   N     0.50000   0.75000   0.28573   0.00000  Uiso   1.00
N618   N     0.50000   0.75000   0.04760   0.00000  Uiso   1.00
N619   N     0.75000   0.50000   0.28573   0.00000  Uiso   1.00
N620   N     0.75000   0.50000   0.04760   0.00000  Uiso   1.00
O621   O     0.54581   0.70419   0.20487   0.00000  Uiso   1.00
O622   O     0.70420   0.54581   0.12846   0.00000  Uiso   1.00
O623   O     0.70420   0.54581   0.20487   0.00000  Uiso   1.00
O624   O     0.79581   0.95419   0.12846   0.00000  Uiso   1.00
O625   O     0.70420   0.95419   0.12846   0.00000  Uiso   1.00
O626   O     0.79581   0.54581   0.20487   0.00000  Uiso   1.00
O627   O     0.79581   0.54581   0.12846   0.00000  Uiso   1.00
O628   O     0.70420   0.95419   0.20487   0.00000  Uiso   1.00
O629   O     0.53145   0.88800   0.03541   0.00000  Uiso   1.00
O630   O     0.95978   0.87520   0.04085   0.00000  Uiso   1.00
O631   O     0.50221   0.85916   0.10781   0.00000  Uiso   1.00
O632   O     0.95420   0.79581   0.12846   0.00000  Uiso   1.00
O633   O     0.50965   0.60557   0.30169   0.00000  Uiso   1.00
O634   O     0.94396   0.63586   0.29086   0.00000  Uiso   1.00
O635   O     0.99505   0.64114   0.22754   0.00000  Uiso   1.00
O636   O     0.96744   0.61295   0.03931   0.00000  Uiso   1.00
O637   O     0.53942   0.62390   0.04214   0.00000  Uiso   1.00
O638   O     0.99820   0.64050   0.11024   0.00000  Uiso   1.00
O639   O     0.98869   0.89396   0.29880   0.00000  Uiso   1.00
O640   O     0.55526   0.86671   0.28745   0.00000  Uiso   1.00
O641   O     0.50452   0.85941   0.22500   0.00000  Uiso   1.00
O642   O     0.78145   0.63800   0.03541   0.00000  Uiso   1.00
O643   O     0.95420   0.79581   0.20487   0.00000  Uiso   1.00
O644   O     0.70978   0.62520   0.04085   0.00000  Uiso   1.00
O645   O     0.75221   0.60916   0.10781   0.00000  Uiso   1.00
O646   O     0.75965   0.85557   0.30169   0.00000  Uiso   1.00
O647   O     0.69396   0.88586   0.29086   0.00000  Uiso   1.00
O648   O     0.74505   0.89114   0.22754   0.00000  Uiso   1.00
O649   O     0.71744   0.86295   0.03932   0.00000  Uiso   1.00
O650   O     0.78942   0.87390   0.04214   0.00000  Uiso   1.00
O651   O     0.74820   0.89050   0.11024   0.00000  Uiso   1.00
O652   O     0.73869   0.64396   0.29880   0.00000  Uiso   1.00
O653   O     0.80526   0.61671   0.28745   0.00000  Uiso   1.00
O654   O     0.54581   0.70419   0.12846   0.00000  Uiso   1.00
O655   O     0.75452   0.60941   0.22500   0.00000  Uiso   1.00
O656   O     0.95420   0.70419   0.12846   0.00000  Uiso   1.00
O657   O     0.54581   0.79581   0.20487   0.00000  Uiso   1.00
O658   O     0.54581   0.79581   0.12846   0.00000  Uiso   1.00
O659   O     0.95420   0.70419   0.20487   0.00000  Uiso   1.00
O660   O     0.79581   0.95419   0.20487   0.00000  Uiso   1.00
S661   S     0.99890   0.85379   0.05252   0.00000  Uiso   1.00
S662   S     0.98696   0.64711   0.28223   0.00000  Uiso   1.00
S663   S     0.50078   0.64618   0.05472   0.00000  Uiso   1.00
S664   S     0.51251   0.85348   0.27975   0.00000  Uiso   1.00
S665   S     0.74890   0.60379   0.05252   0.00000  Uiso   1.00
S666   S     0.73696   0.89711   0.28223   0.00000  Uiso   1.00
S667   S     0.75078   0.89618   0.05472   0.00000  Uiso   1.00
S668   S     0.76251   0.60348   0.27975   0.00000  Uiso   1.00
Zn669  Zn    0.50000   0.75000   0.21771   0.00000  Uiso   1.00
Zn670  Zn    0.50000   0.75000   0.11563   0.00000  Uiso   1.00
Zn671  Zn    0.75000   0.50000   0.21771   0.00000  Uiso   1.00
Zn672  Zn    0.75000   0.50000   0.11563   0.00000  Uiso   1.00
C673   C     0.06000   0.18991   0.50001   0.00000  Uiso   1.00
C674   C     0.49770   0.20566   0.64312   0.00000  Uiso   1.00
C675   C     0.49889   0.20564   0.35833   0.00000  Uiso   1.00
C676   C     0.00253   0.29444   0.64208   0.00000  Uiso   1.00
C677   C     0.25127   0.04440   0.35733   0.00000  Uiso   1.00
C678   C     0.24770   0.45566   0.64312   0.00000  Uiso   1.00
C679   C     0.24889   0.45564   0.35833   0.00000  Uiso   1.00
C680   C     0.25253   0.04444   0.64208   0.00000  Uiso   1.00
C681   C     0.38558   0.14799   0.45800   0.00000  Uiso   1.00
C682   C     0.11712   0.34784   0.53841   0.00000  Uiso   1.00
C683   C     0.11448   0.35325   0.45715   0.00000  Uiso   1.00
C684   C     0.43990   0.30998   0.49995   0.00000  Uiso   1.00
C685   C     0.38621   0.14389   0.53977   0.00000  Uiso   1.00
C686   C     0.10616   0.13461   0.53997   0.00000  Uiso   1.00
C687   C     0.38705   0.35511   0.45965   0.00000  Uiso   1.00
C688   C     0.39283   0.36374   0.53997   0.00000  Uiso   1.00
C689   C     0.11348   0.14619   0.45978   0.00000  Uiso   1.00
C690   C     0.13558   0.39799   0.45800   0.00000  Uiso   1.00
C691   C     0.36712   0.09784   0.53841   0.00000  Uiso   1.00
C692   C     0.36448   0.10325   0.45715   0.00000  Uiso   1.00
C693   C     0.13621   0.39389   0.53977   0.00000  Uiso   1.00
C694   C     0.35616   0.38461   0.53997   0.00000  Uiso   1.00
C695   C     0.43734   0.19393   0.50004   0.00000  Uiso   1.00
C696   C     0.13705   0.10511   0.45965   0.00000  Uiso   1.00
C697   C     0.14283   0.11374   0.53997   0.00000  Uiso   1.00
C698   C     0.36348   0.39619   0.45978   0.00000  Uiso   1.00
C699   C     0.10057   0.33254   0.49797   0.00000  Uiso   1.00
C700   C     0.40031   0.16500   0.49939   0.00000  Uiso   1.00
C701   C     0.40649   0.34297   0.49984   0.00000  Uiso   1.00
C702   C     0.09329   0.15682   0.49993   0.00000  Uiso   1.00
C703   C     0.35057   0.08254   0.49797   0.00000  Uiso   1.00
C704   C     0.15031   0.41500   0.49939   0.00000  Uiso   1.00
C705   C     0.15649   0.09297   0.49984   0.00000  Uiso   1.00
C706   C     0.06283   0.30538   0.49951   0.00000  Uiso   1.00
C707   C     0.34329   0.40682   0.49993   0.00000  Uiso   1.00
C708   C     0.38832   0.17848   0.41517   0.00000  Uiso   1.00
C709   C     0.12227   0.31091   0.57617   0.00000  Uiso   1.00
C710   C     0.11112   0.32645   0.41307   0.00000  Uiso   1.00
C711   C     0.37656   0.17685   0.57858   0.00000  Uiso   1.00
C712   C     0.08074   0.12606   0.58086   0.00000  Uiso   1.00
C713   C     0.38340   0.32077   0.42047   0.00000  Uiso   1.00
C714   C     0.41766   0.37139   0.58079   0.00000  Uiso   1.00
C715   C     0.11644   0.18117   0.42020   0.00000  Uiso   1.00
C716   C     0.13832   0.42848   0.41517   0.00000  Uiso   1.00
C717   C     0.31000   0.43991   0.50001   0.00000  Uiso   1.00
C718   C     0.37227   0.06091   0.57617   0.00000  Uiso   1.00
C719   C     0.36112   0.07645   0.41307   0.00000  Uiso   1.00
C720   C     0.12656   0.42685   0.57858   0.00000  Uiso   1.00
C721   C     0.33074   0.37606   0.58086   0.00000  Uiso   1.00
C722   C     0.13340   0.07077   0.42047   0.00000  Uiso   1.00
C723   C     0.16766   0.12140   0.58078   0.00000  Uiso   1.00
C724   C     0.36644   0.43117   0.42020   0.00000  Uiso   1.00
C725   C     0.18990   0.05998   0.49995   0.00000  Uiso   1.00
C726   C     0.18734   0.44393   0.50004   0.00000  Uiso   1.00
C727   C     0.31283   0.05538   0.49951   0.00000  Uiso   1.00
C728   C     0.00127   0.29440   0.35733   0.00000  Uiso   1.00
H729   H     0.49708   0.39415   0.44741   0.00000  Uiso   1.00
H730   H     0.40821   0.16161   0.39063   0.00000  Uiso   1.00
H731   H     0.35846   0.18109   0.40030   0.00000  Uiso   1.00
H732   H     0.09441   0.30053   0.59374   0.00000  Uiso   1.00
H733   H     0.13477   0.27680   0.56249   0.00000  Uiso   1.00
H734   H     0.14329   0.32476   0.60148   0.00000  Uiso   1.00
H735   H     0.10058   0.28786   0.41668   0.00000  Uiso   1.00
H736   H     0.09136   0.34570   0.38999   0.00000  Uiso   1.00
H737   H     0.14085   0.32478   0.39723   0.00000  Uiso   1.00
H738   H     0.39784   0.20808   0.58289   0.00000  Uiso   1.00
H739   H     0.34718   0.19284   0.57259   0.00000  Uiso   1.00
H740   H     0.48090   0.11012   0.55257   0.00000  Uiso   1.00
H741   H     0.37454   0.15612   0.61059   0.00000  Uiso   1.00
H742   H     0.07361   0.16086   0.59761   0.00000  Uiso   1.00
H743   H     0.05488   0.10374   0.57021   0.00000  Uiso   1.00
H744   H     0.09472   0.10234   0.60635   0.00000  Uiso   1.00
H745   H     0.41177   0.31414   0.40355   0.00000  Uiso   1.00
H746   H     0.36963   0.28570   0.43282   0.00000  Uiso   1.00
H747   H     0.36318   0.33503   0.39465   0.00000  Uiso   1.00
H748   H     0.42471   0.33627   0.59769   0.00000  Uiso   1.00
H749   H     0.44356   0.39396   0.56980   0.00000  Uiso   1.00
H750   H     0.40336   0.39456   0.60621   0.00000  Uiso   1.00
H751   H     0.00255   0.10524   0.45020   0.00000  Uiso   1.00
H752   H     0.08820   0.18477   0.40246   0.00000  Uiso   1.00
H753   H     0.12723   0.21742   0.43229   0.00000  Uiso   1.00
H754   H     0.13860   0.16926   0.39531   0.00000  Uiso   1.00
H755   H     0.14851   0.46678   0.42045   0.00000  Uiso   1.00
H756   H     0.15821   0.41161   0.39063   0.00000  Uiso   1.00
H757   H     0.10846   0.43109   0.40030   0.00000  Uiso   1.00
H758   H     0.34441   0.05053   0.59374   0.00000  Uiso   1.00
H759   H     0.38477   0.02681   0.56249   0.00000  Uiso   1.00
H760   H     0.39328   0.07476   0.60148   0.00000  Uiso   1.00
H761   H     0.35058   0.03786   0.41668   0.00000  Uiso   1.00
H762   H     0.01818   0.39079   0.54921   0.00000  Uiso   1.00
H763   H     0.34137   0.09570   0.38999   0.00000  Uiso   1.00
H764   H     0.39085   0.07478   0.39723   0.00000  Uiso   1.00
H765   H     0.14784   0.45808   0.58289   0.00000  Uiso   1.00
H766   H     0.09719   0.44285   0.57259   0.00000  Uiso   1.00
H767   H     0.12454   0.40611   0.61059   0.00000  Uiso   1.00
H768   H     0.32361   0.41086   0.59761   0.00000  Uiso   1.00
H769   H     0.30488   0.35374   0.57021   0.00000  Uiso   1.00
H770   H     0.34471   0.35234   0.60635   0.00000  Uiso   1.00
H771   H     0.16177   0.06414   0.40355   0.00000  Uiso   1.00
H772   H     0.11963   0.03570   0.43282   0.00000  Uiso   1.00
H773   H     0.24708   0.14415   0.44741   0.00000  Uiso   1.00
H774   H     0.11318   0.08503   0.39465   0.00000  Uiso   1.00
H775   H     0.17471   0.08627   0.59769   0.00000  Uiso   1.00
H776   H     0.19356   0.14396   0.56980   0.00000  Uiso   1.00
H777   H     0.15336   0.14456   0.60621   0.00000  Uiso   1.00
H778   H     0.33820   0.43477   0.40246   0.00000  Uiso   1.00
H779   H     0.37723   0.46742   0.43229   0.00000  Uiso   1.00
H780   H     0.38860   0.41926   0.39531   0.00000  Uiso   1.00
H781   H     0.23090   0.36012   0.55257   0.00000  Uiso   1.00
H782   H     0.25255   0.35524   0.45020   0.00000  Uiso   1.00
H783   H     0.26818   0.14079   0.54921   0.00000  Uiso   1.00
H784   H     0.39851   0.21678   0.42045   0.00000  Uiso   1.00
N785   N     0.00000   0.25000   0.61907   0.00000  Uiso   1.00
N786   N     0.00000   0.25000   0.38093   0.00000  Uiso   1.00
N787   N     0.25000   0.00000   0.61907   0.00000  Uiso   1.00
N788   N     0.25000   0.00000   0.38093   0.00000  Uiso   1.00
O789   O     0.04581   0.20419   0.53821   0.00000  Uiso   1.00
O790   O     0.20420   0.04581   0.46179   0.00000  Uiso   1.00
O791   O     0.20420   0.04581   0.53821   0.00000  Uiso   1.00
O792   O     0.29581   0.45419   0.46179   0.00000  Uiso   1.00
O793   O     0.20420   0.45419   0.46179   0.00000  Uiso   1.00
O794   O     0.29581   0.04581   0.53821   0.00000  Uiso   1.00
O795   O     0.29581   0.04581   0.46179   0.00000  Uiso   1.00
O796   O     0.20420   0.45419   0.53821   0.00000  Uiso   1.00
O797   O     0.03145   0.38800   0.36875   0.00000  Uiso   1.00
O798   O     0.45978   0.37520   0.37418   0.00000  Uiso   1.00
O799   O     0.00221   0.35916   0.44115   0.00000  Uiso   1.00
O800   O     0.45420   0.29581   0.46179   0.00000  Uiso   1.00
O801   O     0.00965   0.10557   0.63502   0.00000  Uiso   1.00
O802   O     0.44396   0.13586   0.62419   0.00000  Uiso   1.00
O803   O     0.49505   0.14114   0.56088   0.00000  Uiso   1.00
O804   O     0.46744   0.11295   0.37265   0.00000  Uiso   1.00
O805   O     0.03942   0.12390   0.37548   0.00000  Uiso   1.00
O806   O     0.49820   0.14050   0.44357   0.00000  Uiso   1.00
O807   O     0.48869   0.39396   0.63213   0.00000  Uiso   1.00
O808   O     0.05526   0.36671   0.62078   0.00000  Uiso   1.00
O809   O     0.00452   0.35941   0.55834   0.00000  Uiso   1.00
O810   O     0.28145   0.13800   0.36875   0.00000  Uiso   1.00
O811   O     0.45420   0.29581   0.53821   0.00000  Uiso   1.00
O812   O     0.20978   0.12520   0.37418   0.00000  Uiso   1.00
O813   O     0.25221   0.10916   0.44115   0.00000  Uiso   1.00
O814   O     0.25965   0.35557   0.63502   0.00000  Uiso   1.00
O815   O     0.19396   0.38586   0.62419   0.00000  Uiso   1.00
O816   O     0.24505   0.39114   0.56088   0.00000  Uiso   1.00
O817   O     0.21744   0.36295   0.37265   0.00000  Uiso   1.00
O818   O     0.28942   0.37390   0.37548   0.00000  Uiso   1.00
O819   O     0.24820   0.39050   0.44357   0.00000  Uiso   1.00
O820   O     0.23869   0.14396   0.63213   0.00000  Uiso   1.00
O821   O     0.30526   0.11671   0.62078   0.00000  Uiso   1.00
O822   O     0.04581   0.20419   0.46179   0.00000  Uiso   1.00
O823   O     0.25452   0.10941   0.55834   0.00000  Uiso   1.00
O824   O     0.45420   0.20419   0.46179   0.00000  Uiso   1.00
O825   O     0.04581   0.29581   0.53821   0.00000  Uiso   1.00
O826   O     0.04581   0.29581   0.46179   0.00000  Uiso   1.00
O827   O     0.45420   0.20419   0.53821   0.00000  Uiso   1.00
O828   O     0.29581   0.45419   0.53821   0.00000  Uiso   1.00
S829   S     0.49890   0.35379   0.38585   0.00000  Uiso   1.00
S830   S     0.48696   0.14711   0.61556   0.00000  Uiso   1.00
S831   S     0.00078   0.14618   0.38805   0.00000  Uiso   1.00
S832   S     0.01251   0.35348   0.61308   0.00000  Uiso   1.00
S833   S     0.24890   0.10379   0.38585   0.00000  Uiso   1.00
S834   S     0.23696   0.39711   0.61556   0.00000  Uiso   1.00
S835   S     0.25078   0.39618   0.38805   0.00000  Uiso   1.00
S836   S     0.26251   0.10348   0.61308   0.00000  Uiso   1.00
Zn837  Zn    0.00000   0.25000   0.55104   0.00000  Uiso   1.00
Zn838  Zn    0.00000   0.25000   0.44896   0.00000  Uiso   1.00
Zn839  Zn    0.25000   0.00000   0.55104   0.00000  Uiso   1.00
Zn840  Zn    0.25000   0.00000   0.44896   0.00000  Uiso   1.00
C841   C     0.56000   0.18991   0.50001   0.00000  Uiso   1.00
C842   C     0.99770   0.20566   0.64312   0.00000  Uiso   1.00
C843   C     0.99889   0.20564   0.35833   0.00000  Uiso   1.00
C844   C     0.50253   0.29444   0.64208   0.00000  Uiso   1.00
C845   C     0.75127   0.04440   0.35733   0.00000  Uiso   1.00
C846   C     0.74770   0.45566   0.64312   0.00000  Uiso   1.00
C847   C     0.74889   0.45564   0.35833   0.00000  Uiso   1.00
C848   C     0.75253   0.04444   0.64208   0.00000  Uiso   1.00
C849   C     0.88558   0.14799   0.45800   0.00000  Uiso   1.00
C850   C     0.61712   0.34784   0.53841   0.00000  Uiso   1.00
C851   C     0.61448   0.35325   0.45715   0.00000  Uiso   1.00
C852   C     0.93990   0.30998   0.49995   0.00000  Uiso   1.00
C853   C     0.88621   0.14389   0.53977   0.00000  Uiso   1.00
C854   C     0.60616   0.13461   0.53997   0.00000  Uiso   1.00
C855   C     0.88705   0.35511   0.45965   0.00000  Uiso   1.00
C856   C     0.89283   0.36374   0.53997   0.00000  Uiso   1.00
C857   C     0.61348   0.14619   0.45978   0.00000  Uiso   1.00
C858   C     0.63558   0.39799   0.45800   0.00000  Uiso   1.00
C859   C     0.86712   0.09784   0.53841   0.00000  Uiso   1.00
C860   C     0.86448   0.10325   0.45715   0.00000  Uiso   1.00
C861   C     0.63621   0.39389   0.53977   0.00000  Uiso   1.00
C862   C     0.85616   0.38461   0.53997   0.00000  Uiso   1.00
C863   C     0.93734   0.19393   0.50004   0.00000  Uiso   1.00
C864   C     0.63705   0.10511   0.45965   0.00000  Uiso   1.00
C865   C     0.64283   0.11374   0.53997   0.00000  Uiso   1.00
C866   C     0.86348   0.39619   0.45978   0.00000  Uiso   1.00
C867   C     0.60057   0.33254   0.49797   0.00000  Uiso   1.00
C868   C     0.90031   0.16500   0.49939   0.00000  Uiso   1.00
C869   C     0.90649   0.34297   0.49984   0.00000  Uiso   1.00
C870   C     0.59329   0.15682   0.49993   0.00000  Uiso   1.00
C871   C     0.85057   0.08254   0.49797   0.00000  Uiso   1.00
C872   C     0.65031   0.41500   0.49939   0.00000  Uiso   1.00
C873   C     0.65649   0.09297   0.49984   0.00000  Uiso   1.00
C874   C     0.56283   0.30538   0.49951   0.00000  Uiso   1.00
C875   C     0.84329   0.40682   0.49993   0.00000  Uiso   1.00
C876   C     0.88832   0.17848   0.41517   0.00000  Uiso   1.00
C877   C     0.62227   0.31091   0.57617   0.00000  Uiso   1.00
C878   C     0.61112   0.32645   0.41307   0.00000  Uiso   1.00
C879   C     0.87656   0.17685   0.57858   0.00000  Uiso   1.00
C880   C     0.58074   0.12606   0.58086   0.00000  Uiso   1.00
C881   C     0.88340   0.32077   0.42047   0.00000  Uiso   1.00
C882   C     0.91766   0.37139   0.58079   0.00000  Uiso   1.00
C883   C     0.61644   0.18117   0.42020   0.00000  Uiso   1.00
C884   C     0.63832   0.42848   0.41517   0.00000  Uiso   1.00
C885   C     0.81000   0.43991   0.50001   0.00000  Uiso   1.00
C886   C     0.87227   0.06091   0.57617   0.00000  Uiso   1.00
C887   C     0.86112   0.07645   0.41307   0.00000  Uiso   1.00
C888   C     0.62656   0.42685   0.57858   0.00000  Uiso   1.00
C889   C     0.83074   0.37606   0.58086   0.00000  Uiso   1.00
C890   C     0.63340   0.07077   0.42047   0.00000  Uiso   1.00
C891   C     0.66766   0.12140   0.58078   0.00000  Uiso   1.00
C892   C     0.86644   0.43117   0.42020   0.00000  Uiso   1.00
C893   C     0.68990   0.05998   0.49995   0.00000  Uiso   1.00
C894   C     0.68734   0.44393   0.50004   0.00000  Uiso   1.00
C895   C     0.81283   0.05538   0.49951   0.00000  Uiso   1.00
C896   C     0.50127   0.29440   0.35733   0.00000  Uiso   1.00
H897   H     0.99708   0.39415   0.44741   0.00000  Uiso   1.00
H898   H     0.90821   0.16161   0.39063   0.00000  Uiso   1.00
H899   H     0.85846   0.18109   0.40030   0.00000  Uiso   1.00
H900   H     0.59441   0.30053   0.59374   0.00000  Uiso   1.00
H901   H     0.63477   0.27680   0.56249   0.00000  Uiso   1.00
H902   H     0.64329   0.32476   0.60148   0.00000  Uiso   1.00
H903   H     0.60058   0.28786   0.41668   0.00000  Uiso   1.00
H904   H     0.59136   0.34570   0.38999   0.00000  Uiso   1.00
H905   H     0.64085   0.32478   0.39723   0.00000  Uiso   1.00
H906   H     0.89784   0.20808   0.58289   0.00000  Uiso   1.00
H907   H     0.84718   0.19284   0.57259   0.00000  Uiso   1.00
H908   H     0.98090   0.11012   0.55257   0.00000  Uiso   1.00
H909   H     0.87454   0.15612   0.61059   0.00000  Uiso   1.00
H910   H     0.57361   0.16086   0.59761   0.00000  Uiso   1.00
H911   H     0.55488   0.10374   0.57021   0.00000  Uiso   1.00
H912   H     0.59472   0.10234   0.60635   0.00000  Uiso   1.00
H913   H     0.91177   0.31414   0.40355   0.00000  Uiso   1.00
H914   H     0.86963   0.28570   0.43282   0.00000  Uiso   1.00
H915   H     0.86318   0.33503   0.39465   0.00000  Uiso   1.00
H916   H     0.92471   0.33627   0.59769   0.00000  Uiso   1.00
H917   H     0.94356   0.39396   0.56980   0.00000  Uiso   1.00
H918   H     0.90336   0.39456   0.60621   0.00000  Uiso   1.00
H919   H     0.50255   0.10524   0.45020   0.00000  Uiso   1.00
H920   H     0.58820   0.18477   0.40246   0.00000  Uiso   1.00
H921   H     0.62723   0.21742   0.43229   0.00000  Uiso   1.00
H922   H     0.63860   0.16926   0.39531   0.00000  Uiso   1.00
H923   H     0.64851   0.46678   0.42045   0.00000  Uiso   1.00
H924   H     0.65821   0.41161   0.39063   0.00000  Uiso   1.00
H925   H     0.60846   0.43109   0.40030   0.00000  Uiso   1.00
H926   H     0.84441   0.05053   0.59374   0.00000  Uiso   1.00
H927   H     0.88477   0.02681   0.56249   0.00000  Uiso   1.00
H928   H     0.89328   0.07476   0.60148   0.00000  Uiso   1.00
H929   H     0.85058   0.03786   0.41668   0.00000  Uiso   1.00
H930   H     0.51818   0.39079   0.54921   0.00000  Uiso   1.00
H931   H     0.84137   0.09570   0.38999   0.00000  Uiso   1.00
H932   H     0.89085   0.07478   0.39723   0.00000  Uiso   1.00
H933   H     0.64784   0.45808   0.58289   0.00000  Uiso   1.00
H934   H     0.59719   0.44285   0.57259   0.00000  Uiso   1.00
H935   H     0.62454   0.40611   0.61059   0.00000  Uiso   1.00
H936   H     0.82361   0.41086   0.59761   0.00000  Uiso   1.00
H937   H     0.80488   0.35374   0.57021   0.00000  Uiso   1.00
H938   H     0.84471   0.35234   0.60635   0.00000  Uiso   1.00
H939   H     0.66177   0.06414   0.40355   0.00000  Uiso   1.00
H940   H     0.61963   0.03570   0.43282   0.00000  Uiso   1.00
H941   H     0.74708   0.14415   0.44741   0.00000  Uiso   1.00
H942   H     0.61318   0.08503   0.39465   0.00000  Uiso   1.00
H943   H     0.67471   0.08627   0.59769   0.00000  Uiso   1.00
H944   H     0.69356   0.14396   0.56980   0.00000  Uiso   1.00
H945   H     0.65336   0.14456   0.60621   0.00000  Uiso   1.00
H946   H     0.83820   0.43477   0.40246   0.00000  Uiso   1.00
H947   H     0.87723   0.46742   0.43229   0.00000  Uiso   1.00
H948   H     0.88860   0.41926   0.39531   0.00000  Uiso   1.00
H949   H     0.73090   0.36012   0.55257   0.00000  Uiso   1.00
H950   H     0.75255   0.35524   0.45020   0.00000  Uiso   1.00
H951   H     0.76818   0.14079   0.54921   0.00000  Uiso   1.00
H952   H     0.89851   0.21678   0.42045   0.00000  Uiso   1.00
N953   N     0.50000   0.25000   0.61907   0.00000  Uiso   1.00
N954   N     0.50000   0.25000   0.38093   0.00000  Uiso   1.00
N955   N     0.75000   0.00000   0.61907   0.00000  Uiso   1.00
N956   N     0.75000   0.00000   0.38093   0.00000  Uiso   1.00
O957   O     0.54581   0.20419   0.53821   0.00000  Uiso   1.00
O958   O     0.70420   0.04581   0.46179   0.00000  Uiso   1.00
O959   O     0.70420   0.04581   0.53821   0.00000  Uiso   1.00
O960   O     0.79581   0.45419   0.46179   0.00000  Uiso   1.00
O961   O     0.70420   0.45419   0.46179   0.00000  Uiso   1.00
O962   O     0.79581   0.04581   0.53821   0.00000  Uiso   1.00
O963   O     0.79581   0.04581   0.46179   0.00000  Uiso   1.00
O964   O     0.70420   0.45419   0.53821   0.00000  Uiso   1.00
O965   O     0.53145   0.38800   0.36875   0.00000  Uiso   1.00
O966   O     0.95978   0.37520   0.37418   0.00000  Uiso   1.00
O967   O     0.50221   0.35916   0.44115   0.00000  Uiso   1.00
O968   O     0.95420   0.29581   0.46179   0.00000  Uiso   1.00
O969   O     0.50965   0.10557   0.63502   0.00000  Uiso   1.00
O970   O     0.94396   0.13586   0.62419   0.00000  Uiso   1.00
O971   O     0.99505   0.14114   0.56088   0.00000  Uiso   1.00
O972   O     0.96744   0.11295   0.37265   0.00000  Uiso   1.00
O973   O     0.53942   0.12390   0.37548   0.00000  Uiso   1.00
O974   O     0.99820   0.14050   0.44357   0.00000  Uiso   1.00
O975   O     0.98869   0.39396   0.63213   0.00000  Uiso   1.00
O976   O     0.55526   0.36671   0.62078   0.00000  Uiso   1.00
O977   O     0.50452   0.35941   0.55834   0.00000  Uiso   1.00
O978   O     0.78145   0.13800   0.36875   0.00000  Uiso   1.00
O979   O     0.95420   0.29581   0.53821   0.00000  Uiso   1.00
O980   O     0.70978   0.12520   0.37418   0.00000  Uiso   1.00
O981   O     0.75221   0.10916   0.44115   0.00000  Uiso   1.00
O982   O     0.75965   0.35557   0.63502   0.00000  Uiso   1.00
O983   O     0.69396   0.38586   0.62419   0.00000  Uiso   1.00
O984   O     0.74505   0.39114   0.56088   0.00000  Uiso   1.00
O985   O     0.71744   0.36295   0.37265   0.00000  Uiso   1.00
O986   O     0.78942   0.37390   0.37548   0.00000  Uiso   1.00
O987   O     0.74820   0.39050   0.44357   0.00000  Uiso   1.00
O988   O     0.73869   0.14396   0.63213   0.00000  Uiso   1.00
O989   O     0.80526   0.11671   0.62078   0.00000  Uiso   1.00
O990   O     0.54581   0.20419   0.46179   0.00000  Uiso   1.00
O991   O     0.75452   0.10941   0.55834   0.00000  Uiso   1.00
O992   O     0.95420   0.20419   0.46179   0.00000  Uiso   1.00
O993   O     0.54581   0.29581   0.53821   0.00000  Uiso   1.00
O994   O     0.54581   0.29581   0.46179   0.00000  Uiso   1.00
O995   O     0.95420   0.20419   0.53821   0.00000  Uiso   1.00
O996   O     0.79581   0.45419   0.53821   0.00000  Uiso   1.00
S997   S     0.99890   0.35379   0.38585   0.00000  Uiso   1.00
S998   S     0.98696   0.14711   0.61556   0.00000  Uiso   1.00
S999   S     0.50078   0.14618   0.38805   0.00000  Uiso   1.00
S1000  S     0.51251   0.35348   0.61308   0.00000  Uiso   1.00
S1001  S     0.74890   0.10379   0.38585   0.00000  Uiso   1.00
S1002  S     0.73696   0.39711   0.61556   0.00000  Uiso   1.00
S1003  S     0.75078   0.39618   0.38805   0.00000  Uiso   1.00
S1004  S     0.76251   0.10348   0.61308   0.00000  Uiso   1.00
Zn1005 Zn    0.50000   0.25000   0.55104   0.00000  Uiso   1.00
Zn1006 Zn    0.50000   0.25000   0.44896   0.00000  Uiso   1.00
Zn1007 Zn    0.75000   0.00000   0.55104   0.00000  Uiso   1.00
Zn1008 Zn    0.75000   0.00000   0.44896   0.00000  Uiso   1.00
C1009  C     0.06000   0.68991   0.50001   0.00000  Uiso   1.00
C1010  C     0.49770   0.70566   0.64312   0.00000  Uiso   1.00
C1011  C     0.49889   0.70564   0.35833   0.00000  Uiso   1.00
C1012  C     0.00253   0.79444   0.64208   0.00000  Uiso   1.00
C1013  C     0.25127   0.54440   0.35733   0.00000  Uiso   1.00
C1014  C     0.24770   0.95566   0.64312   0.00000  Uiso   1.00
C1015  C     0.24889   0.95564   0.35833   0.00000  Uiso   1.00
C1016  C     0.25253   0.54444   0.64208   0.00000  Uiso   1.00
C1017  C     0.38558   0.64799   0.45800   0.00000  Uiso   1.00
C1018  C     0.11712   0.84784   0.53841   0.00000  Uiso   1.00
C1019  C     0.11448   0.85325   0.45715   0.00000  Uiso   1.00
C1020  C     0.43990   0.80998   0.49995   0.00000  Uiso   1.00
C1021  C     0.38621   0.64389   0.53977   0.00000  Uiso   1.00
C1022  C     0.10616   0.63461   0.53997   0.00000  Uiso   1.00
C1023  C     0.38705   0.85511   0.45965   0.00000  Uiso   1.00
C1024  C     0.39283   0.86374   0.53997   0.00000  Uiso   1.00
C1025  C     0.11348   0.64619   0.45978   0.00000  Uiso   1.00
C1026  C     0.13558   0.89799   0.45800   0.00000  Uiso   1.00
C1027  C     0.36712   0.59784   0.53841   0.00000  Uiso   1.00
C1028  C     0.36448   0.60325   0.45715   0.00000  Uiso   1.00
C1029  C     0.13621   0.89389   0.53977   0.00000  Uiso   1.00
C1030  C     0.35616   0.88461   0.53997   0.00000  Uiso   1.00
C1031  C     0.43734   0.69393   0.50004   0.00000  Uiso   1.00
C1032  C     0.13705   0.60511   0.45965   0.00000  Uiso   1.00
C1033  C     0.14283   0.61374   0.53997   0.00000  Uiso   1.00
C1034  C     0.36348   0.89619   0.45978   0.00000  Uiso   1.00
C1035  C     0.10057   0.83254   0.49797   0.00000  Uiso   1.00
C1036  C     0.40031   0.66500   0.49939   0.00000  Uiso   1.00
C1037  C     0.40649   0.84297   0.49984   0.00000  Uiso   1.00
C1038  C     0.09329   0.65682   0.49993   0.00000  Uiso   1.00
C1039  C     0.35057   0.58254   0.49797   0.00000  Uiso   1.00
C1040  C     0.15031   0.91500   0.49939   0.00000  Uiso   1.00
C1041  C     0.15649   0.59297   0.49984   0.00000  Uiso   1.00
C1042  C     0.06283   0.80538   0.49951   0.00000  Uiso   1.00
C1043  C     0.34329   0.90682   0.49993   0.00000  Uiso   1.00
C1044  C     0.38832   0.67848   0.41517   0.00000  Uiso   1.00
C1045  C     0.12227   0.81091   0.57617   0.00000  Uiso   1.00
C1046  C     0.11112   0.82645   0.41307   0.00000  Uiso   1.00
C1047  C     0.37656   0.67685   0.57858   0.00000  Uiso   1.00
C1048  C     0.08074   0.62606   0.58086   0.00000  Uiso   1.00
C1049  C     0.38340   0.82077   0.42047   0.00000  Uiso   1.00
C1050  C     0.41766   0.87139   0.58079   0.00000  Uiso   1.00
C1051  C     0.11644   0.68117   0.42020   0.00000  Uiso   1.00
C1052  C     0.13832   0.92848   0.41517   0.00000  Uiso   1.00
C1053  C     0.31000   0.93991   0.50001   0.00000  Uiso   1.00
C1054  C     0.37227   0.56091   0.57617   0.00000  Uiso   1.00
C1055  C     0.36112   0.57645   0.41307   0.00000  Uiso   1.00
C1056  C     0.12656   0.92685   0.57858   0.00000  Uiso   1.00
C1057  C     0.33074   0.87606   0.58086   0.00000  Uiso   1.00
C1058  C     0.13340   0.57077   0.42047   0.00000  Uiso   1.00
C1059  C     0.16766   0.62140   0.58078   0.00000  Uiso   1.00
C1060  C     0.36644   0.93117   0.42020   0.00000  Uiso   1.00
C1061  C     0.18990   0.55998   0.49995   0.00000  Uiso   1.00
C1062  C     0.18734   0.94393   0.50004   0.00000  Uiso   1.00
C1063  C     0.31283   0.55538   0.49951   0.00000  Uiso   1.00
C1064  C     0.00127   0.79440   0.35733   0.00000  Uiso   1.00
H1065  H     0.49708   0.89415   0.44741   0.00000  Uiso   1.00
H1066  H     0.40821   0.66161   0.39063   0.00000  Uiso   1.00
H1067  H     0.35846   0.68109   0.40030   0.00000  Uiso   1.00
H1068  H     0.09441   0.80053   0.59374   0.00000  Uiso   1.00
H1069  H     0.13477   0.77680   0.56249   0.00000  Uiso   1.00
H1070  H     0.14329   0.82476   0.60148   0.00000  Uiso   1.00
H1071  H     0.10058   0.78786   0.41668   0.00000  Uiso   1.00
H1072  H     0.09136   0.84570   0.38999   0.00000  Uiso   1.00
H1073  H     0.14085   0.82478   0.39723   0.00000  Uiso   1.00
H1074  H     0.39784   0.70808   0.58289   0.00000  Uiso   1.00
H1075  H     0.34718   0.69284   0.57259   0.00000  Uiso   1.00
H1076  H     0.48090   0.61012   0.55257   0.00000  Uiso   1.00
H1077  H     0.37454   0.65612   0.61059   0.00000  Uiso   1.00
H1078  H     0.07361   0.66086   0.59761   0.00000  Uiso   1.00
H1079  H     0.05488   0.60374   0.57021   0.00000  Uiso   1.00
H1080  H     0.09472   0.60234   0.60635   0.00000  Uiso   1.00
H1081  H     0.41177   0.81414   0.40355   0.00000  Uiso   1.00
H1082  H     0.36963   0.78570   0.43282   0.00000  Uiso   1.00
H1083  H     0.36318   0.83503   0.39465   0.00000  Uiso   1.00
H1084  H     0.42471   0.83627   0.59769   0.00000  Uiso   1.00
H1085  H     0.44356   0.89396   0.56980   0.00000  Uiso   1.00
H1086  H     0.40336   0.89456   0.60621   0.00000  Uiso   1.00
H1087  H     0.00255   0.60524   0.45020   0.00000  Uiso   1.00
H1088  H     0.08820   0.68477   0.40246   0.00000  Uiso   1.00
H1089  H     0.12723   0.71742   0.43229   0.00000  Uiso   1.00
H1090  H     0.13860   0.66926   0.39531   0.00000  Uiso   1.00
H1091  H     0.14851   0.96678   0.42045   0.00000  Uiso   1.00
H1092  H     0.15821   0.91161   0.39063   0.00000  Uiso   1.00
H1093  H     0.10846   0.93109   0.40030   0.00000  Uiso   1.00
H1094  H     0.34441   0.55053   0.59374   0.00000  Uiso   1.00
H1095  H     0.38477   0.52681   0.56249   0.00000  Uiso   1.00
H1096  H     0.39328   0.57476   0.60148   0.00000  Uiso   1.00
H1097  H     0.35058   0.53786   0.41668   0.00000  Uiso   1.00
H1098  H     0.01818   0.89079   0.54921   0.00000  Uiso   1.00
H1099  H     0.34137   0.59570   0.38999   0.00000  Uiso   1.00
H1100  H     0.39085   0.57478   0.39723   0.00000  Uiso   1.00
H1101  H     0.14784   0.95808   0.58289   0.00000  Uiso   1.00
H1102  H     0.09719   0.94285   0.57259   0.00000  Uiso   1.00
H1103  H     0.12454   0.90611   0.61059   0.00000  Uiso   1.00
H1104  H     0.32361   0.91086   0.59761   0.00000  Uiso   1.00
H1105  H     0.30488   0.85374   0.57021   0.00000  Uiso   1.00
H1106  H     0.34471   0.85234   0.60635   0.00000  Uiso   1.00
H1107  H     0.16177   0.56414   0.40355   0.00000  Uiso   1.00
H1108  H     0.11963   0.53570   0.43282   0.00000  Uiso   1.00
H1109  H     0.24708   0.64415   0.44741   0.00000  Uiso   1.00
H1110  H     0.11318   0.58503   0.39465   0.00000  Uiso   1.00
H1111  H     0.17471   0.58627   0.59769   0.00000  Uiso   1.00
H1112  H     0.19356   0.64396   0.56980   0.00000  Uiso   1.00
H1113  H     0.15336   0.64456   0.60621   0.00000  Uiso   1.00
H1114  H     0.33820   0.93477   0.40246   0.00000  Uiso   1.00
H1115  H     0.37723   0.96742   0.43229   0.00000  Uiso   1.00
H1116  H     0.38860   0.91926   0.39531   0.00000  Uiso   1.00
H1117  H     0.23090   0.86012   0.55257   0.00000  Uiso   1.00
H1118  H     0.25255   0.85524   0.45020   0.00000  Uiso   1.00
H1119  H     0.26818   0.64079   0.54921   0.00000  Uiso   1.00
H1120  H     0.39851   0.71678   0.42045   0.00000  Uiso   1.00
N1121  N     0.00000   0.75000   0.61907   0.00000  Uiso   1.00
N1122  N     0.00000   0.75000   0.38093   0.00000  Uiso   1.00
N1123  N     0.25000   0.50000   0.61907   0.00000  Uiso   1.00
N1124  N     0.25000   0.50000   0.38093   0.00000  Uiso   1.00
O1125  O     0.04581   0.70419   0.53821   0.00000  Uiso   1.00
O1126  O     0.20420   0.54581   0.46179   0.00000  Uiso   1.00
O1127  O     0.20420   0.54581   0.53821   0.00000  Uiso   1.00
O1128  O     0.29581   0.95419   0.46179   0.00000  Uiso   1.00
O1129  O     0.20420   0.95419   0.46179   0.00000  Uiso   1.00
O1130  O     0.29581   0.54581   0.53821   0.00000  Uiso   1.00
O1131  O     0.29581   0.54581   0.46179   0.00000  Uiso   1.00
O1132  O     0.20420   0.95419   0.53821   0.00000  Uiso   1.00
O1133  O     0.03145   0.88800   0.36875   0.00000  Uiso   1.00
O1134  O     0.45978   0.87520   0.37418   0.00000  Uiso   1.00
O1135  O     0.00221   0.85916   0.44115   0.00000  Uiso   1.00
O1136  O     0.45420   0.79581   0.46179   0.00000  Uiso   1.00
O1137  O     0.00965   0.60557   0.63502   0.00000  Uiso   1.00
O1138  O     0.44396   0.63586   0.62419   0.00000  Uiso   1.00
O1139  O     0.49505   0.64114   0.56088   0.00000  Uiso   1.00
O1140  O     0.46744   0.61295   0.37265   0.00000  Uiso   1.00
O1141  O     0.03942   0.62390   0.37548   0.00000  Uiso   1.00
O1142  O     0.49820   0.64050   0.44357   0.00000  Uiso   1.00
O1143  O     0.48869   0.89396   0.63213   0.00000  Uiso   1.00
O1144  O     0.05526   0.86671   0.62078   0.00000  Uiso   1.00
O1145  O     0.00452   0.85941   0.55834   0.00000  Uiso   1.00
O1146  O     0.28145   0.63800   0.36875   0.00000  Uiso   1.00
O1147  O     0.45420   0.79581   0.53821   0.00000  Uiso   1.00
O1148  O     0.20978   0.62520   0.37418   0.00000  Uiso   1.00
O1149  O     0.25221   0.60916   0.44115   0.00000  Uiso   1.00
O1150  O     0.25965   0.85557   0.63502   0.00000  Uiso   1.00
O1151  O     0.19396   0.88586   0.62419   0.00000  Uiso   1.00
O1152  O     0.24505   0.89114   0.56088   0.00000  Uiso   1.00
O1153  O     0.21744   0.86295   0.37265   0.00000  Uiso   1.00
O1154  O     0.28942   0.87390   0.37548   0.00000  Uiso   1.00
O1155  O     0.24820   0.89050   0.44357   0.00000  Uiso   1.00
O1156  O     0.23869   0.64396   0.63213   0.00000  Uiso   1.00
O1157  O     0.30526   0.61671   0.62078   0.00000  Uiso   1.00
O1158  O     0.04581   0.70419   0.46179   0.00000  Uiso   1.00
O1159  O     0.25452   0.60941   0.55834   0.00000  Uiso   1.00
O1160  O     0.45420   0.70419   0.46179   0.00000  Uiso   1.00
O1161  O     0.04581   0.79581   0.53821   0.00000  Uiso   1.00
O1162  O     0.04581   0.79581   0.46179   0.00000  Uiso   1.00
O1163  O     0.45420   0.70419   0.53821   0.00000  Uiso   1.00
O1164  O     0.29581   0.95419   0.53821   0.00000  Uiso   1.00
S1165  S     0.49890   0.85379   0.38585   0.00000  Uiso   1.00
S1166  S     0.48696   0.64711   0.61556   0.00000  Uiso   1.00
S1167  S     0.00078   0.64618   0.38805   0.00000  Uiso   1.00
S1168  S     0.01251   0.85348   0.61308   0.00000  Uiso   1.00
S1169  S     0.24890   0.60379   0.38585   0.00000  Uiso   1.00
S1170  S     0.23696   0.89711   0.61556   0.00000  Uiso   1.00
S1171  S     0.25078   0.89618   0.38805   0.00000  Uiso   1.00
S1172  S     0.26251   0.60348   0.61308   0.00000  Uiso   1.00
Zn1173 Zn    0.00000   0.75000   0.55104   0.00000  Uiso   1.00
Zn1174 Zn    0.00000   0.75000   0.44896   0.00000  Uiso   1.00
Zn1175 Zn    0.25000   0.50000   0.55104   0.00000  Uiso   1.00
Zn1176 Zn    0.25000   0.50000   0.44896   0.00000  Uiso   1.00
C1177  C     0.56000   0.68991   0.50001   0.00000  Uiso   1.00
C1178  C     0.99770   0.70566   0.64312   0.00000  Uiso   1.00
C1179  C     0.99889   0.70564   0.35833   0.00000  Uiso   1.00
C1180  C     0.50253   0.79444   0.64208   0.00000  Uiso   1.00
C1181  C     0.75127   0.54440   0.35733   0.00000  Uiso   1.00
C1182  C     0.74770   0.95566   0.64312   0.00000  Uiso   1.00
C1183  C     0.74889   0.95564   0.35833   0.00000  Uiso   1.00
C1184  C     0.75253   0.54444   0.64208   0.00000  Uiso   1.00
C1185  C     0.88558   0.64799   0.45800   0.00000  Uiso   1.00
C1186  C     0.61712   0.84784   0.53841   0.00000  Uiso   1.00
C1187  C     0.61448   0.85325   0.45715   0.00000  Uiso   1.00
C1188  C     0.93990   0.80998   0.49995   0.00000  Uiso   1.00
C1189  C     0.88621   0.64389   0.53977   0.00000  Uiso   1.00
C1190  C     0.60616   0.63461   0.53997   0.00000  Uiso   1.00
C1191  C     0.88705   0.85511   0.45965   0.00000  Uiso   1.00
C1192  C     0.89283   0.86374   0.53997   0.00000  Uiso   1.00
C1193  C     0.61348   0.64619   0.45978   0.00000  Uiso   1.00
C1194  C     0.63558   0.89799   0.45800   0.00000  Uiso   1.00
C1195  C     0.86712   0.59784   0.53841   0.00000  Uiso   1.00
C1196  C     0.86448   0.60325   0.45715   0.00000  Uiso   1.00
C1197  C     0.63621   0.89389   0.53977   0.00000  Uiso   1.00
C1198  C     0.85616   0.88461   0.53997   0.00000  Uiso   1.00
C1199  C     0.93734   0.69393   0.50004   0.00000  Uiso   1.00
C1200  C     0.63705   0.60511   0.45965   0.00000  Uiso   1.00
C1201  C     0.64283   0.61374   0.53997   0.00000  Uiso   1.00
C1202  C     0.86348   0.89619   0.45978   0.00000  Uiso   1.00
C1203  C     0.60057   0.83254   0.49797   0.00000  Uiso   1.00
C1204  C     0.90031   0.66500   0.49939   0.00000  Uiso   1.00
C1205  C     0.90649   0.84297   0.49984   0.00000  Uiso   1.00
C1206  C     0.59329   0.65682   0.49993   0.00000  Uiso   1.00
C1207  C     0.85057   0.58254   0.49797   0.00000  Uiso   1.00
C1208  C     0.65031   0.91500   0.49939   0.00000  Uiso   1.00
C1209  C     0.65649   0.59297   0.49984   0.00000  Uiso   1.00
C1210  C     0.56283   0.80538   0.49951   0.00000  Uiso   1.00
C1211  C     0.84329   0.90682   0.49993   0.00000  Uiso   1.00
C1212  C     0.88832   0.67848   0.41517   0.00000  Uiso   1.00
C1213  C     0.62227   0.81091   0.57617   0.00000  Uiso   1.00
C1214  C     0.61112   0.82645   0.41307   0.00000  Uiso   1.00
C1215  C     0.87656   0.67685   0.57858   0.00000  Uiso   1.00
C1216  C     0.58074   0.62606   0.58086   0.00000  Uiso   1.00
C1217  C     0.88340   0.82077   0.42047   0.00000  Uiso   1.00
C1218  C     0.91766   0.87139   0.58079   0.00000  Uiso   1.00
C1219  C     0.61644   0.68117   0.42020   0.00000  Uiso   1.00
C1220  C     0.63832   0.92848   0.41517   0.00000  Uiso   1.00
C1221  C     0.81000   0.93991   0.50001   0.00000  Uiso   1.00
C1222  C     0.87227   0.56091   0.57617   0.00000  Uiso   1.00
C1223  C     0.86112   0.57645   0.41307   0.00000  Uiso   1.00
C1224  C     0.62656   0.92685   0.57858   0.00000  Uiso   1.00
C1225  C     0.83074   0.87606   0.58086   0.00000  Uiso   1.00
C1226  C     0.63340   0.57077   0.42047   0.00000  Uiso   1.00
C1227  C     0.66766   0.62140   0.58078   0.00000  Uiso   1.00
C1228  C     0.86644   0.93117   0.42020   0.00000  Uiso   1.00
C1229  C     0.68990   0.55998   0.49995   0.00000  Uiso   1.00
C1230  C     0.68734   0.94393   0.50004   0.00000  Uiso   1.00
C1231  C     0.81283   0.55538   0.49951   0.00000  Uiso   1.00
C1232  C     0.50127   0.79440   0.35733   0.00000  Uiso   1.00
H1233  H     0.99708   0.89415   0.44741   0.00000  Uiso   1.00
H1234  H     0.90821   0.66161   0.39063   0.00000  Uiso   1.00
H1235  H     0.85846   0.68109   0.40030   0.00000  Uiso   1.00
H1236  H     0.59441   0.80053   0.59374   0.00000  Uiso   1.00
H1237  H     0.63477   0.77680   0.56249   0.00000  Uiso   1.00
H1238  H     0.64329   0.82476   0.60148   0.00000  Uiso   1.00
H1239  H     0.60058   0.78786   0.41668   0.00000  Uiso   1.00
H1240  H     0.59136   0.84570   0.38999   0.00000  Uiso   1.00
H1241  H     0.64085   0.82478   0.39723   0.00000  Uiso   1.00
H1242  H     0.89784   0.70808   0.58289   0.00000  Uiso   1.00
H1243  H     0.84718   0.69284   0.57259   0.00000  Uiso   1.00
H1244  H     0.98090   0.61012   0.55257   0.00000  Uiso   1.00
H1245  H     0.87454   0.65612   0.61059   0.00000  Uiso   1.00
H1246  H     0.57361   0.66086   0.59761   0.00000  Uiso   1.00
H1247  H     0.55488   0.60374   0.57021   0.00000  Uiso   1.00
H1248  H     0.59472   0.60234   0.60635   0.00000  Uiso   1.00
H1249  H     0.91177   0.81414   0.40355   0.00000  Uiso   1.00
H1250  H     0.86963   0.78570   0.43282   0.00000  Uiso   1.00
H1251  H     0.86318   0.83503   0.39465   0.00000  Uiso   1.00
H1252  H     0.92471   0.83627   0.59769   0.00000  Uiso   1.00
H1253  H     0.94356   0.89396   0.56980   0.00000  Uiso   1.00
H1254  H     0.90336   0.89456   0.60621   0.00000  Uiso   1.00
H1255  H     0.50255   0.60524   0.45020   0.00000  Uiso   1.00
H1256  H     0.58820   0.68477   0.40246   0.00000  Uiso   1.00
H1257  H     0.62723   0.71742   0.43229   0.00000  Uiso   1.00
H1258  H     0.63860   0.66926   0.39531   0.00000  Uiso   1.00
H1259  H     0.64851   0.96678   0.42045   0.00000  Uiso   1.00
H1260  H     0.65821   0.91161   0.39063   0.00000  Uiso   1.00
H1261  H     0.60846   0.93109   0.40030   0.00000  Uiso   1.00
H1262  H     0.84441   0.55053   0.59374   0.00000  Uiso   1.00
H1263  H     0.88477   0.52681   0.56249   0.00000  Uiso   1.00
H1264  H     0.89328   0.57476   0.60148   0.00000  Uiso   1.00
H1265  H     0.85058   0.53786   0.41668   0.00000  Uiso   1.00
H1266  H     0.51818   0.89079   0.54921   0.00000  Uiso   1.00
H1267  H     0.84137   0.59570   0.38999   0.00000  Uiso   1.00
H1268  H     0.89085   0.57478   0.39723   0.00000  Uiso   1.00
H1269  H     0.64784   0.95808   0.58289   0.00000  Uiso   1.00
H1270  H     0.59719   0.94285   0.57259   0.00000  Uiso   1.00
H1271  H     0.62454   0.90611   0.61059   0.00000  Uiso   1.00
H1272  H     0.82361   0.91086   0.59761   0.00000  Uiso   1.00
H1273  H     0.80488   0.85374   0.57021   0.00000  Uiso   1.00
H1274  H     0.84471   0.85234   0.60635   0.00000  Uiso   1.00
H1275  H     0.66177   0.56414   0.40355   0.00000  Uiso   1.00
H1276  H     0.61963   0.53570   0.43282   0.00000  Uiso   1.00
H1277  H     0.74708   0.64415   0.44741   0.00000  Uiso   1.00
H1278  H     0.61318   0.58503   0.39465   0.00000  Uiso   1.00
H1279  H     0.67471   0.58627   0.59769   0.00000  Uiso   1.00
H1280  H     0.69356   0.64396   0.56980   0.00000  Uiso   1.00
H1281  H     0.65336   0.64456   0.60621   0.00000  Uiso   1.00
H1282  H     0.83820   0.93477   0.40246   0.00000  Uiso   1.00
H1283  H     0.87723   0.96742   0.43229   0.00000  Uiso   1.00
H1284  H     0.88860   0.91926   0.39531   0.00000  Uiso   1.00
H1285  H     0.73090   0.86012   0.55257   0.00000  Uiso   1.00
H1286  H     0.75255   0.85524   0.45020   0.00000  Uiso   1.00
H1287  H     0.76818   0.64079   0.54921   0.00000  Uiso   1.00
H1288  H     0.89851   0.71678   0.42045   0.00000  Uiso   1.00
N1289  N     0.50000   0.75000   0.61907   0.00000  Uiso   1.00
N1290  N     0.50000   0.75000   0.38093   0.00000  Uiso   1.00
N1291  N     0.75000   0.50000   0.61907   0.00000  Uiso   1.00
N1292  N     0.75000   0.50000   0.38093   0.00000  Uiso   1.00
O1293  O     0.54581   0.70419   0.53821   0.00000  Uiso   1.00
O1294  O     0.70420   0.54581   0.46179   0.00000  Uiso   1.00
O1295  O     0.70420   0.54581   0.53821   0.00000  Uiso   1.00
O1296  O     0.79581   0.95419   0.46179   0.00000  Uiso   1.00
O1297  O     0.70420   0.95419   0.46179   0.00000  Uiso   1.00
O1298  O     0.79581   0.54581   0.53821   0.00000  Uiso   1.00
O1299  O     0.79581   0.54581   0.46179   0.00000  Uiso   1.00
O1300  O     0.70420   0.95419   0.53821   0.00000  Uiso   1.00
O1301  O     0.53145   0.88800   0.36875   0.00000  Uiso   1.00
O1302  O     0.95978   0.87520   0.37418   0.00000  Uiso   1.00
O1303  O     0.50221   0.85916   0.44115   0.00000  Uiso   1.00
O1304  O     0.95420   0.79581   0.46179   0.00000  Uiso   1.00
O1305  O     0.50965   0.60557   0.63502   0.00000  Uiso   1.00
O1306  O     0.94396   0.63586   0.62419   0.00000  Uiso   1.00
O1307  O     0.99505   0.64114   0.56088   0.00000  Uiso   1.00
O1308  O     0.96744   0.61295   0.37265   0.00000  Uiso   1.00
O1309  O     0.53942   0.62390   0.37548   0.00000  Uiso   1.00
O1310  O     0.99820   0.64050   0.44357   0.00000  Uiso   1.00
O1311  O     0.98869   0.89396   0.63213   0.00000  Uiso   1.00
O1312  O     0.55526   0.86671   0.62078   0.00000  Uiso   1.00
O1313  O     0.50452   0.85941   0.55834   0.00000  Uiso   1.00
O1314  O     0.78145   0.63800   0.36875   0.00000  Uiso   1.00
O1315  O     0.95420   0.79581   0.53821   0.00000  Uiso   1.00
O1316  O     0.70978   0.62520   0.37418   0.00000  Uiso   1.00
O1317  O     0.75221   0.60916   0.44115   0.00000  Uiso   1.00
O1318  O     0.75965   0.85557   0.63502   0.00000  Uiso   1.00
O1319  O     0.69396   0.88586   0.62419   0.00000  Uiso   1.00
O1320  O     0.74505   0.89114   0.56088   0.00000  Uiso   1.00
O1321  O     0.71744   0.86295   0.37265   0.00000  Uiso   1.00
O1322  O     0.78942   0.87390   0.37548   0.00000  Uiso   1.00
O1323  O     0.74820   0.89050   0.44357   0.00000  Uiso   1.00
O1324  O     0.73869   0.64396   0.63213   0.00000  Uiso   1.00
O1325  O     0.80526   0.61671   0.62078   0.00000  Uiso   1.00
O1326  O     0.54581   0.70419   0.46179   0.00000  Uiso   1.00
O1327  O     0.75452   0.60941   0.55834   0.00000  Uiso   1.00
O1328  O     0.95420   0.70419   0.46179   0.00000  Uiso   1.00
O1329  O     0.54581   0.79581   0.53821   0.00000  Uiso   1.00
O1330  O     0.54581   0.79581   0.46179   0.00000  Uiso   1.00
O1331  O     0.95420   0.70419   0.53821   0.00000  Uiso   1.00
O1332  O     0.79581   0.95419   0.53821   0.00000  Uiso   1.00
S1333  S     0.99890   0.85379   0.38585   0.00000  Uiso   1.00
S1334  S     0.98696   0.64711   0.61556   0.00000  Uiso   1.00
S1335  S     0.50078   0.64618   0.38805   0.00000  Uiso   1.00
S1336  S     0.51251   0.85348   0.61308   0.00000  Uiso   1.00
S1337  S     0.74890   0.60379   0.38585   0.00000  Uiso   1.00
S1338  S     0.73696   0.89711   0.61556   0.00000  Uiso   1.00
S1339  S     0.75078   0.89618   0.38805   0.00000  Uiso   1.00
S1340  S     0.76251   0.60348   0.61308   0.00000  Uiso   1.00
Zn1341 Zn    0.50000   0.75000   0.55104   0.00000  Uiso   1.00
Zn1342 Zn    0.50000   0.75000   0.44896   0.00000  Uiso   1.00
Zn1343 Zn    0.75000   0.50000   0.55104   0.00000  Uiso   1.00
Zn1344 Zn    0.75000   0.50000   0.44896   0.00000  Uiso   1.00
C1345  C     0.06000   0.18991   0.83335   0.00000  Uiso   1.00
C1346  C     0.49770   0.20566   0.97645   0.00000  Uiso   1.00
C1347  C     0.49889   0.20564   0.69166   0.00000  Uiso   1.00
C1348  C     0.00253   0.29444   0.97542   0.00000  Uiso   1.00
C1349  C     0.25127   0.04440   0.69067   0.00000  Uiso   1.00
C1350  C     0.24770   0.45566   0.97645   0.00000  Uiso   1.00
C1351  C     0.24889   0.45564   0.69166   0.00000  Uiso   1.00
C1352  C     0.25253   0.04444   0.97542   0.00000  Uiso   1.00
C1353  C     0.38558   0.14799   0.79134   0.00000  Uiso   1.00
C1354  C     0.11712   0.34784   0.87175   0.00000  Uiso   1.00
C1355  C     0.11448   0.35325   0.79048   0.00000  Uiso   1.00
C1356  C     0.43990   0.30998   0.83329   0.00000  Uiso   1.00
C1357  C     0.38621   0.14389   0.87310   0.00000  Uiso   1.00
C1358  C     0.10616   0.13461   0.87331   0.00000  Uiso   1.00
C1359  C     0.38705   0.35511   0.79299   0.00000  Uiso   1.00
C1360  C     0.39283   0.36374   0.87330   0.00000  Uiso   1.00
C1361  C     0.11348   0.14619   0.79311   0.00000  Uiso   1.00
C1362  C     0.13558   0.39799   0.79134   0.00000  Uiso   1.00
C1363  C     0.36712   0.09784   0.87175   0.00000  Uiso   1.00
C1364  C     0.36448   0.10325   0.79048   0.00000  Uiso   1.00
C1365  C     0.13621   0.39389   0.87310   0.00000  Uiso   1.00
C1366  C     0.35616   0.38461   0.87331   0.00000  Uiso   1.00
C1367  C     0.43734   0.19393   0.83337   0.00000  Uiso   1.00
C1368  C     0.13705   0.10511   0.79299   0.00000  Uiso   1.00
C1369  C     0.14283   0.11374   0.87330   0.00000  Uiso   1.00
C1370  C     0.36348   0.39619   0.79311   0.00000  Uiso   1.00
C1371  C     0.10057   0.33254   0.83130   0.00000  Uiso   1.00
C1372  C     0.40031   0.16500   0.83272   0.00000  Uiso   1.00
C1373  C     0.40649   0.34297   0.83317   0.00000  Uiso   1.00
C1374  C     0.09329   0.15682   0.83327   0.00000  Uiso   1.00
C1375  C     0.35057   0.08254   0.83130   0.00000  Uiso   1.00
C1376  C     0.15031   0.41500   0.83272   0.00000  Uiso   1.00
C1377  C     0.15649   0.09297   0.83317   0.00000  Uiso   1.00
C1378  C     0.06283   0.30538   0.83285   0.00000  Uiso   1.00
C1379  C     0.34329   0.40682   0.83327   0.00000  Uiso   1.00
C1380  C     0.38832   0.17848   0.74850   0.00000  Uiso   1.00
C1381  C     0.12227   0.31091   0.90951   0.00000  Uiso   1.00
C1382  C     0.11112   0.32645   0.74641   0.00000  Uiso   1.00
C1383  C     0.37656   0.17685   0.91191   0.00000  Uiso   1.00
C1384  C     0.08074   0.12606   0.91419   0.00000  Uiso   1.00
C1385  C     0.38340   0.32077   0.75381   0.00000  Uiso   1.00
C1386  C     0.41766   0.37139   0.91412   0.00000  Uiso   1.00
C1387  C     0.11644   0.18117   0.75353   0.00000  Uiso   1.00
C1388  C     0.13832   0.42848   0.74850   0.00000  Uiso   1.00
C1389  C     0.31000   0.43991   0.83335   0.00000  Uiso   1.00
C1390  C     0.37227   0.06091   0.90951   0.00000  Uiso   1.00
C1391  C     0.36112   0.07645   0.74641   0.00000  Uiso   1.00
C1392  C     0.12656   0.42685   0.91191   0.00000  Uiso   1.00
C1393  C     0.33074   0.37606   0.91419   0.00000  Uiso   1.00
C1394  C     0.13340   0.07077   0.75381   0.00000  Uiso   1.00
C1395  C     0.16766   0.12140   0.91412   0.00000  Uiso   1.00
C1396  C     0.36644   0.43117   0.75353   0.00000  Uiso   1.00
C1397  C     0.18990   0.05998   0.83329   0.00000  Uiso   1.00
C1398  C     0.18734   0.44393   0.83337   0.00000  Uiso   1.00
C1399  C     0.31283   0.05538   0.83285   0.00000  Uiso   1.00
C1400  C     0.00127   0.29440   0.69067   0.00000  Uiso   1.00
H1401  H     0.49708   0.39415   0.78075   0.00000  Uiso   1.00
H1402  H     0.40821   0.16161   0.72396   0.00000  Uiso   1.00
H1403  H     0.35846   0.18109   0.73364   0.00000  Uiso   1.00
H1404  H     0.09441   0.30053   0.92707   0.00000  Uiso   1.00
H1405  H     0.13477   0.27680   0.89582   0.00000  Uiso   1.00
H1406  H     0.14329   0.32476   0.93481   0.00000  Uiso   1.00
H1407  H     0.10058   0.28786   0.75002   0.00000  Uiso   1.00
H1408  H     0.09136   0.34570   0.72332   0.00000  Uiso   1.00
H1409  H     0.14085   0.32478   0.73057   0.00000  Uiso   1.00
H1410  H     0.39784   0.20808   0.91622   0.00000  Uiso   1.00
H1411  H     0.34718   0.19284   0.90592   0.00000  Uiso   1.00
H1412  H     0.48090   0.11012   0.88591   0.00000  Uiso   1.00
H1413  H     0.37454   0.15612   0.94392   0.00000  Uiso   1.00
H1414  H     0.07361   0.16086   0.93094   0.00000  Uiso   1.00
H1415  H     0.05488   0.10374   0.90355   0.00000  Uiso   1.00
H1416  H     0.09472   0.10234   0.93968   0.00000  Uiso   1.00
H1417  H     0.41177   0.31414   0.73688   0.00000  Uiso   1.00
H1418  H     0.36963   0.28570   0.76615   0.00000  Uiso   1.00
H1419  H     0.36318   0.33503   0.72799   0.00000  Uiso   1.00
H1420  H     0.42471   0.33627   0.93102   0.00000  Uiso   1.00
H1421  H     0.44356   0.39396   0.90314   0.00000  Uiso   1.00
H1422  H     0.40336   0.39456   0.93954   0.00000  Uiso   1.00
H1423  H     0.00255   0.10524   0.78354   0.00000  Uiso   1.00
H1424  H     0.08820   0.18477   0.73580   0.00000  Uiso   1.00
H1425  H     0.12723   0.21742   0.76562   0.00000  Uiso   1.00
H1426  H     0.13860   0.16926   0.72865   0.00000  Uiso   1.00
H1427  H     0.14851   0.46678   0.75378   0.00000  Uiso   1.00
H1428  H     0.15821   0.41161   0.72396   0.00000  Uiso   1.00
H1429  H     0.10846   0.43109   0.73364   0.00000  Uiso   1.00
H1430  H     0.34441   0.05053   0.92707   0.00000  Uiso   1.00
H1431  H     0.38477   0.02681   0.89582   0.00000  Uiso   1.00
H1432  H     0.39328   0.07476   0.93481   0.00000  Uiso   1.00
H1433  H     0.35058   0.03786   0.75002   0.00000  Uiso   1.00
H1434  H     0.01818   0.39079   0.88255   0.00000  Uiso   1.00
H1435  H     0.34137   0.09570   0.72332   0.00000  Uiso   1.00
H1436  H     0.39085   0.07478   0.73057   0.00000  Uiso   1.00
H1437  H     0.14784   0.45808   0.91623   0.00000  Uiso   1.00
H1438  H     0.09719   0.44285   0.90592   0.00000  Uiso   1.00
H1439  H     0.12454   0.40611   0.94392   0.00000  Uiso   1.00
H1440  H     0.32361   0.41086   0.93094   0.00000  Uiso   1.00
H1441  H     0.30488   0.35374   0.90355   0.00000  Uiso   1.00
H1442  H     0.34471   0.35234   0.93968   0.00000  Uiso   1.00
H1443  H     0.16177   0.06414   0.73688   0.00000  Uiso   1.00
H1444  H     0.11963   0.03570   0.76615   0.00000  Uiso   1.00
H1445  H     0.24708   0.14415   0.78075   0.00000  Uiso   1.00
H1446  H     0.11318   0.08503   0.72799   0.00000  Uiso   1.00
H1447  H     0.17471   0.08627   0.93102   0.00000  Uiso   1.00
H1448  H     0.19356   0.14396   0.90314   0.00000  Uiso   1.00
H1449  H     0.15336   0.14456   0.93954   0.00000  Uiso   1.00
H1450  H     0.33820   0.43477   0.73580   0.00000  Uiso   1.00
H1451  H     0.37723   0.46742   0.76562   0.00000  Uiso   1.00
H1452  H     0.38860   0.41926   0.72865   0.00000  Uiso   1.00
H1453  H     0.23090   0.36012   0.88591   0.00000  Uiso   1.00
H1454  H     0.25255   0.35524   0.78354   0.00000  Uiso   1.00
H1455  H     0.26818   0.14079   0.88255   0.00000  Uiso   1.00
H1456  H     0.39851   0.21678   0.75378   0.00000  Uiso   1.00
N1457  N     0.00000   0.25000   0.95240   0.00000  Uiso   1.00
N1458  N     0.00000   0.25000   0.71427   0.00000  Uiso   1.00
N1459  N     0.25000   0.00000   0.95240   0.00000  Uiso   1.00
N1460  N     0.25000   0.00000   0.71427   0.00000  Uiso   1.00
O1461  O     0.04581   0.20419   0.87154   0.00000  Uiso   1.00
O1462  O     0.20420   0.04581   0.79513   0.00000  Uiso   1.00
O1463  O     0.20420   0.04581   0.87154   0.00000  Uiso   1.00
O1464  O     0.29581   0.45419   0.79513   0.00000  Uiso   1.00
O1465  O     0.20420   0.45419   0.79513   0.00000  Uiso   1.00
O1466  O     0.29581   0.04581   0.87154   0.00000  Uiso   1.00
O1467  O     0.29581   0.04581   0.79513   0.00000  Uiso   1.00
O1468  O     0.20420   0.45419   0.87154   0.00000  Uiso   1.00
O1469  O     0.03145   0.38800   0.70208   0.00000  Uiso   1.00
O1470  O     0.45978   0.37520   0.70752   0.00000  Uiso   1.00
O1471  O     0.00221   0.35916   0.77448   0.00000  Uiso   1.00
O1472  O     0.45420   0.29581   0.79513   0.00000  Uiso   1.00
O1473  O     0.00965   0.10557   0.96836   0.00000  Uiso   1.00
O1474  O     0.44396   0.13586   0.95752   0.00000  Uiso   1.00
O1475  O     0.49505   0.14114   0.89421   0.00000  Uiso   1.00
O1476  O     0.46744   0.11295   0.70598   0.00000  Uiso   1.00
O1477  O     0.03942   0.12390   0.70881   0.00000  Uiso   1.00
O1478  O     0.49820   0.14050   0.77690   0.00000  Uiso   1.00
O1479  O     0.48869   0.39396   0.96547   0.00000  Uiso   1.00
O1480  O     0.05526   0.36671   0.95411   0.00000  Uiso   1.00
O1481  O     0.00452   0.35941   0.89167   0.00000  Uiso   1.00
O1482  O     0.28145   0.13800   0.70208   0.00000  Uiso   1.00
O1483  O     0.45420   0.29581   0.87154   0.00000  Uiso   1.00
O1484  O     0.20978   0.12520   0.70752   0.00000  Uiso   1.00
O1485  O     0.25221   0.10916   0.77448   0.00000  Uiso   1.00
O1486  O     0.25965   0.35557   0.96836   0.00000  Uiso   1.00
O1487  O     0.19396   0.38586   0.95752   0.00000  Uiso   1.00
O1488  O     0.24505   0.39114   0.89421   0.00000  Uiso   1.00
O1489  O     0.21744   0.36295   0.70598   0.00000  Uiso   1.00
O1490  O     0.28942   0.37390   0.70881   0.00000  Uiso   1.00
O1491  O     0.24820   0.39050   0.77690   0.00000  Uiso   1.00
O1492  O     0.23869   0.14396   0.96547   0.00000  Uiso   1.00
O1493  O     0.30526   0.11671   0.95411   0.00000  Uiso   1.00
O1494  O     0.04581   0.20419   0.79513   0.00000  Uiso   1.00
O1495  O     0.25452   0.10941   0.89167   0.00000  Uiso   1.00
O1496  O     0.45420   0.20419   0.79513   0.00000  Uiso   1.00
O1497  O     0.04581   0.29581   0.87154   0.00000  Uiso   1.00
O1498  O     0.04581   0.29581   0.79513   0.00000  Uiso   1.00
O1499  O     0.45420   0.20419   0.87154   0.00000  Uiso   1.00
O1500  O     0.29581   0.45419   0.87154   0.00000  Uiso   1.00
S1501  S     0.49890   0.35379   0.71919   0.00000  Uiso   1.00
S1502  S     0.48696   0.14711   0.94890   0.00000  Uiso   1.00
S1503  S     0.00078   0.14618   0.72139   0.00000  Uiso   1.00
S1504  S     0.01251   0.35348   0.94642   0.00000  Uiso   1.00
S1505  S     0.24890   0.10379   0.71919   0.00000  Uiso   1.00
S1506  S     0.23696   0.39711   0.94890   0.00000  Uiso   1.00
S1507  S     0.25078   0.39618   0.72139   0.00000  Uiso   1.00
S1508  S     0.26251   0.10348   0.94642   0.00000  Uiso   1.00
Zn1509 Zn    0.00000   0.25000   0.88437   0.00000  Uiso   1.00
Zn1510 Zn    0.00000   0.25000   0.78229   0.00000  Uiso   1.00
Zn1511 Zn    0.25000   0.00000   0.88437   0.00000  Uiso   1.00
Zn1512 Zn    0.25000   0.00000   0.78229   0.00000  Uiso   1.00
C1513  C     0.56000   0.18991   0.83335   0.00000  Uiso   1.00
C1514  C     0.99770   0.20566   0.97645   0.00000  Uiso   1.00
C1515  C     0.99889   0.20564   0.69166   0.00000  Uiso   1.00
C1516  C     0.50253   0.29444   0.97542   0.00000  Uiso   1.00
C1517  C     0.75127   0.04440   0.69067   0.00000  Uiso   1.00
C1518  C     0.74770   0.45566   0.97645   0.00000  Uiso   1.00
C1519  C     0.74889   0.45564   0.69166   0.00000  Uiso   1.00
C1520  C     0.75253   0.04444   0.97542   0.00000  Uiso   1.00
C1521  C     0.88558   0.14799   0.79134   0.00000  Uiso   1.00
C1522  C     0.61712   0.34784   0.87175   0.00000  Uiso   1.00
C1523  C     0.61448   0.35325   0.79048   0.00000  Uiso   1.00
C1524  C     0.93990   0.30998   0.83329   0.00000  Uiso   1.00
C1525  C     0.88621   0.14389   0.87310   0.00000  Uiso   1.00
C1526  C     0.60616   0.13461   0.87331   0.00000  Uiso   1.00
C1527  C     0.88705   0.35511   0.79299   0.00000  Uiso   1.00
C1528  C     0.89283   0.36374   0.87330   0.00000  Uiso   1.00
C1529  C     0.61348   0.14619   0.79311   0.00000  Uiso   1.00
C1530  C     0.63558   0.39799   0.79134   0.00000  Uiso   1.00
C1531  C     0.86712   0.09784   0.87175   0.00000  Uiso   1.00
C1532  C     0.86448   0.10325   0.79048   0.00000  Uiso   1.00
C1533  C     0.63621   0.39389   0.87310   0.00000  Uiso   1.00
C1534  C     0.85616   0.38461   0.87331   0.00000  Uiso   1.00
C1535  C     0.93734   0.19393   0.83337   0.00000  Uiso   1.00
C1536  C     0.63705   0.10511   0.79299   0.00000  Uiso   1.00
C1537  C     0.64283   0.11374   0.87330   0.00000  Uiso   1.00
C1538  C     0.86348   0.39619   0.79311   0.00000  Uiso   1.00
C1539  C     0.60057   0.33254   0.83130   0.00000  Uiso   1.00
C1540  C     0.90031   0.16500   0.83272   0.00000  Uiso   1.00
C1541  C     0.90649   0.34297   0.83317   0.00000  Uiso   1.00
C1542  C     0.59329   0.15682   0.83327   0.00000  Uiso   1.00
C1543  C     0.85057   0.08254   0.83130   0.00000  Uiso   1.00
C1544  C     0.65031   0.41500   0.83272   0.00000  Uiso   1.00
C1545  C     0.65649   0.09297   0.83317   0.00000  Uiso   1.00
C1546  C     0.56283   0.30538   0.83285   0.00000  Uiso   1.00
C1547  C     0.84329   0.40682   0.83327   0.00000  Uiso   1.00
C1548  C     0.88832   0.17848   0.74850   0.00000  Uiso   1.00
C1549  C     0.62227   0.31091   0.90951   0.00000  Uiso   1.00
C1550  C     0.61112   0.32645   0.74641   0.00000  Uiso   1.00
C1551  C     0.87656   0.17685   0.91191   0.00000  Uiso   1.00
C1552  C     0.58074   0.12606   0.91419   0.00000  Uiso   1.00
C1553  C     0.88340   0.32077   0.75381   0.00000  Uiso   1.00
C1554  C     0.91766   0.37139   0.91412   0.00000  Uiso   1.00
C1555  C     0.61644   0.18117   0.75353   0.00000  Uiso   1.00
C1556  C     0.63832   0.42848   0.74850   0.00000  Uiso   1.00
C1557  C     0.81000   0.43991   0.83335   0.00000  Uiso   1.00
C1558  C     0.87227   0.06091   0.90951   0.00000  Uiso   1.00
C1559  C     0.86112   0.07645   0.74641   0.00000  Uiso   1.00
C1560  C     0.62656   0.42685   0.91191   0.00000  Uiso   1.00
C1561  C     0.83074   0.37606   0.91419   0.00000  Uiso   1.00
C1562  C     0.63340   0.07077   0.75381   0.00000  Uiso   1.00
C1563  C     0.66766   0.12140   0.91412   0.00000  Uiso   1.00
C1564  C     0.86644   0.43117   0.75353   0.00000  Uiso   1.00
C1565  C     0.68990   0.05998   0.83329   0.00000  Uiso   1.00
C1566  C     0.68734   0.44393   0.83337   0.00000  Uiso   1.00
C1567  C     0.81283   0.05538   0.83285   0.00000  Uiso   1.00
C1568  C     0.50127   0.29440   0.69067   0.00000  Uiso   1.00
H1569  H     0.99708   0.39415   0.78075   0.00000  Uiso   1.00
H1570  H     0.90821   0.16161   0.72396   0.00000  Uiso   1.00
H1571  H     0.85846   0.18109   0.73364   0.00000  Uiso   1.00
H1572  H     0.59441   0.30053   0.92707   0.00000  Uiso   1.00
H1573  H     0.63477   0.27680   0.89582   0.00000  Uiso   1.00
H1574  H     0.64329   0.32476   0.93481   0.00000  Uiso   1.00
H1575  H     0.60058   0.28786   0.75002   0.00000  Uiso   1.00
H1576  H     0.59136   0.34570   0.72332   0.00000  Uiso   1.00
H1577  H     0.64085   0.32478   0.73057   0.00000  Uiso   1.00
H1578  H     0.89784   0.20808   0.91622   0.00000  Uiso   1.00
H1579  H     0.84718   0.19284   0.90592   0.00000  Uiso   1.00
H1580  H     0.98090   0.11012   0.88591   0.00000  Uiso   1.00
H1581  H     0.87454   0.15612   0.94392   0.00000  Uiso   1.00
H1582  H     0.57361   0.16086   0.93094   0.00000  Uiso   1.00
H1583  H     0.55488   0.10374   0.90355   0.00000  Uiso   1.00
H1584  H     0.59472   0.10234   0.93968   0.00000  Uiso   1.00
H1585  H     0.91177   0.31414   0.73688   0.00000  Uiso   1.00
H1586  H     0.86963   0.28570   0.76615   0.00000  Uiso   1.00
H1587  H     0.86318   0.33503   0.72799   0.00000  Uiso   1.00
H1588  H     0.92471   0.33627   0.93102   0.00000  Uiso   1.00
H1589  H     0.94356   0.39396   0.90314   0.00000  Uiso   1.00
H1590  H     0.90336   0.39456   0.93954   0.00000  Uiso   1.00
H1591  H     0.50255   0.10524   0.78354   0.00000  Uiso   1.00
H1592  H     0.58820   0.18477   0.73580   0.00000  Uiso   1.00
H1593  H     0.62723   0.21742   0.76562   0.00000  Uiso   1.00
H1594  H     0.63860   0.16926   0.72865   0.00000  Uiso   1.00
H1595  H     0.64851   0.46678   0.75378   0.00000  Uiso   1.00
H1596  H     0.65821   0.41161   0.72396   0.00000  Uiso   1.00
H1597  H     0.60846   0.43109   0.73364   0.00000  Uiso   1.00
H1598  H     0.84441   0.05053   0.92707   0.00000  Uiso   1.00
H1599  H     0.88477   0.02681   0.89582   0.00000  Uiso   1.00
H1600  H     0.89328   0.07476   0.93481   0.00000  Uiso   1.00
H1601  H     0.85058   0.03786   0.75002   0.00000  Uiso   1.00
H1602  H     0.51818   0.39079   0.88255   0.00000  Uiso   1.00
H1603  H     0.84137   0.09570   0.72332   0.00000  Uiso   1.00
H1604  H     0.89085   0.07478   0.73057   0.00000  Uiso   1.00
H1605  H     0.64784   0.45808   0.91623   0.00000  Uiso   1.00
H1606  H     0.59719   0.44285   0.90592   0.00000  Uiso   1.00
H1607  H     0.62454   0.40611   0.94392   0.00000  Uiso   1.00
H1608  H     0.82361   0.41086   0.93094   0.00000  Uiso   1.00
H1609  H     0.80488   0.35374   0.90355   0.00000  Uiso   1.00
H1610  H     0.84471   0.35234   0.93968   0.00000  Uiso   1.00
H1611  H     0.66177   0.06414   0.73688   0.00000  Uiso   1.00
H1612  H     0.61963   0.03570   0.76615   0.00000  Uiso   1.00
H1613  H     0.74708   0.14415   0.78075   0.00000  Uiso   1.00
H1614  H     0.61318   0.08503   0.72799   0.00000  Uiso   1.00
H1615  H     0.67471   0.08627   0.93102   0.00000  Uiso   1.00
H1616  H     0.69356   0.14396   0.90314   0.00000  Uiso   1.00
H1617  H     0.65336   0.14456   0.93954   0.00000  Uiso   1.00
H1618  H     0.83820   0.43477   0.73580   0.00000  Uiso   1.00
H1619  H     0.87723   0.46742   0.76562   0.00000  Uiso   1.00
H1620  H     0.88860   0.41926   0.72865   0.00000  Uiso   1.00
H1621  H     0.73090   0.36012   0.88591   0.00000  Uiso   1.00
H1622  H     0.75255   0.35524   0.78354   0.00000  Uiso   1.00
H1623  H     0.76818   0.14079   0.88255   0.00000  Uiso   1.00
H1624  H     0.89851   0.21678   0.75378   0.00000  Uiso   1.00
N1625  N     0.50000   0.25000   0.95240   0.00000  Uiso   1.00
N1626  N     0.50000   0.25000   0.71427   0.00000  Uiso   1.00
N1627  N     0.75000   0.00000   0.95240   0.00000  Uiso   1.00
N1628  N     0.75000   0.00000   0.71427   0.00000  Uiso   1.00
O1629  O     0.54581   0.20419   0.87154   0.00000  Uiso   1.00
O1630  O     0.70420   0.04581   0.79513   0.00000  Uiso   1.00
O1631  O     0.70420   0.04581   0.87154   0.00000  Uiso   1.00
O1632  O     0.79581   0.45419   0.79513   0.00000  Uiso   1.00
O1633  O     0.70420   0.45419   0.79513   0.00000  Uiso   1.00
O1634  O     0.79581   0.04581   0.87154   0.00000  Uiso   1.00
O1635  O     0.79581   0.04581   0.79513   0.00000  Uiso   1.00
O1636  O     0.70420   0.45419   0.87154   0.00000  Uiso   1.00
O1637  O     0.53145   0.38800   0.70208   0.00000  Uiso   1.00
O1638  O     0.95978   0.37520   0.70752   0.00000  Uiso   1.00
O1639  O     0.50221   0.35916   0.77448   0.00000  Uiso   1.00
O1640  O     0.95420   0.29581   0.79513   0.00000  Uiso   1.00
O1641  O     0.50965   0.10557   0.96836   0.00000  Uiso   1.00
O1642  O     0.94396   0.13586   0.95752   0.00000  Uiso   1.00
O1643  O     0.99505   0.14114   0.89421   0.00000  Uiso   1.00
O1644  O     0.96744   0.11295   0.70598   0.00000  Uiso   1.00
O1645  O     0.53942   0.12390   0.70881   0.00000  Uiso   1.00
O1646  O     0.99820   0.14050   0.77690   0.00000  Uiso   1.00
O1647  O     0.98869   0.39396   0.96547   0.00000  Uiso   1.00
O1648  O     0.55526   0.36671   0.95411   0.00000  Uiso   1.00
O1649  O     0.50452   0.35941   0.89167   0.00000  Uiso   1.00
O1650  O     0.78145   0.13800   0.70208   0.00000  Uiso   1.00
O1651  O     0.95420   0.29581   0.87154   0.00000  Uiso   1.00
O1652  O     0.70978   0.12520   0.70752   0.00000  Uiso   1.00
O1653  O     0.75221   0.10916   0.77448   0.00000  Uiso   1.00
O1654  O     0.75965   0.35557   0.96836   0.00000  Uiso   1.00
O1655  O     0.69396   0.38586   0.95752   0.00000  Uiso   1.00
O1656  O     0.74505   0.39114   0.89421   0.00000  Uiso   1.00
O1657  O     0.71744   0.36295   0.70598   0.00000  Uiso   1.00
O1658  O     0.78942   0.37390   0.70881   0.00000  Uiso   1.00
O1659  O     0.74820   0.39050   0.77690   0.00000  Uiso   1.00
O1660  O     0.73869   0.14396   0.96547   0.00000  Uiso   1.00
O1661  O     0.80526   0.11671   0.95411   0.00000  Uiso   1.00
O1662  O     0.54581   0.20419   0.79513   0.00000  Uiso   1.00
O1663  O     0.75452   0.10941   0.89167   0.00000  Uiso   1.00
O1664  O     0.95420   0.20419   0.79513   0.00000  Uiso   1.00
O1665  O     0.54581   0.29581   0.87154   0.00000  Uiso   1.00
O1666  O     0.54581   0.29581   0.79513   0.00000  Uiso   1.00
O1667  O     0.95420   0.20419   0.87154   0.00000  Uiso   1.00
O1668  O     0.79581   0.45419   0.87154   0.00000  Uiso   1.00
S1669  S     0.99890   0.35379   0.71919   0.00000  Uiso   1.00
S1670  S     0.98696   0.14711   0.94890   0.00000  Uiso   1.00
S1671  S     0.50078   0.14618   0.72139   0.00000  Uiso   1.00
S1672  S     0.51251   0.35348   0.94642   0.00000  Uiso   1.00
S1673  S     0.74890   0.10379   0.71919   0.00000  Uiso   1.00
S1674  S     0.73696   0.39711   0.94890   0.00000  Uiso   1.00
S1675  S     0.75078   0.39618   0.72139   0.00000  Uiso   1.00
S1676  S     0.76251   0.10348   0.94642   0.00000  Uiso   1.00
Zn1677 Zn    0.50000   0.25000   0.88437   0.00000  Uiso   1.00
Zn1678 Zn    0.50000   0.25000   0.78229   0.00000  Uiso   1.00
Zn1679 Zn    0.75000   0.00000   0.88437   0.00000  Uiso   1.00
Zn1680 Zn    0.75000   0.00000   0.78229   0.00000  Uiso   1.00
C1681  C     0.06000   0.68991   0.83335   0.00000  Uiso   1.00
C1682  C     0.49770   0.70566   0.97645   0.00000  Uiso   1.00
C1683  C     0.49889   0.70564   0.69166   0.00000  Uiso   1.00
C1684  C     0.00253   0.79444   0.97542   0.00000  Uiso   1.00
C1685  C     0.25127   0.54440   0.69067   0.00000  Uiso   1.00
C1686  C     0.24770   0.95566   0.97645   0.00000  Uiso   1.00
C1687  C     0.24889   0.95564   0.69166   0.00000  Uiso   1.00
C1688  C     0.25253   0.54444   0.97542   0.00000  Uiso   1.00
C1689  C     0.38558   0.64799   0.79134   0.00000  Uiso   1.00
C1690  C     0.11712   0.84784   0.87175   0.00000  Uiso   1.00
C1691  C     0.11448   0.85325   0.79048   0.00000  Uiso   1.00
C1692  C     0.43990   0.80998   0.83329   0.00000  Uiso   1.00
C1693  C     0.38621   0.64389   0.87310   0.00000  Uiso   1.00
C1694  C     0.10616   0.63461   0.87331   0.00000  Uiso   1.00
C1695  C     0.38705   0.85511   0.79299   0.00000  Uiso   1.00
C1696  C     0.39283   0.86374   0.87330   0.00000  Uiso   1.00
C1697  C     0.11348   0.64619   0.79311   0.00000  Uiso   1.00
C1698  C     0.13558   0.89799   0.79134   0.00000  Uiso   1.00
C1699  C     0.36712   0.59784   0.87175   0.00000  Uiso   1.00
C1700  C     0.36448   0.60325   0.79048   0.00000  Uiso   1.00
C1701  C     0.13621   0.89389   0.87310   0.00000  Uiso   1.00
C1702  C     0.35616   0.88461   0.87331   0.00000  Uiso   1.00
C1703  C     0.43734   0.69393   0.83337   0.00000  Uiso   1.00
C1704  C     0.13705   0.60511   0.79299   0.00000  Uiso   1.00
C1705  C     0.14283   0.61374   0.87330   0.00000  Uiso   1.00
C1706  C     0.36348   0.89619   0.79311   0.00000  Uiso   1.00
C1707  C     0.10057   0.83254   0.83130   0.00000  Uiso   1.00
C1708  C     0.40031   0.66500   0.83272   0.00000  Uiso   1.00
C1709  C     0.40649   0.84297   0.83317   0.00000  Uiso   1.00
C1710  C     0.09329   0.65682   0.83327   0.00000  Uiso   1.00
C1711  C     0.35057   0.58254   0.83130   0.00000  Uiso   1.00
C1712  C     0.15031   0.91500   0.83272   0.00000  Uiso   1.00
C1713  C     0.15649   0.59297   0.83317   0.00000  Uiso   1.00
C1714  C     0.06283   0.80538   0.83285   0.00000  Uiso   1.00
C1715  C     0.34329   0.90682   0.83327   0.00000  Uiso   1.00
C1716  C     0.38832   0.67848   0.74850   0.00000  Uiso   1.00
C1717  C     0.12227   0.81091   0.90951   0.00000  Uiso   1.00
C1718  C     0.11112   0.82645   0.74641   0.00000  Uiso   1.00
C1719  C     0.37656   0.67685   0.91191   0.00000  Uiso   1.00
C1720  C     0.08074   0.62606   0.91419   0.00000  Uiso   1.00
C1721  C     0.38340   0.82077   0.75381   0.00000  Uiso   1.00
C1722  C     0.41766   0.87139   0.91412   0.00000  Uiso   1.00
C1723  C     0.11644   0.68117   0.75353   0.00000  Uiso   1.00
C1724  C     0.13832   0.92848   0.74850   0.00000  Uiso   1.00
C1725  C     0.31000   0.93991   0.83335   0.00000  Uiso   1.00
C1726  C     0.37227   0.56091   0.90951   0.00000  Uiso   1.00
C1727  C     0.36112   0.57645   0.74641   0.00000  Uiso   1.00
C1728  C     0.12656   0.92685   0.91191   0.00000  Uiso   1.00
C1729  C     0.33074   0.87606   0.91419   0.00000  Uiso   1.00
C1730  C     0.13340   0.57077   0.75381   0.00000  Uiso   1.00
C1731  C     0.16766   0.62140   0.91412   0.00000  Uiso   1.00
C1732  C     0.36644   0.93117   0.75353   0.00000  Uiso   1.00
C1733  C     0.18990   0.55998   0.83329   0.00000  Uiso   1.00
C1734  C     0.18734   0.94393   0.83337   0.00000  Uiso   1.00
C1735  C     0.31283   0.55538   0.83285   0.00000  Uiso   1.00
C1736  C     0.00127   0.79440   0.69067   0.00000  Uiso   1.00
H1737  H     0.49708   0.89415   0.78075   0.00000  Uiso   1.00
H1738  H     0.40821   0.66161   0.72396   0.00000  Uiso   1.00
H1739  H     0.35846   0.68109   0.73364   0.00000  Uiso   1.00
H1740  H     0.09441   0.80053   0.92707   0.00000  Uiso   1.00
H1741  H     0.13477   0.77680   0.89582   0.00000  Uiso   1.00
H1742  H     0.14329   0.82476   0.93481   0.00000  Uiso   1.00
H1743  H     0.10058   0.78786   0.75002   0.00000  Uiso   1.00
H1744  H     0.09136   0.84570   0.72332   0.00000  Uiso   1.00
H1745  H     0.14085   0.82478   0.73057   0.00000  Uiso   1.00
H1746  H     0.39784   0.70808   0.91622   0.00000  Uiso   1.00
H1747  H     0.34718   0.69284   0.90592   0.00000  Uiso   1.00
H1748  H     0.48090   0.61012   0.88591   0.00000  Uiso   1.00
H1749  H     0.37454   0.65612   0.94392   0.00000  Uiso   1.00
H1750  H     0.07361   0.66086   0.93094   0.00000  Uiso   1.00
H1751  H     0.05488   0.60374   0.90355   0.00000  Uiso   1.00
H1752  H     0.09472   0.60234   0.93968   0.00000  Uiso   1.00
H1753  H     0.41177   0.81414   0.73688   0.00000  Uiso   1.00
H1754  H     0.36963   0.78570   0.76615   0.00000  Uiso   1.00
H1755  H     0.36318   0.83503   0.72799   0.00000  Uiso   1.00
H1756  H     0.42471   0.83627   0.93102   0.00000  Uiso   1.00
H1757  H     0.44356   0.89396   0.90314   0.00000  Uiso   1.00
H1758  H     0.40336   0.89456   0.93954   0.00000  Uiso   1.00
H1759  H     0.00255   0.60524   0.78354   0.00000  Uiso   1.00
H1760  H     0.08820   0.68477   0.73580   0.00000  Uiso   1.00
H1761  H     0.12723   0.71742   0.76562   0.00000  Uiso   1.00
H1762  H     0.13860   0.66926   0.72865   0.00000  Uiso   1.00
H1763  H     0.14851   0.96678   0.75378   0.00000  Uiso   1.00
H1764  H     0.15821   0.91161   0.72396   0.00000  Uiso   1.00
H1765  H     0.10846   0.93109   0.73364   0.00000  Uiso   1.00
H1766  H     0.34441   0.55053   0.92707   0.00000  Uiso   1.00
H1767  H     0.38477   0.52681   0.89582   0.00000  Uiso   1.00
H1768  H     0.39328   0.57476   0.93481   0.00000  Uiso   1.00
H1769  H     0.35058   0.53786   0.75002   0.00000  Uiso   1.00
H1770  H     0.01818   0.89079   0.88255   0.00000  Uiso   1.00
H1771  H     0.34137   0.59570   0.72332   0.00000  Uiso   1.00
H1772  H     0.39085   0.57478   0.73057   0.00000  Uiso   1.00
H1773  H     0.14784   0.95808   0.91623   0.00000  Uiso   1.00
H1774  H     0.09719   0.94285   0.90592   0.00000  Uiso   1.00
H1775  H     0.12454   0.90611   0.94392   0.00000  Uiso   1.00
H1776  H     0.32361   0.91086   0.93094   0.00000  Uiso   1.00
H1777  H     0.30488   0.85374   0.90355   0.00000  Uiso   1.00
H1778  H     0.34471   0.85234   0.93968   0.00000  Uiso   1.00
H1779  H     0.16177   0.56414   0.73688   0.00000  Uiso   1.00
H1780  H     0.11963   0.53570   0.76615   0.00000  Uiso   1.00
H1781  H     0.24708   0.64415   0.78075   0.00000  Uiso   1.00
H1782  H     0.11318   0.58503   0.72799   0.00000  Uiso   1.00
H1783  H     0.17471   0.58627   0.93102   0.00000  Uiso   1.00
H1784  H     0.19356   0.64396   0.90314   0.00000  Uiso   1.00
H1785  H     0.15336   0.64456   0.93954   0.00000  Uiso   1.00
H1786  H     0.33820   0.93477   0.73580   0.00000  Uiso   1.00
H1787  H     0.37723   0.96742   0.76562   0.00000  Uiso   1.00
H1788  H     0.38860   0.91926   0.72865   0.00000  Uiso   1.00
H1789  H     0.23090   0.86012   0.88591   0.00000  Uiso   1.00
H1790  H     0.25255   0.85524   0.78354   0.00000  Uiso   1.00
H1791  H     0.26818   0.64079   0.88255   0.00000  Uiso   1.00
H1792  H     0.39851   0.71678   0.75378   0.00000  Uiso   1.00
N1793  N     0.00000   0.75000   0.95240   0.00000  Uiso   1.00
N1794  N     0.00000   0.75000   0.71427   0.00000  Uiso   1.00
N1795  N     0.25000   0.50000   0.95240   0.00000  Uiso   1.00
N1796  N     0.25000   0.50000   0.71427   0.00000  Uiso   1.00
O1797  O     0.04581   0.70419   0.87154   0.00000  Uiso   1.00
O1798  O     0.20420   0.54581   0.79513   0.00000  Uiso   1.00
O1799  O     0.20420   0.54581   0.87154   0.00000  Uiso   1.00
O1800  O     0.29581   0.95419   0.79513   0.00000  Uiso   1.00
O1801  O     0.20420   0.95419   0.79513   0.00000  Uiso   1.00
O1802  O     0.29581   0.54581   0.87154   0.00000  Uiso   1.00
O1803  O     0.29581   0.54581   0.79513   0.00000  Uiso   1.00
O1804  O     0.20420   0.95419   0.87154   0.00000  Uiso   1.00
O1805  O     0.03145   0.88800   0.70208   0.00000  Uiso   1.00
O1806  O     0.45978   0.87520   0.70752   0.00000  Uiso   1.00
O1807  O     0.00221   0.85916   0.77448   0.00000  Uiso   1.00
O1808  O     0.45420   0.79581   0.79513   0.00000  Uiso   1.00
O1809  O     0.00965   0.60557   0.96836   0.00000  Uiso   1.00
O1810  O     0.44396   0.63586   0.95752   0.00000  Uiso   1.00
O1811  O     0.49505   0.64114   0.89421   0.00000  Uiso   1.00
O1812  O     0.46744   0.61295   0.70598   0.00000  Uiso   1.00
O1813  O     0.03942   0.62390   0.70881   0.00000  Uiso   1.00
O1814  O     0.49820   0.64050   0.77690   0.00000  Uiso   1.00
O1815  O     0.48869   0.89396   0.96547   0.00000  Uiso   1.00
O1816  O     0.05526   0.86671   0.95411   0.00000  Uiso   1.00
O1817  O     0.00452   0.85941   0.89167   0.00000  Uiso   1.00
O1818  O     0.28145   0.63800   0.70208   0.00000  Uiso   1.00
O1819  O     0.45420   0.79581   0.87154   0.00000  Uiso   1.00
O1820  O     0.20978   0.62520   0.70752   0.00000  Uiso   1.00
O1821  O     0.25221   0.60916   0.77448   0.00000  Uiso   1.00
O1822  O     0.25965   0.85557   0.96836   0.00000  Uiso   1.00
O1823  O     0.19396   0.88586   0.95752   0.00000  Uiso   1.00
O1824  O     0.24505   0.89114   0.89421   0.00000  Uiso   1.00
O1825  O     0.21744   0.86295   0.70598   0.00000  Uiso   1.00
O1826  O     0.28942   0.87390   0.70881   0.00000  Uiso   1.00
O1827  O     0.24820   0.89050   0.77690   0.00000  Uiso   1.00
O1828  O     0.23869   0.64396   0.96547   0.00000  Uiso   1.00
O1829  O     0.30526   0.61671   0.95411   0.00000  Uiso   1.00
O1830  O     0.04581   0.70419   0.79513   0.00000  Uiso   1.00
O1831  O     0.25452   0.60941   0.89167   0.00000  Uiso   1.00
O1832  O     0.45420   0.70419   0.79513   0.00000  Uiso   1.00
O1833  O     0.04581   0.79581   0.87154   0.00000  Uiso   1.00
O1834  O     0.04581   0.79581   0.79513   0.00000  Uiso   1.00
O1835  O     0.45420   0.70419   0.87154   0.00000  Uiso   1.00
O1836  O     0.29581   0.95419   0.87154   0.00000  Uiso   1.00
S1837  S     0.49890   0.85379   0.71919   0.00000  Uiso   1.00
S1838  S     0.48696   0.64711   0.94890   0.00000  Uiso   1.00
S1839  S     0.00078   0.64618   0.72139   0.00000  Uiso   1.00
S1840  S     0.01251   0.85348   0.94642   0.00000  Uiso   1.00
S1841  S     0.24890   0.60379   0.71919   0.00000  Uiso   1.00
S1842  S     0.23696   0.89711   0.94890   0.00000  Uiso   1.00
S1843  S     0.25078   0.89618   0.72139   0.00000  Uiso   1.00
S1844  S     0.26251   0.60348   0.94642   0.00000  Uiso   1.00
Zn1845 Zn    0.00000   0.75000   0.88437   0.00000  Uiso   1.00
Zn1846 Zn    0.00000   0.75000   0.78229   0.00000  Uiso   1.00
Zn1847 Zn    0.25000   0.50000   0.88437   0.00000  Uiso   1.00
Zn1848 Zn    0.25000   0.50000   0.78229   0.00000  Uiso   1.00
C1849  C     0.56000   0.68991   0.83335   0.00000  Uiso   1.00
C1850  C     0.99770   0.70566   0.97645   0.00000  Uiso   1.00
C1851  C     0.99889   0.70564   0.69166   0.00000  Uiso   1.00
C1852  C     0.50253   0.79444   0.97542   0.00000  Uiso   1.00
C1853  C     0.75127   0.54440   0.69067   0.00000  Uiso   1.00
C1854  C     0.74770   0.95566   0.97645   0.00000  Uiso   1.00
C1855  C     0.74889   0.95564   0.69166   0.00000  Uiso   1.00
C1856  C     0.75253   0.54444   0.97542   0.00000  Uiso   1.00
C1857  C     0.88558   0.64799   0.79134   0.00000  Uiso   1.00
C1858  C     0.61712   0.84784   0.87175   0.00000  Uiso   1.00
C1859  C     0.61448   0.85325   0.79048   0.00000  Uiso   1.00
C1860  C     0.93990   0.80998   0.83329   0.00000  Uiso   1.00
C1861  C     0.88621   0.64389   0.87310   0.00000  Uiso   1.00
C1862  C     0.60616   0.63461   0.87331   0.00000  Uiso   1.00
C1863  C     0.88705   0.85511   0.79299   0.00000  Uiso   1.00
C1864  C     0.89283   0.86374   0.87330   0.00000  Uiso   1.00
C1865  C     0.61348   0.64619   0.79311   0.00000  Uiso   1.00
C1866  C     0.63558   0.89799   0.79134   0.00000  Uiso   1.00
C1867  C     0.86712   0.59784   0.87175   0.00000  Uiso   1.00
C1868  C     0.86448   0.60325   0.79048   0.00000  Uiso   1.00
C1869  C     0.63621   0.89389   0.87310   0.00000  Uiso   1.00
C1870  C     0.85616   0.88461   0.87331   0.00000  Uiso   1.00
C1871  C     0.93734   0.69393   0.83337   0.00000  Uiso   1.00
C1872  C     0.63705   0.60511   0.79299   0.00000  Uiso   1.00
C1873  C     0.64283   0.61374   0.87330   0.00000  Uiso   1.00
C1874  C     0.86348   0.89619   0.79311   0.00000  Uiso   1.00
C1875  C     0.60057   0.83254   0.83130   0.00000  Uiso   1.00
C1876  C     0.90031   0.66500   0.83272   0.00000  Uiso   1.00
C1877  C     0.90649   0.84297   0.83317   0.00000  Uiso   1.00
C1878  C     0.59329   0.65682   0.83327   0.00000  Uiso   1.00
C1879  C     0.85057   0.58254   0.83130   0.00000  Uiso   1.00
C1880  C     0.65031   0.91500   0.83272   0.00000  Uiso   1.00
C1881  C     0.65649   0.59297   0.83317   0.00000  Uiso   1.00
C1882  C     0.56283   0.80538   0.83285   0.00000  Uiso   1.00
C1883  C     0.84329   0.90682   0.83327   0.00000  Uiso   1.00
C1884  C     0.88832   0.67848   0.74850   0.00000  Uiso   1.00
C1885  C     0.62227   0.81091   0.90951   0.00000  Uiso   1.00
C1886  C     0.61112   0.82645   0.74641   0.00000  Uiso   1.00
C1887  C     0.87656   0.67685   0.91191   0.00000  Uiso   1.00
C1888  C     0.58074   0.62606   0.91419   0.00000  Uiso   1.00
C1889  C     0.88340   0.82077   0.75381   0.00000  Uiso   1.00
C1890  C     0.91766   0.87139   0.91412   0.00000  Uiso   1.00
C1891  C     0.61644   0.68117   0.75353   0.00000  Uiso   1.00
C1892  C     0.63832   0.92848   0.74850   0.00000  Uiso   1.00
C1893  C     0.81000   0.93991   0.83335   0.00000  Uiso   1.00
C1894  C     0.87227   0.56091   0.90951   0.00000  Uiso   1.00
C1895  C     0.86112   0.57645   0.74641   0.00000  Uiso   1.00
C1896  C     0.62656   0.92685   0.91191   0.00000  Uiso   1.00
C1897  C     0.83074   0.87606   0.91419   0.00000  Uiso   1.00
C1898  C     0.63340   0.57077   0.75381   0.00000  Uiso   1.00
C1899  C     0.66766   0.62140   0.91412   0.00000  Uiso   1.00
C1900  C     0.86644   0.93117   0.75353   0.00000  Uiso   1.00
C1901  C     0.68990   0.55998   0.83329   0.00000  Uiso   1.00
C1902  C     0.68734   0.94393   0.83337   0.00000  Uiso   1.00
C1903  C     0.81283   0.55538   0.83285   0.00000  Uiso   1.00
C1904  C     0.50127   0.79440   0.69067   0.00000  Uiso   1.00
H1905  H     0.99708   0.89415   0.78075   0.00000  Uiso   1.00
H1906  H     0.90821   0.66161   0.72396   0.00000  Uiso   1.00
H1907  H     0.85846   0.68109   0.73364   0.00000  Uiso   1.00
H1908  H     0.59441   0.80053   0.92707   0.00000  Uiso   1.00
H1909  H     0.63477   0.77680   0.89582   0.00000  Uiso   1.00
H1910  H     0.64329   0.82476   0.93481   0.00000  Uiso   1.00
H1911  H     0.60058   0.78786   0.75002   0.00000  Uiso   1.00
H1912  H     0.59136   0.84570   0.72332   0.00000  Uiso   1.00
H1913  H     0.64085   0.82478   0.73057   0.00000  Uiso   1.00
H1914  H     0.89784   0.70808   0.91622   0.00000  Uiso   1.00
H1915  H     0.84718   0.69284   0.90592   0.00000  Uiso   1.00
H1916  H     0.98090   0.61012   0.88591   0.00000  Uiso   1.00
H1917  H     0.87454   0.65612   0.94392   0.00000  Uiso   1.00
H1918  H     0.57361   0.66086   0.93094   0.00000  Uiso   1.00
H1919  H     0.55488   0.60374   0.90355   0.00000  Uiso   1.00
H1920  H     0.59472   0.60234   0.93968   0.00000  Uiso   1.00
H1921  H     0.91177   0.81414   0.73688   0.00000  Uiso   1.00
H1922  H     0.86963   0.78570   0.76615   0.00000  Uiso   1.00
H1923  H     0.86318   0.83503   0.72799   0.00000  Uiso   1.00
H1924  H     0.92471   0.83627   0.93102   0.00000  Uiso   1.00
H1925  H     0.94356   0.89396   0.90314   0.00000  Uiso   1.00
H1926  H     0.90336   0.89456   0.93954   0.00000  Uiso   1.00
H1927  H     0.50255   0.60524   0.78354   0.00000  Uiso   1.00
H1928  H     0.58820   0.68477   0.73580   0.00000  Uiso   1.00
H1929  H     0.62723   0.71742   0.76562   0.00000  Uiso   1.00
H1930  H     0.63860   0.66926   0.72865   0.00000  Uiso   1.00
H1931  H     0.64851   0.96678   0.75378   0.00000  Uiso   1.00
H1932  H     0.65821   0.91161   0.72396   0.00000  Uiso   1.00
H1933  H     0.60846   0.93109   0.73364   0.00000  Uiso   1.00
H1934  H     0.84441   0.55053   0.92707   0.00000  Uiso   1.00
H1935  H     0.88477   0.52681   0.89582   0.00000  Uiso   1.00
H1936  H     0.89328   0.57476   0.93481   0.00000  Uiso   1.00
H1937  H     0.85058   0.53786   0.75002   0.00000  Uiso   1.00
H1938  H     0.51818   0.89079   0.88255   0.00000  Uiso   1.00
H1939  H     0.84137   0.59570   0.72332   0.00000  Uiso   1.00
H1940  H     0.89085   0.57478   0.73057   0.00000  Uiso   1.00
H1941  H     0.64784   0.95808   0.91623   0.00000  Uiso   1.00
H1942  H     0.59719   0.94285   0.90592   0.00000  Uiso   1.00
H1943  H     0.62454   0.90611   0.94392   0.00000  Uiso   1.00
H1944  H     0.82361   0.91086   0.93094   0.00000  Uiso   1.00
H1945  H     0.80488   0.85374   0.90355   0.00000  Uiso   1.00
H1946  H     0.84471   0.85234   0.93968   0.00000  Uiso   1.00
H1947  H     0.66177   0.56414   0.73688   0.00000  Uiso   1.00
H1948  H     0.61963   0.53570   0.76615   0.00000  Uiso   1.00
H1949  H     0.74708   0.64415   0.78075   0.00000  Uiso   1.00
H1950  H     0.61318   0.58503   0.72799   0.00000  Uiso   1.00
H1951  H     0.67471   0.58627   0.93102   0.00000  Uiso   1.00
H1952  H     0.69356   0.64396   0.90314   0.00000  Uiso   1.00
H1953  H     0.65336   0.64456   0.93954   0.00000  Uiso   1.00
H1954  H     0.83820   0.93477   0.73580   0.00000  Uiso   1.00
H1955  H     0.87723   0.96742   0.76562   0.00000  Uiso   1.00
H1956  H     0.88860   0.91926   0.72865   0.00000  Uiso   1.00
H1957  H     0.73090   0.86012   0.88591   0.00000  Uiso   1.00
H1958  H     0.75255   0.85524   0.78354   0.00000  Uiso   1.00
H1959  H     0.76818   0.64079   0.88255   0.00000  Uiso   1.00
H1960  H     0.89851   0.71678   0.75378   0.00000  Uiso   1.00
N1961  N     0.50000   0.75000   0.95240   0.00000  Uiso   1.00
N1962  N     0.50000   0.75000   0.71427   0.00000  Uiso   1.00
N1963  N     0.75000   0.50000   0.95240   0.00000  Uiso   1.00
N1964  N     0.75000   0.50000   0.71427   0.00000  Uiso   1.00
O1965  O     0.54581   0.70419   0.87154   0.00000  Uiso   1.00
O1966  O     0.70420   0.54581   0.79513   0.00000  Uiso   1.00
O1967  O     0.70420   0.54581   0.87154   0.00000  Uiso   1.00
O1968  O     0.79581   0.95419   0.79513   0.00000  Uiso   1.00
O1969  O     0.70420   0.95419   0.79513   0.00000  Uiso   1.00
O1970  O     0.79581   0.54581   0.87154   0.00000  Uiso   1.00
O1971  O     0.79581   0.54581   0.79513   0.00000  Uiso   1.00
O1972  O     0.70420   0.95419   0.87154   0.00000  Uiso   1.00
O1973  O     0.53145   0.88800   0.70208   0.00000  Uiso   1.00
O1974  O     0.95978   0.87520   0.70752   0.00000  Uiso   1.00
O1975  O     0.50221   0.85916   0.77448   0.00000  Uiso   1.00
O1976  O     0.95420   0.79581   0.79513   0.00000  Uiso   1.00
O1977  O     0.50965   0.60557   0.96836   0.00000  Uiso   1.00
O1978  O     0.94396   0.63586   0.95752   0.00000  Uiso   1.00
O1979  O     0.99505   0.64114   0.89421   0.00000  Uiso   1.00
O1980  O     0.96744   0.61295   0.70598   0.00000  Uiso   1.00
O1981  O     0.53942   0.62390   0.70881   0.00000  Uiso   1.00
O1982  O     0.99820   0.64050   0.77690   0.00000  Uiso   1.00
O1983  O     0.98869   0.89396   0.96547   0.00000  Uiso   1.00
O1984  O     0.55526   0.86671   0.95411   0.00000  Uiso   1.00
O1985  O     0.50452   0.85941   0.89167   0.00000  Uiso   1.00
O1986  O     0.78145   0.63800   0.70208   0.00000  Uiso   1.00
O1987  O     0.95420   0.79581   0.87154   0.00000  Uiso   1.00
O1988  O     0.70978   0.62520   0.70752   0.00000  Uiso   1.00
O1989  O     0.75221   0.60916   0.77448   0.00000  Uiso   1.00
O1990  O     0.75965   0.85557   0.96836   0.00000  Uiso   1.00
O1991  O     0.69396   0.88586   0.95752   0.00000  Uiso   1.00
O1992  O     0.74505   0.89114   0.89421   0.00000  Uiso   1.00
O1993  O     0.71744   0.86295   0.70598   0.00000  Uiso   1.00
O1994  O     0.78942   0.87390   0.70881   0.00000  Uiso   1.00
O1995  O     0.74820   0.89050   0.77690   0.00000  Uiso   1.00
O1996  O     0.73869   0.64396   0.96547   0.00000  Uiso   1.00
O1997  O     0.80526   0.61671   0.95411   0.00000  Uiso   1.00
O1998  O     0.54581   0.70419   0.79513   0.00000  Uiso   1.00
O1999  O     0.75452   0.60941   0.89167   0.00000  Uiso   1.00
O2000  O     0.95420   0.70419   0.79513   0.00000  Uiso   1.00
O2001  O     0.54581   0.79581   0.87154   0.00000  Uiso   1.00
O2002  O     0.54581   0.79581   0.79513   0.00000  Uiso   1.00
O2003  O     0.95420   0.70419   0.87154   0.00000  Uiso   1.00
O2004  O     0.79581   0.95419   0.87154   0.00000  Uiso   1.00
S2005  S     0.99890   0.85379   0.71919   0.00000  Uiso   1.00
S2006  S     0.98696   0.64711   0.94890   0.00000  Uiso   1.00
S2007  S     0.50078   0.64618   0.72139   0.00000  Uiso   1.00
S2008  S     0.51251   0.85348   0.94642   0.00000  Uiso   1.00
S2009  S     0.74890   0.60379   0.71919   0.00000  Uiso   1.00
S2010  S     0.73696   0.89711   0.94890   0.00000  Uiso   1.00
S2011  S     0.75078   0.89618   0.72139   0.00000  Uiso   1.00
S2012  S     0.76251   0.60348   0.94642   0.00000  Uiso   1.00
Zn2013 Zn    0.50000   0.75000   0.88437   0.00000  Uiso   1.00
Zn2014 Zn    0.50000   0.75000   0.78229   0.00000  Uiso   1.00
Zn2015 Zn    0.75000   0.50000   0.88437   0.00000  Uiso   1.00
Zn2016 Zn    0.75000   0.50000   0.78229   0.00000  Uiso   1.00
loop_
_geom_bond_atom_site_label_1
_geom_bond_atom_site_label_2
_geom_bond_distance
_geom_bond_site_symmetry_2
_ccdc_geom_bond_type
C1     O150    1.304   .     A
C1     O117    1.305   .     A
C1     C30     1.461   .     S
C2     S158    1.828   .     S
C2     C675    1.455   .     S
C2     N281    1.396   .     S
C3     C1346   1.455   1_554 S
C3     N282    1.389   .     S
C3     S327    1.838   .     S
C4     N113    1.398   .     A
C4     S160    1.835   .     S
C4     C728    1.456   .     S
C5     N116    1.390   .     A
C5     S161    1.838   .     S
C5     C1352   1.456   1_554 S
C6     S162    1.828   .     S
C6     C679    1.455   .     S
C6     N451    1.396   .     S
C7     S163    1.838   .     S
C7     C1350   1.455   1_554 S
C7     N452    1.389   .     S
C8     N115    1.398   .     A
C8     S164    1.835   .     S
C8     C677    1.456   .     S
C9     C36     1.520   .     S
C9     C20     1.391   .     A
C9     C28     1.418   .     A
C10    C27     1.401   .     A
C10    C37     1.517   .     S
C10    C21     1.391   .     A
C11    C18     1.391   .     A
C11    C27     1.411   .     A
C11    C38     1.519   .     S
C12    C29     1.462   .     S
C12    O139    1.306   .     A
C12    O128    1.305   .     A
C13    C28     1.406   .     A
C13    C19     1.391   .     A
C13    C39     1.516   .     S
C14    C30     1.414   .     A
C14    C40     1.502   .     S
C14    C25     1.378   .     A
C15    C29     1.416   .     A
C15    C41     1.512   .     S
C15    C26     1.390   .     A
C16    C42     1.502   .     S
C16    C22     1.378   .     A
C16    C29     1.414   .     A
C17    C30     1.416   .     A
C17    C24     1.390   .     A
C17    C43     1.511   .     S
C18    C44     1.520   .     S
C18    C32     1.418   .     A
C19    C31     1.401   .     A
C19    C46     1.517   .     S
C20    C47     1.519   .     S
C20    C31     1.411   .     A
C21    C48     1.516   .     S
C21    C32     1.406   .     A
C22    C35     1.414   .     A
C22    C49     1.502   .     S
C23    O152    1.299   .     A
C23    O155    1.311   .     A
C23    C28     1.458   .     S
C24    C50     1.512   .     S
C24    C33     1.416   .     A
C25    C51     1.502   .     S
C25    C33     1.414   .     A
C26    C52     1.511   .     S
C26    C35     1.416   .     A
C27    C34     1.454   .     S
C31    C55     1.454   .     S
C32    C54     1.458   .     S
C33    C53     1.462   .     S
C34    O154    1.298   .     A
C34    O153    1.310   .     A
C35    C45     1.461   .     S
C36    H59     1.110   .     S
C36    H112    1.099   .     S
C36    H58     1.105   .     S
C37    H62     1.105   .     S
C37    H61     1.111   .     S
C37    H60     1.103   .     S
C38    H64     1.103   .     S
C38    H65     1.110   .     S
C38    H63     1.100   .     S
C39    H69     1.107   .     S
C39    H66     1.105   .     S
C39    H67     1.110   .     S
C40    H70     1.107   .     S
C40    H71     1.100   .     S
C40    H72     1.111   .     S
C41    H74     1.106   .     S
C41    H75     1.110   .     S
C41    H73     1.102   .     S
C42    H78     1.111   .     S
C42    H76     1.108   .     S
C42    H77     1.099   .     S
C43    H81     1.106   .     S
C43    H80     1.103   .     S
C43    H82     1.111   .     S
C44    H83     1.099   .     S
C44    H84     1.105   .     S
C44    H85     1.110   .     S
C45    O156    1.305   .     A
C45    O120    1.304   .     A
C46    H87     1.111   .     S
C46    H88     1.105   .     S
C46    H86     1.103   .     S
C47    H92     1.110   .     S
C47    H89     1.100   .     S
C47    H91     1.103   .     S
C48    H95     1.107   .     S
C48    H93     1.105   .     S
C48    H94     1.110   .     S
C49    H98     1.111   .     S
C49    H96     1.107   .     S
C49    H97     1.100   .     S
C50    H99     1.102   .     S
C50    H102    1.110   .     S
C50    H100    1.106   .     S
C51    H103    1.108   .     S
C51    H105    1.111   .     S
C51    H104    1.099   .     S
C52    H107    1.106   .     S
C52    H106    1.103   .     S
C52    H108    1.111   .     S
C53    O118    1.305   .     A
C53    O119    1.306   .     A
C54    O121    1.299   .     A
C54    O124    1.311   .     A
C55    O122    1.310   .     A
C55    O123    1.298   .     A
C56    N114    1.390   .     A
C56    C1348   1.456   1_554 S
C56    S325    1.838   1_455 S
H57    O295    0.991   .     S
H68    O131    0.991   .     S
H79    O302    0.991   1_455 S
H90    O137    0.991   .     S
H101   O141    0.991   .     S
H109   O144    0.991   .     S
H110   O147    0.991   .     S
H111   O151    0.991   .     S
N113   Zn165   2.038   .     S
N113   C170    1.396   1_455 S
N114   Zn166   2.038   .     S
N114   C171    1.389   1_455 S
N115   Zn167   2.038   .     S
N115   C342    1.396   1_545 S
N116   Zn168   2.038   .     S
N116   C343    1.389   1_545 S
O117   Zn165   2.052   .     S
O118   Zn168   2.052   .     S
O119   Zn167   2.051   .     S
O120   Zn504   2.051   .     S
O121   Zn504   1.989   .     S
O122   Zn167   1.989   .     S
O123   Zn168   1.999   .     S
O124   Zn503   1.999   .     S
O125   S325    1.501   1_455 S
O126   S157    1.503   .     D
O127   H225    0.991   1_455 S
O127   S325    1.669   1_455 S
O128   Zn334   2.052   .     S
O129   S326    1.498   1_455 S
O130   S158    1.496   .     D
O131   S158    1.670   .     S
O132   S327    1.502   .     S
O133   S159    1.503   .     D
O134   H247    0.991   .     S
O134   S327    1.670   .     S
O135   S328    1.498   .     S
O136   S160    1.499   .     D
O137   S160    1.671   .     S
O138   S161    1.501   .     D
O139   Zn333   2.051   .     S
O140   S161    1.503   .     D
O141   S161    1.669   .     S
O142   S162    1.498   .     D
O143   S162    1.496   .     D
O144   S162    1.670   .     S
O145   S163    1.502   .     D
O146   S163    1.503   .     D
O147   S163    1.670   .     S
O148   S164    1.498   .     D
O149   S164    1.499   .     D
O150   Zn166   2.051   .     S
O151   S164    1.671   .     S
O152   Zn334   1.989   .     S
O153   Zn165   1.989   .     S
O154   Zn166   1.999   .     S
O155   Zn333   1.999   .     S
O156   Zn503   2.052   .     S
S157   O293    1.501   .     S
S157   C224    1.838   .     S
S157   O295    1.669   .     S
S158   O297    1.498   .     S
S159   O300    1.502   1_455 S
S159   C171    1.838   1_455 S
S159   O302    1.670   1_455 S
S160   O303    1.498   1_455 S
Zn165  O307    2.051   1_455 S
Zn165  O323    1.999   1_455 S
Zn166  O296    2.052   1_455 S
Zn166  O320    1.989   1_455 S
Zn167  O492    2.052   1_545 S
Zn167  O460    1.999   1_545 S
Zn168  O456    2.051   1_545 S
Zn168  O457    1.989   1_545 S
C169   O318    1.304   .     A
C169   O285    1.305   .     A
C169   C198    1.461   .     S
C170   S326    1.828   .     S
C170   C843    1.455   .     S
C170   N113    1.396   1_655 S
C171   C1514   1.455   1_554 S
C171   N114    1.389   1_655 S
C171   S159    1.838   1_655 S
C172   N281    1.398   .     A
C172   S328    1.835   .     S
C172   C896    1.456   .     S
C173   N284    1.390   .     A
C173   S329    1.838   .     S
C173   C1520   1.456   1_554 S
C174   S330    1.828   .     S
C174   C847    1.455   .     S
C174   N619    1.396   .     S
C175   S331    1.838   .     S
C175   C1518   1.455   1_554 S
C175   N620    1.389   .     S
C176   N283    1.398   .     A
C176   S332    1.835   .     S
C176   C845    1.456   .     S
C177   C204    1.520   .     S
C177   C188    1.391   .     A
C177   C196    1.418   .     A
C178   C195    1.401   .     A
C178   C205    1.517   .     S
C178   C189    1.391   .     A
C179   C186    1.391   .     A
C179   C195    1.411   .     A
C179   C206    1.519   .     S
C180   C197    1.462   .     S
C180   O307    1.306   .     A
C180   O296    1.305   .     A
C181   C196    1.406   .     A
C181   C187    1.391   .     A
C181   C207    1.516   .     S
C182   C198    1.414   .     A
C182   C208    1.502   .     S
C182   C193    1.378   .     A
C183   C197    1.416   .     A
C183   C209    1.512   .     S
C183   C194    1.390   .     A
C184   C210    1.502   .     S
C184   C190    1.378   .     A
C184   C197    1.414   .     A
C185   C198    1.416   .     A
C185   C192    1.390   .     A
C185   C211    1.511   .     S
C186   C212    1.520   .     S
C186   C200    1.418   .     A
C187   C199    1.401   .     A
C187   C214    1.517   .     S
C188   C215    1.519   .     S
C188   C199    1.411   .     A
C189   C216    1.516   .     S
C189   C200    1.406   .     A
C190   C203    1.414   .     A
C190   C217    1.502   .     S
C191   O320    1.299   .     A
C191   O323    1.311   .     A
C191   C196    1.458   .     S
C192   C218    1.512   .     S
C192   C201    1.416   .     A
C193   C219    1.502   .     S
C193   C201    1.414   .     A
C194   C220    1.511   .     S
C194   C203    1.416   .     A
C195   C202    1.454   .     S
C199   C223    1.454   .     S
C200   C222    1.458   .     S
C201   C221    1.462   .     S
C202   O322    1.298   .     A
C202   O321    1.310   .     A
C203   C213    1.461   .     S
C204   H227    1.110   .     S
C204   H280    1.099   .     S
C204   H226    1.105   .     S
C205   H230    1.105   .     S
C205   H229    1.111   .     S
C205   H228    1.103   .     S
C206   H232    1.103   .     S
C206   H233    1.110   .     S
C206   H231    1.100   .     S
C207   H237    1.107   .     S
C207   H234    1.105   .     S
C207   H235    1.110   .     S
C208   H238    1.107   .     S
C208   H239    1.100   .     S
C208   H240    1.111   .     S
C209   H242    1.106   .     S
C209   H243    1.110   .     S
C209   H241    1.102   .     S
C210   H246    1.111   .     S
C210   H244    1.108   .     S
C210   H245    1.099   .     S
C211   H249    1.106   .     S
C211   H248    1.103   .     S
C211   H250    1.111   .     S
C212   H251    1.099   .     S
C212   H252    1.105   .     S
C212   H253    1.110   .     S
C213   O324    1.305   .     A
C213   O288    1.304   .     A
C214   H255    1.111   .     S
C214   H256    1.105   .     S
C214   H254    1.103   .     S
C215   H260    1.110   .     S
C215   H257    1.100   .     S
C215   H259    1.103   .     S
C216   H263    1.107   .     S
C216   H261    1.105   .     S
C216   H262    1.110   .     S
C217   H266    1.111   .     S
C217   H264    1.107   .     S
C217   H265    1.100   .     S
C218   H267    1.102   .     S
C218   H270    1.110   .     S
C218   H268    1.106   .     S
C219   H271    1.108   .     S
C219   H273    1.111   .     S
C219   H272    1.099   .     S
C220   H275    1.106   .     S
C220   H274    1.103   .     S
C220   H276    1.111   .     S
C221   O286    1.305   .     A
C221   O287    1.306   .     A
C222   O289    1.299   .     A
C222   O292    1.311   .     A
C223   O290    1.310   .     A
C223   O291    1.298   .     A
C224   N282    1.390   .     A
C224   C1516   1.456   1_554 S
H225   O127    0.991   1_655 S
H236   O299    0.991   .     S
H258   O305    0.991   .     S
H269   O309    0.991   .     S
H277   O312    0.991   .     S
H278   O315    0.991   .     S
H279   O319    0.991   .     S
N281   Zn333   2.038   .     S
N282   Zn334   2.038   .     S
N283   Zn335   2.038   .     S
N283   C510    1.396   1_545 S
N284   Zn336   2.038   .     S
N284   C511    1.389   1_545 S
O285   Zn333   2.052   .     S
O286   Zn336   2.052   .     S
O287   Zn335   2.051   .     S
O288   Zn672   2.051   .     S
O289   Zn672   1.989   .     S
O290   Zn335   1.989   .     S
O291   Zn336   1.999   .     S
O292   Zn671   1.999   .     S
O294   S325    1.503   .     D
O296   Zn166   2.052   1_655 S
O298   S326    1.496   .     D
O299   S326    1.670   .     S
O300   S159    1.502   1_655 S
O301   S327    1.503   .     D
O302   H79     0.991   1_655 S
O302   S159    1.670   1_655 S
O303   S160    1.498   1_655 S
O304   S328    1.499   .     D
O305   S328    1.671   .     S
O306   S329    1.501   .     D
O307   Zn165   2.051   1_655 S
O308   S329    1.503   .     D
O309   S329    1.669   .     S
O310   S330    1.498   .     D
O311   S330    1.496   .     D
O312   S330    1.670   .     S
O313   S331    1.502   .     D
O314   S331    1.503   .     D
O315   S331    1.670   .     S
O316   S332    1.498   .     D
O317   S332    1.499   .     D
O318   Zn334   2.051   .     S
O319   S332    1.671   .     S
O320   Zn166   1.989   1_655 S
O321   Zn333   1.989   .     S
O322   Zn334   1.999   .     S
O323   Zn165   1.999   1_655 S
O324   Zn671   2.052   .     S
S325   O125    1.501   1_655 S
S325   C56     1.838   1_655 S
S325   O127    1.669   1_655 S
S326   O129    1.498   1_655 S
Zn335  O660    2.052   1_545 S
Zn335  O628    1.999   1_545 S
Zn336  O624    2.051   1_545 S
Zn336  O625    1.989   1_545 S
C337   O486    1.304   .     A
C337   O453    1.305   .     A
C337   C366    1.461   .     S
C338   S494    1.828   .     S
C338   C1011   1.455   .     S
C338   N617    1.396   .     S
C339   C1682   1.455   1_554 S
C339   N618    1.389   .     S
C339   S663    1.838   .     S
C340   N449    1.398   .     A
C340   S496    1.835   .     S
C340   C1064   1.456   .     S
C341   N452    1.390   .     A
C341   S497    1.838   .     S
C341   C1688   1.456   1_554 S
C342   S498    1.828   .     S
C342   C1015   1.455   .     S
C342   N115    1.396   1_565 S
C343   S499    1.838   .     S
C343   C1686   1.455   1_554 S
C343   N116    1.389   1_565 S
C344   N451    1.398   .     A
C344   S500    1.835   .     S
C344   C1013   1.456   .     S
C345   C372    1.520   .     S
C345   C356    1.391   .     A
C345   C364    1.418   .     A
C346   C363    1.401   .     A
C346   C373    1.517   .     S
C346   C357    1.391   .     A
C347   C354    1.391   .     A
C347   C363    1.411   .     A
C347   C374    1.519   .     S
C348   C365    1.462   .     S
C348   O475    1.306   .     A
C348   O464    1.305   .     A
C349   C364    1.406   .     A
C349   C355    1.391   .     A
C349   C375    1.516   .     S
C350   C366    1.414   .     A
C350   C376    1.502   .     S
C350   C361    1.378   .     A
C351   C365    1.416   .     A
C351   C377    1.512   .     S
C351   C362    1.390   .     A
C352   C378    1.502   .     S
C352   C358    1.378   .     A
C352   C365    1.414   .     A
C353   C366    1.416   .     A
C353   C360    1.390   .     A
C353   C379    1.511   .     S
C354   C380    1.520   .     S
C354   C368    1.418   .     A
C355   C367    1.401   .     A
C355   C382    1.517   .     S
C356   C383    1.519   .     S
C356   C367    1.411   .     A
C357   C384    1.516   .     S
C357   C368    1.406   .     A
C358   C371    1.414   .     A
C358   C385    1.502   .     S
C359   O488    1.299   .     A
C359   O491    1.311   .     A
C359   C364    1.458   .     S
C360   C386    1.512   .     S
C360   C369    1.416   .     A
C361   C387    1.502   .     S
C361   C369    1.414   .     A
C362   C388    1.511   .     S
C362   C371    1.416   .     A
C363   C370    1.454   .     S
C367   C391    1.454   .     S
C368   C390    1.458   .     S
C369   C389    1.462   .     S
C370   O490    1.298   .     A
C370   O489    1.310   .     A
C371   C381    1.461   .     S
C372   H395    1.110   .     S
C372   H448    1.099   .     S
C372   H394    1.105   .     S
C373   H398    1.105   .     S
C373   H397    1.111   .     S
C373   H396    1.103   .     S
C374   H400    1.103   .     S
C374   H401    1.110   .     S
C374   H399    1.100   .     S
C375   H405    1.107   .     S
C375   H402    1.105   .     S
C375   H403    1.110   .     S
C376   H406    1.107   .     S
C376   H407    1.100   .     S
C376   H408    1.111   .     S
C377   H410    1.106   .     S
C377   H411    1.110   .     S
C377   H409    1.102   .     S
C378   H414    1.111   .     S
C378   H412    1.108   .     S
C378   H413    1.099   .     S
C379   H417    1.106   .     S
C379   H416    1.103   .     S
C379   H418    1.111   .     S
C380   H419    1.099   .     S
C380   H420    1.105   .     S
C380   H421    1.110   .     S
C381   O492    1.305   .     A
C381   O456    1.304   .     A
C382   H423    1.111   .     S
C382   H424    1.105   .     S
C382   H422    1.103   .     S
C383   H428    1.110   .     S
C383   H425    1.100   .     S
C383   H427    1.103   .     S
C384   H431    1.107   .     S
C384   H429    1.105   .     S
C384   H430    1.110   .     S
C385   H434    1.111   .     S
C385   H432    1.107   .     S
C385   H433    1.100   .     S
C386   H435    1.102   .     S
C386   H438    1.110   .     S
C386   H436    1.106   .     S
C387   H439    1.108   .     S
C387   H441    1.111   .     S
C387   H440    1.099   .     S
C388   H443    1.106   .     S
C388   H442    1.103   .     S
C388   H444    1.111   .     S
C389   O454    1.305   .     A
C389   O455    1.306   .     A
C390   O457    1.299   .     A
C390   O460    1.311   .     A
C391   O458    1.310   .     A
C391   O459    1.298   .     A
C392   N450    1.390   .     A
C392   C1684   1.456   1_554 S
C392   S661    1.838   1_455 S
H393   O631    0.991   .     S
H404   O467    0.991   .     S
H415   O638    0.991   1_455 S
H426   O473    0.991   .     S
H437   O477    0.991   .     S
H445   O480    0.991   .     S
H446   O483    0.991   .     S
H447   O487    0.991   .     S
N449   Zn501   2.038   .     S
N449   C506    1.396   1_455 S
N450   Zn502   2.038   .     S
N450   C507    1.389   1_455 S
N451   Zn503   2.038   .     S
N452   Zn504   2.038   .     S
O453   Zn501   2.052   .     S
O454   Zn504   2.052   .     S
O455   Zn503   2.051   .     S
O456   Zn168   2.051   1_565 S
O457   Zn168   1.989   1_565 S
O458   Zn503   1.989   .     S
O459   Zn504   1.999   .     S
O460   Zn167   1.999   1_565 S
O461   S661    1.501   1_455 S
O462   S493    1.503   .     D
O463   H561    0.991   1_455 S
O463   S661    1.669   1_455 S
O464   Zn670   2.052   .     S
O465   S662    1.498   1_455 S
O466   S494    1.496   .     D
O467   S494    1.670   .     S
O468   S663    1.502   .     S
O469   S495    1.503   .     D
O470   H583    0.991   .     S
O470   S663    1.670   .     S
O471   S664    1.498   .     S
O472   S496    1.499   .     D
O473   S496    1.671   .     S
O474   S497    1.501   .     D
O475   Zn669   2.051   .     S
O476   S497    1.503   .     D
O477   S497    1.669   .     S
O478   S498    1.498   .     D
O479   S498    1.496   .     D
O480   S498    1.670   .     S
O481   S499    1.502   .     D
O482   S499    1.503   .     D
O483   S499    1.670   .     S
O484   S500    1.498   .     D
O485   S500    1.499   .     D
O486   Zn502   2.051   .     S
O487   S500    1.671   .     S
O488   Zn670   1.989   .     S
O489   Zn501   1.989   .     S
O490   Zn502   1.999   .     S
O491   Zn669   1.999   .     S
O492   Zn167   2.052   1_565 S
S493   O629    1.501   .     S
S493   C560    1.838   .     S
S493   O631    1.669   .     S
S494   O633    1.498   .     S
S495   O636    1.502   1_455 S
S495   C507    1.838   1_455 S
S495   O638    1.670   1_455 S
S496   O639    1.498   1_455 S
Zn501  O643    2.051   1_455 S
Zn501  O659    1.999   1_455 S
Zn502  O632    2.052   1_455 S
Zn502  O656    1.989   1_455 S
C505   O654    1.304   .     A
C505   O621    1.305   .     A
C505   C534    1.461   .     S
C506   S662    1.828   .     S
C506   C1179   1.455   .     S
C506   N449    1.396   1_655 S
C507   C1850   1.455   1_554 S
C507   N450    1.389   1_655 S
C507   S495    1.838   1_655 S
C508   N617    1.398   .     A
C508   S664    1.835   .     S
C508   C1232   1.456   .     S
C509   N620    1.390   .     A
C509   S665    1.838   .     S
C509   C1856   1.456   1_554 S
C510   S666    1.828   .     S
C510   C1183   1.455   .     S
C510   N283    1.396   1_565 S
C511   S667    1.838   .     S
C511   C1854   1.455   1_554 S
C511   N284    1.389   1_565 S
C512   N619    1.398   .     A
C512   S668    1.835   .     S
C512   C1181   1.456   .     S
C513   C540    1.520   .     S
C513   C524    1.391   .     A
C513   C532    1.418   .     A
C514   C531    1.401   .     A
C514   C541    1.517   .     S
C514   C525    1.391   .     A
C515   C522    1.391   .     A
C515   C531    1.411   .     A
C515   C542    1.519   .     S
C516   C533    1.462   .     S
C516   O643    1.306   .     A
C516   O632    1.305   .     A
C517   C532    1.406   .     A
C517   C523    1.391   .     A
C517   C543    1.516   .     S
C518   C534    1.414   .     A
C518   C544    1.502   .     S
C518   C529    1.378   .     A
C519   C533    1.416   .     A
C519   C545    1.512   .     S
C519   C530    1.390   .     A
C520   C546    1.502   .     S
C520   C526    1.378   .     A
C520   C533    1.414   .     A
C521   C534    1.416   .     A
C521   C528    1.390   .     A
C521   C547    1.511   .     S
C522   C548    1.520   .     S
C522   C536    1.418   .     A
C523   C535    1.401   .     A
C523   C550    1.517   .     S
C524   C551    1.519   .     S
C524   C535    1.411   .     A
C525   C552    1.516   .     S
C525   C536    1.406   .     A
C526   C539    1.414   .     A
C526   C553    1.502   .     S
C527   O656    1.299   .     A
C527   O659    1.311   .     A
C527   C532    1.458   .     S
C528   C554    1.512   .     S
C528   C537    1.416   .     A
C529   C555    1.502   .     S
C529   C537    1.414   .     A
C530   C556    1.511   .     S
C530   C539    1.416   .     A
C531   C538    1.454   .     S
C535   C559    1.454   .     S
C536   C558    1.458   .     S
C537   C557    1.462   .     S
C538   O658    1.298   .     A
C538   O657    1.310   .     A
C539   C549    1.461   .     S
C540   H563    1.110   .     S
C540   H616    1.099   .     S
C540   H562    1.105   .     S
C541   H566    1.105   .     S
C541   H565    1.111   .     S
C541   H564    1.103   .     S
C542   H568    1.103   .     S
C542   H569    1.110   .     S
C542   H567    1.100   .     S
C543   H573    1.107   .     S
C543   H570    1.105   .     S
C543   H571    1.110   .     S
C544   H574    1.107   .     S
C544   H575    1.100   .     S
C544   H576    1.111   .     S
C545   H578    1.106   .     S
C545   H579    1.110   .     S
C545   H577    1.102   .     S
C546   H582    1.111   .     S
C546   H580    1.108   .     S
C546   H581    1.099   .     S
C547   H585    1.106   .     S
C547   H584    1.103   .     S
C547   H586    1.111   .     S
C548   H587    1.099   .     S
C548   H588    1.105   .     S
C548   H589    1.110   .     S
C549   O660    1.305   .     A
C549   O624    1.304   .     A
C550   H591    1.111   .     S
C550   H592    1.105   .     S
C550   H590    1.103   .     S
C551   H596    1.110   .     S
C551   H593    1.100   .     S
C551   H595    1.103   .     S
C552   H599    1.107   .     S
C552   H597    1.105   .     S
C552   H598    1.110   .     S
C553   H602    1.111   .     S
C553   H600    1.107   .     S
C553   H601    1.100   .     S
C554   H603    1.102   .     S
C554   H606    1.110   .     S
C554   H604    1.106   .     S
C555   H607    1.108   .     S
C555   H609    1.111   .     S
C555   H608    1.099   .     S
C556   H611    1.106   .     S
C556   H610    1.103   .     S
C556   H612    1.111   .     S
C557   O622    1.305   .     A
C557   O623    1.306   .     A
C558   O625    1.299   .     A
C558   O628    1.311   .     A
C559   O626    1.310   .     A
C559   O627    1.298   .     A
C560   N618    1.390   .     A
C560   C1852   1.456   1_554 S
H561   O463    0.991   1_655 S
H572   O635    0.991   .     S
H594   O641    0.991   .     S
H605   O645    0.991   .     S
H613   O648    0.991   .     S
H614   O651    0.991   .     S
H615   O655    0.991   .     S
N617   Zn669   2.038   .     S
N618   Zn670   2.038   .     S
N619   Zn671   2.038   .     S
N620   Zn672   2.038   .     S
O621   Zn669   2.052   .     S
O622   Zn672   2.052   .     S
O623   Zn671   2.051   .     S
O624   Zn336   2.051   1_565 S
O625   Zn336   1.989   1_565 S
O626   Zn671   1.989   .     S
O627   Zn672   1.999   .     S
O628   Zn335   1.999   1_565 S
O630   S661    1.503   .     D
O632   Zn502   2.052   1_655 S
O634   S662    1.496   .     D
O635   S662    1.670   .     S
O636   S495    1.502   1_655 S
O637   S663    1.503   .     D
O638   H415    0.991   1_655 S
O638   S495    1.670   1_655 S
O639   S496    1.498   1_655 S
O640   S664    1.499   .     D
O641   S664    1.671   .     S
O642   S665    1.501   .     D
O643   Zn501   2.051   1_655 S
O644   S665    1.503   .     D
O645   S665    1.669   .     S
O646   S666    1.498   .     D
O647   S666    1.496   .     D
O648   S666    1.670   .     S
O649   S667    1.502   .     D
O650   S667    1.503   .     D
O651   S667    1.670   .     S
O652   S668    1.498   .     D
O653   S668    1.499   .     D
O654   Zn670   2.051   .     S
O655   S668    1.671   .     S
O656   Zn502   1.989   1_655 S
O657   Zn669   1.989   .     S
O658   Zn670   1.999   .     S
O659   Zn501   1.999   1_655 S
O660   Zn335   2.052   1_565 S
S661   O461    1.501   1_655 S
S661   C392    1.838   1_655 S
S661   O463    1.669   1_655 S
S662   O465    1.498   1_655 S
C673   O822    1.304   .     A
C673   O789    1.305   .     A
C673   C702    1.461   .     S
C674   S830    1.828   .     S
C674   C1347   1.455   .     S
C674   N953    1.396   .     S
C675   N954    1.389   .     S
C675   S999    1.838   .     S
C676   N785    1.398   .     A
C676   S832    1.835   .     S
C676   C1400   1.456   .     S
C677   N788    1.390   .     A
C677   S833    1.838   .     S
C678   S834    1.828   .     S
C678   C1351   1.455   .     S
C678   N1123   1.396   .     S
C679   S835    1.838   .     S
C679   N1124   1.389   .     S
C680   N787    1.398   .     A
C680   S836    1.835   .     S
C680   C1349   1.456   .     S
C681   C708    1.520   .     S
C681   C692    1.391   .     A
C681   C700    1.418   .     A
C682   C699    1.401   .     A
C682   C709    1.517   .     S
C682   C693    1.391   .     A
C683   C690    1.391   .     A
C683   C699    1.411   .     A
C683   C710    1.519   .     S
C684   C701    1.462   .     S
C684   O811    1.306   .     A
C684   O800    1.305   .     A
C685   C700    1.406   .     A
C685   C691    1.391   .     A
C685   C711    1.516   .     S
C686   C702    1.414   .     A
C686   C712    1.502   .     S
C686   C697    1.378   .     A
C687   C701    1.416   .     A
C687   C713    1.512   .     S
C687   C698    1.390   .     A
C688   C714    1.502   .     S
C688   C694    1.378   .     A
C688   C701    1.414   .     A
C689   C702    1.416   .     A
C689   C696    1.390   .     A
C689   C715    1.511   .     S
C690   C716    1.520   .     S
C690   C704    1.418   .     A
C691   C703    1.401   .     A
C691   C718    1.517   .     S
C692   C719    1.519   .     S
C692   C703    1.411   .     A
C693   C720    1.516   .     S
C693   C704    1.406   .     A
C694   C707    1.414   .     A
C694   C721    1.502   .     S
C695   O824    1.299   .     A
C695   O827    1.311   .     A
C695   C700    1.458   .     S
C696   C722    1.512   .     S
C696   C705    1.416   .     A
C697   C723    1.502   .     S
C697   C705    1.414   .     A
C698   C724    1.511   .     S
C698   C707    1.416   .     A
C699   C706    1.454   .     S
C703   C727    1.454   .     S
C704   C726    1.458   .     S
C705   C725    1.462   .     S
C706   O826    1.298   .     A
C706   O825    1.310   .     A
C707   C717    1.461   .     S
C708   H731    1.110   .     S
C708   H784    1.099   .     S
C708   H730    1.105   .     S
C709   H734    1.105   .     S
C709   H733    1.111   .     S
C709   H732    1.103   .     S
C710   H736    1.103   .     S
C710   H737    1.110   .     S
C710   H735    1.100   .     S
C711   H741    1.107   .     S
C711   H738    1.105   .     S
C711   H739    1.110   .     S
C712   H742    1.107   .     S
C712   H743    1.100   .     S
C712   H744    1.111   .     S
C713   H746    1.106   .     S
C713   H747    1.110   .     S
C713   H745    1.102   .     S
C714   H750    1.111   .     S
C714   H748    1.108   .     S
C714   H749    1.099   .     S
C715   H753    1.106   .     S
C715   H752    1.103   .     S
C715   H754    1.111   .     S
C716   H755    1.099   .     S
C716   H756    1.105   .     S
C716   H757    1.110   .     S
C717   O828    1.305   .     A
C717   O792    1.304   .     A
C718   H759    1.111   .     S
C718   H760    1.105   .     S
C718   H758    1.103   .     S
C719   H764    1.110   .     S
C719   H761    1.100   .     S
C719   H763    1.103   .     S
C720   H767    1.107   .     S
C720   H765    1.105   .     S
C720   H766    1.110   .     S
C721   H770    1.111   .     S
C721   H768    1.107   .     S
C721   H769    1.100   .     S
C722   H771    1.102   .     S
C722   H774    1.110   .     S
C722   H772    1.106   .     S
C723   H775    1.108   .     S
C723   H777    1.111   .     S
C723   H776    1.099   .     S
C724   H779    1.106   .     S
C724   H778    1.103   .     S
C724   H780    1.111   .     S
C725   O790    1.305   .     A
C725   O791    1.306   .     A
C726   O793    1.299   .     A
C726   O796    1.311   .     A
C727   O794    1.310   .     A
C727   O795    1.298   .     A
C728   N786    1.390   .     A
C728   S997    1.838   1_455 S
H729   O967    0.991   .     S
H740   O803    0.991   .     S
H751   O974    0.991   1_455 S
H762   O809    0.991   .     S
H773   O813    0.991   .     S
H781   O816    0.991   .     S
H782   O819    0.991   .     S
H783   O823    0.991   .     S
N785   Zn837   2.038   .     S
N785   C842    1.396   1_455 S
N786   Zn838   2.038   .     S
N786   C843    1.389   1_455 S
N787   Zn839   2.038   .     S
N787   C1014   1.396   1_545 S
N788   Zn840   2.038   .     S
N788   C1015   1.389   1_545 S
O789   Zn837   2.052   .     S
O790   Zn840   2.052   .     S
O791   Zn839   2.051   .     S
O792   Zn1176  2.051   .     S
O793   Zn1176  1.989   .     S
O794   Zn839   1.989   .     S
O795   Zn840   1.999   .     S
O796   Zn1175  1.999   .     S
O797   S997    1.501   1_455 S
O798   S829    1.503   .     D
O799   H897    0.991   1_455 S
O799   S997    1.669   1_455 S
O800   Zn1006  2.052   .     S
O801   S998    1.498   1_455 S
O802   S830    1.496   .     D
O803   S830    1.670   .     S
O804   S999    1.502   .     S
O805   S831    1.503   .     D
O806   H919    0.991   .     S
O806   S999    1.670   .     S
O807   S1000   1.498   .     S
O808   S832    1.499   .     D
O809   S832    1.671   .     S
O810   S833    1.501   .     D
O811   Zn1005  2.051   .     S
O812   S833    1.503   .     D
O813   S833    1.669   .     S
O814   S834    1.498   .     D
O815   S834    1.496   .     D
O816   S834    1.670   .     S
O817   S835    1.502   .     D
O818   S835    1.503   .     D
O819   S835    1.670   .     S
O820   S836    1.498   .     D
O821   S836    1.499   .     D
O822   Zn838   2.051   .     S
O823   S836    1.671   .     S
O824   Zn1006  1.989   .     S
O825   Zn837   1.989   .     S
O826   Zn838   1.999   .     S
O827   Zn1005  1.999   .     S
O828   Zn1175  2.052   .     S
S829   O965    1.501   .     S
S829   C896    1.838   .     S
S829   O967    1.669   .     S
S830   O969    1.498   .     S
S831   O972    1.502   1_455 S
S831   C843    1.838   1_455 S
S831   O974    1.670   1_455 S
S832   O975    1.498   1_455 S
Zn837  O979    2.051   1_455 S
Zn837  O995    1.999   1_455 S
Zn838  O968    2.052   1_455 S
Zn838  O992    1.989   1_455 S
Zn839  O1164   2.052   1_545 S
Zn839  O1132   1.999   1_545 S
Zn840  O1128   2.051   1_545 S
Zn840  O1129   1.989   1_545 S
C841   O990    1.304   .     A
C841   O957    1.305   .     A
C841   C870    1.461   .     S
C842   S998    1.828   .     S
C842   C1515   1.455   .     S
C842   N785    1.396   1_655 S
C843   N786    1.389   1_655 S
C843   S831    1.838   1_655 S
C844   N953    1.398   .     A
C844   S1000   1.835   .     S
C844   C1568   1.456   .     S
C845   N956    1.390   .     A
C845   S1001   1.838   .     S
C846   S1002   1.828   .     S
C846   C1519   1.455   .     S
C846   N1291   1.396   .     S
C847   S1003   1.838   .     S
C847   N1292   1.389   .     S
C848   N955    1.398   .     A
C848   S1004   1.835   .     S
C848   C1517   1.456   .     S
C849   C876    1.520   .     S
C849   C860    1.391   .     A
C849   C868    1.418   .     A
C850   C867    1.401   .     A
C850   C877    1.517   .     S
C850   C861    1.391   .     A
C851   C858    1.391   .     A
C851   C867    1.411   .     A
C851   C878    1.519   .     S
C852   C869    1.462   .     S
C852   O979    1.306   .     A
C852   O968    1.305   .     A
C853   C868    1.406   .     A
C853   C859    1.391   .     A
C853   C879    1.516   .     S
C854   C870    1.414   .     A
C854   C880    1.502   .     S
C854   C865    1.378   .     A
C855   C869    1.416   .     A
C855   C881    1.512   .     S
C855   C866    1.390   .     A
C856   C882    1.502   .     S
C856   C862    1.378   .     A
C856   C869    1.414   .     A
C857   C870    1.416   .     A
C857   C864    1.390   .     A
C857   C883    1.511   .     S
C858   C884    1.520   .     S
C858   C872    1.418   .     A
C859   C871    1.401   .     A
C859   C886    1.517   .     S
C860   C887    1.519   .     S
C860   C871    1.411   .     A
C861   C888    1.516   .     S
C861   C872    1.406   .     A
C862   C875    1.414   .     A
C862   C889    1.502   .     S
C863   O992    1.299   .     A
C863   O995    1.311   .     A
C863   C868    1.458   .     S
C864   C890    1.512   .     S
C864   C873    1.416   .     A
C865   C891    1.502   .     S
C865   C873    1.414   .     A
C866   C892    1.511   .     S
C866   C875    1.416   .     A
C867   C874    1.454   .     S
C871   C895    1.454   .     S
C872   C894    1.458   .     S
C873   C893    1.462   .     S
C874   O994    1.298   .     A
C874   O993    1.310   .     A
C875   C885    1.461   .     S
C876   H899    1.110   .     S
C876   H952    1.099   .     S
C876   H898    1.105   .     S
C877   H902    1.105   .     S
C877   H901    1.111   .     S
C877   H900    1.103   .     S
C878   H904    1.103   .     S
C878   H905    1.110   .     S
C878   H903    1.100   .     S
C879   H909    1.107   .     S
C879   H906    1.105   .     S
C879   H907    1.110   .     S
C880   H910    1.107   .     S
C880   H911    1.100   .     S
C880   H912    1.111   .     S
C881   H914    1.106   .     S
C881   H915    1.110   .     S
C881   H913    1.102   .     S
C882   H918    1.111   .     S
C882   H916    1.108   .     S
C882   H917    1.099   .     S
C883   H921    1.106   .     S
C883   H920    1.103   .     S
C883   H922    1.111   .     S
C884   H923    1.099   .     S
C884   H924    1.105   .     S
C884   H925    1.110   .     S
C885   O996    1.305   .     A
C885   O960    1.304   .     A
C886   H927    1.111   .     S
C886   H928    1.105   .     S
C886   H926    1.103   .     S
C887   H932    1.110   .     S
C887   H929    1.100   .     S
C887   H931    1.103   .     S
C888   H935    1.107   .     S
C888   H933    1.105   .     S
C888   H934    1.110   .     S
C889   H938    1.111   .     S
C889   H936    1.107   .     S
C889   H937    1.100   .     S
C890   H939    1.102   .     S
C890   H942    1.110   .     S
C890   H940    1.106   .     S
C891   H943    1.108   .     S
C891   H945    1.111   .     S
C891   H944    1.099   .     S
C892   H947    1.106   .     S
C892   H946    1.103   .     S
C892   H948    1.111   .     S
C893   O958    1.305   .     A
C893   O959    1.306   .     A
C894   O961    1.299   .     A
C894   O964    1.311   .     A
C895   O962    1.310   .     A
C895   O963    1.298   .     A
C896   N954    1.390   .     A
H897   O799    0.991   1_655 S
H908   O971    0.991   .     S
H930   O977    0.991   .     S
H941   O981    0.991   .     S
H949   O984    0.991   .     S
H950   O987    0.991   .     S
H951   O991    0.991   .     S
N953   Zn1005  2.038   .     S
N954   Zn1006  2.038   .     S
N955   Zn1007  2.038   .     S
N955   C1182   1.396   1_545 S
N956   Zn1008  2.038   .     S
N956   C1183   1.389   1_545 S
O957   Zn1005  2.052   .     S
O958   Zn1008  2.052   .     S
O959   Zn1007  2.051   .     S
O960   Zn1344  2.051   .     S
O961   Zn1344  1.989   .     S
O962   Zn1007  1.989   .     S
O963   Zn1008  1.999   .     S
O964   Zn1343  1.999   .     S
O966   S997    1.503   .     D
O968   Zn838   2.052   1_655 S
O970   S998    1.496   .     D
O971   S998    1.670   .     S
O972   S831    1.502   1_655 S
O973   S999    1.503   .     D
O974   H751    0.991   1_655 S
O974   S831    1.670   1_655 S
O975   S832    1.498   1_655 S
O976   S1000   1.499   .     D
O977   S1000   1.671   .     S
O978   S1001   1.501   .     D
O979   Zn837   2.051   1_655 S
O980   S1001   1.503   .     D
O981   S1001   1.669   .     S
O982   S1002   1.498   .     D
O983   S1002   1.496   .     D
O984   S1002   1.670   .     S
O985   S1003   1.502   .     D
O986   S1003   1.503   .     D
O987   S1003   1.670   .     S
O988   S1004   1.498   .     D
O989   S1004   1.499   .     D
O990   Zn1006  2.051   .     S
O991   S1004   1.671   .     S
O992   Zn838   1.989   1_655 S
O993   Zn1005  1.989   .     S
O994   Zn1006  1.999   .     S
O995   Zn837   1.999   1_655 S
O996   Zn1343  2.052   .     S
S997   O797    1.501   1_655 S
S997   C728    1.838   1_655 S
S997   O799    1.669   1_655 S
S998   O801    1.498   1_655 S
Zn1007 O1332   2.052   1_545 S
Zn1007 O1300   1.999   1_545 S
Zn1008 O1296   2.051   1_545 S
Zn1008 O1297   1.989   1_545 S
C1009  O1158   1.304   .     A
C1009  O1125   1.305   .     A
C1009  C1038   1.461   .     S
C1010  S1166   1.828   .     S
C1010  C1683   1.455   .     S
C1010  N1289   1.396   .     S
C1011  N1290   1.389   .     S
C1011  S1335   1.838   .     S
C1012  N1121   1.398   .     A
C1012  S1168   1.835   .     S
C1012  C1736   1.456   .     S
C1013  N1124   1.390   .     A
C1013  S1169   1.838   .     S
C1014  S1170   1.828   .     S
C1014  C1687   1.455   .     S
C1014  N787    1.396   1_565 S
C1015  S1171   1.838   .     S
C1015  N788    1.389   1_565 S
C1016  N1123   1.398   .     A
C1016  S1172   1.835   .     S
C1016  C1685   1.456   .     S
C1017  C1044   1.520   .     S
C1017  C1028   1.391   .     A
C1017  C1036   1.418   .     A
C1018  C1035   1.401   .     A
C1018  C1045   1.517   .     S
C1018  C1029   1.391   .     A
C1019  C1026   1.391   .     A
C1019  C1035   1.411   .     A
C1019  C1046   1.519   .     S
C1020  C1037   1.462   .     S
C1020  O1147   1.306   .     A
C1020  O1136   1.305   .     A
C1021  C1036   1.406   .     A
C1021  C1027   1.391   .     A
C1021  C1047   1.516   .     S
C1022  C1038   1.414   .     A
C1022  C1048   1.502   .     S
C1022  C1033   1.378   .     A
C1023  C1037   1.416   .     A
C1023  C1049   1.512   .     S
C1023  C1034   1.390   .     A
C1024  C1050   1.502   .     S
C1024  C1030   1.378   .     A
C1024  C1037   1.414   .     A
C1025  C1038   1.416   .     A
C1025  C1032   1.390   .     A
C1025  C1051   1.511   .     S
C1026  C1052   1.520   .     S
C1026  C1040   1.418   .     A
C1027  C1039   1.401   .     A
C1027  C1054   1.517   .     S
C1028  C1055   1.519   .     S
C1028  C1039   1.411   .     A
C1029  C1056   1.516   .     S
C1029  C1040   1.406   .     A
C1030  C1043   1.414   .     A
C1030  C1057   1.502   .     S
C1031  O1160   1.299   .     A
C1031  O1163   1.311   .     A
C1031  C1036   1.458   .     S
C1032  C1058   1.512   .     S
C1032  C1041   1.416   .     A
C1033  C1059   1.502   .     S
C1033  C1041   1.414   .     A
C1034  C1060   1.511   .     S
C1034  C1043   1.416   .     A
C1035  C1042   1.454   .     S
C1039  C1063   1.454   .     S
C1040  C1062   1.458   .     S
C1041  C1061   1.462   .     S
C1042  O1162   1.298   .     A
C1042  O1161   1.310   .     A
C1043  C1053   1.461   .     S
C1044  H1067   1.110   .     S
C1044  H1120   1.099   .     S
C1044  H1066   1.105   .     S
C1045  H1070   1.105   .     S
C1045  H1069   1.111   .     S
C1045  H1068   1.103   .     S
C1046  H1072   1.103   .     S
C1046  H1073   1.110   .     S
C1046  H1071   1.100   .     S
C1047  H1077   1.107   .     S
C1047  H1074   1.105   .     S
C1047  H1075   1.110   .     S
C1048  H1078   1.107   .     S
C1048  H1079   1.100   .     S
C1048  H1080   1.111   .     S
C1049  H1082   1.106   .     S
C1049  H1083   1.110   .     S
C1049  H1081   1.102   .     S
C1050  H1086   1.111   .     S
C1050  H1084   1.108   .     S
C1050  H1085   1.099   .     S
C1051  H1089   1.106   .     S
C1051  H1088   1.103   .     S
C1051  H1090   1.111   .     S
C1052  H1091   1.099   .     S
C1052  H1092   1.105   .     S
C1052  H1093   1.110   .     S
C1053  O1164   1.305   .     A
C1053  O1128   1.304   .     A
C1054  H1095   1.111   .     S
C1054  H1096   1.105   .     S
C1054  H1094   1.103   .     S
C1055  H1100   1.110   .     S
C1055  H1097   1.100   .     S
C1055  H1099   1.103   .     S
C1056  H1103   1.107   .     S
C1056  H1101   1.105   .     S
C1056  H1102   1.110   .     S
C1057  H1106   1.111   .     S
C1057  H1104   1.107   .     S
C1057  H1105   1.100   .     S
C1058  H1107   1.102   .     S
C1058  H1110   1.110   .     S
C1058  H1108   1.106   .     S
C1059  H1111   1.108   .     S
C1059  H1113   1.111   .     S
C1059  H1112   1.099   .     S
C1060  H1115   1.106   .     S
C1060  H1114   1.103   .     S
C1060  H1116   1.111   .     S
C1061  O1126   1.305   .     A
C1061  O1127   1.306   .     A
C1062  O1129   1.299   .     A
C1062  O1132   1.311   .     A
C1063  O1130   1.310   .     A
C1063  O1131   1.298   .     A
C1064  N1122   1.390   .     A
C1064  S1333   1.838   1_455 S
H1065  O1303   0.991   .     S
H1076  O1139   0.991   .     S
H1087  O1310   0.991   1_455 S
H1098  O1145   0.991   .     S
H1109  O1149   0.991   .     S
H1117  O1152   0.991   .     S
H1118  O1155   0.991   .     S
H1119  O1159   0.991   .     S
N1121  Zn1173  2.038   .     S
N1121  C1178   1.396   1_455 S
N1122  Zn1174  2.038   .     S
N1122  C1179   1.389   1_455 S
N1123  Zn1175  2.038   .     S
N1124  Zn1176  2.038   .     S
O1125  Zn1173  2.052   .     S
O1126  Zn1176  2.052   .     S
O1127  Zn1175  2.051   .     S
O1128  Zn840   2.051   1_565 S
O1129  Zn840   1.989   1_565 S
O1130  Zn1175  1.989   .     S
O1131  Zn1176  1.999   .     S
O1132  Zn839   1.999   1_565 S
O1133  S1333   1.501   1_455 S
O1134  S1165   1.503   .     D
O1135  H1233   0.991   1_455 S
O1135  S1333   1.669   1_455 S
O1136  Zn1342  2.052   .     S
O1137  S1334   1.498   1_455 S
O1138  S1166   1.496   .     D
O1139  S1166   1.670   .     S
O1140  S1335   1.502   .     S
O1141  S1167   1.503   .     D
O1142  H1255   0.991   .     S
O1142  S1335   1.670   .     S
O1143  S1336   1.498   .     S
O1144  S1168   1.499   .     D
O1145  S1168   1.671   .     S
O1146  S1169   1.501   .     D
O1147  Zn1341  2.051   .     S
O1148  S1169   1.503   .     D
O1149  S1169   1.669   .     S
O1150  S1170   1.498   .     D
O1151  S1170   1.496   .     D
O1152  S1170   1.670   .     S
O1153  S1171   1.502   .     D
O1154  S1171   1.503   .     D
O1155  S1171   1.670   .     S
O1156  S1172   1.498   .     D
O1157  S1172   1.499   .     D
O1158  Zn1174  2.051   .     S
O1159  S1172   1.671   .     S
O1160  Zn1342  1.989   .     S
O1161  Zn1173  1.989   .     S
O1162  Zn1174  1.999   .     S
O1163  Zn1341  1.999   .     S
O1164  Zn839   2.052   1_565 S
S1165  O1301   1.501   .     S
S1165  C1232   1.838   .     S
S1165  O1303   1.669   .     S
S1166  O1305   1.498   .     S
S1167  O1308   1.502   1_455 S
S1167  C1179   1.838   1_455 S
S1167  O1310   1.670   1_455 S
S1168  O1311   1.498   1_455 S
Zn1173 O1315   2.051   1_455 S
Zn1173 O1331   1.999   1_455 S
Zn1174 O1304   2.052   1_455 S
Zn1174 O1328   1.989   1_455 S
C1177  O1326   1.304   .     A
C1177  O1293   1.305   .     A
C1177  C1206   1.461   .     S
C1178  S1334   1.828   .     S
C1178  C1851   1.455   .     S
C1178  N1121   1.396   1_655 S
C1179  N1122   1.389   1_655 S
C1179  S1167   1.838   1_655 S
C1180  N1289   1.398   .     A
C1180  S1336   1.835   .     S
C1180  C1904   1.456   .     S
C1181  N1292   1.390   .     A
C1181  S1337   1.838   .     S
C1182  S1338   1.828   .     S
C1182  C1855   1.455   .     S
C1182  N955    1.396   1_565 S
C1183  S1339   1.838   .     S
C1183  N956    1.389   1_565 S
C1184  N1291   1.398   .     A
C1184  S1340   1.835   .     S
C1184  C1853   1.456   .     S
C1185  C1212   1.520   .     S
C1185  C1196   1.391   .     A
C1185  C1204   1.418   .     A
C1186  C1203   1.401   .     A
C1186  C1213   1.517   .     S
C1186  C1197   1.391   .     A
C1187  C1194   1.391   .     A
C1187  C1203   1.411   .     A
C1187  C1214   1.519   .     S
C1188  C1205   1.462   .     S
C1188  O1315   1.306   .     A
C1188  O1304   1.305   .     A
C1189  C1204   1.406   .     A
C1189  C1195   1.391   .     A
C1189  C1215   1.516   .     S
C1190  C1206   1.414   .     A
C1190  C1216   1.502   .     S
C1190  C1201   1.378   .     A
C1191  C1205   1.416   .     A
C1191  C1217   1.512   .     S
C1191  C1202   1.390   .     A
C1192  C1218   1.502   .     S
C1192  C1198   1.378   .     A
C1192  C1205   1.414   .     A
C1193  C1206   1.416   .     A
C1193  C1200   1.390   .     A
C1193  C1219   1.511   .     S
C1194  C1220   1.520   .     S
C1194  C1208   1.418   .     A
C1195  C1207   1.401   .     A
C1195  C1222   1.517   .     S
C1196  C1223   1.519   .     S
C1196  C1207   1.411   .     A
C1197  C1224   1.516   .     S
C1197  C1208   1.406   .     A
C1198  C1211   1.414   .     A
C1198  C1225   1.502   .     S
C1199  O1328   1.299   .     A
C1199  O1331   1.311   .     A
C1199  C1204   1.458   .     S
C1200  C1226   1.512   .     S
C1200  C1209   1.416   .     A
C1201  C1227   1.502   .     S
C1201  C1209   1.414   .     A
C1202  C1228   1.511   .     S
C1202  C1211   1.416   .     A
C1203  C1210   1.454   .     S
C1207  C1231   1.454   .     S
C1208  C1230   1.458   .     S
C1209  C1229   1.462   .     S
C1210  O1330   1.298   .     A
C1210  O1329   1.310   .     A
C1211  C1221   1.461   .     S
C1212  H1235   1.110   .     S
C1212  H1288   1.099   .     S
C1212  H1234   1.105   .     S
C1213  H1238   1.105   .     S
C1213  H1237   1.111   .     S
C1213  H1236   1.103   .     S
C1214  H1240   1.103   .     S
C1214  H1241   1.110   .     S
C1214  H1239   1.100   .     S
C1215  H1245   1.107   .     S
C1215  H1242   1.105   .     S
C1215  H1243   1.110   .     S
C1216  H1246   1.107   .     S
C1216  H1247   1.100   .     S
C1216  H1248   1.111   .     S
C1217  H1250   1.106   .     S
C1217  H1251   1.110   .     S
C1217  H1249   1.102   .     S
C1218  H1254   1.111   .     S
C1218  H1252   1.108   .     S
C1218  H1253   1.099   .     S
C1219  H1257   1.106   .     S
C1219  H1256   1.103   .     S
C1219  H1258   1.111   .     S
C1220  H1259   1.099   .     S
C1220  H1260   1.105   .     S
C1220  H1261   1.110   .     S
C1221  O1332   1.305   .     A
C1221  O1296   1.304   .     A
C1222  H1263   1.111   .     S
C1222  H1264   1.105   .     S
C1222  H1262   1.103   .     S
C1223  H1268   1.110   .     S
C1223  H1265   1.100   .     S
C1223  H1267   1.103   .     S
C1224  H1271   1.107   .     S
C1224  H1269   1.105   .     S
C1224  H1270   1.110   .     S
C1225  H1274   1.111   .     S
C1225  H1272   1.107   .     S
C1225  H1273   1.100   .     S
C1226  H1275   1.102   .     S
C1226  H1278   1.110   .     S
C1226  H1276   1.106   .     S
C1227  H1279   1.108   .     S
C1227  H1281   1.111   .     S
C1227  H1280   1.099   .     S
C1228  H1283   1.106   .     S
C1228  H1282   1.103   .     S
C1228  H1284   1.111   .     S
C1229  O1294   1.305   .     A
C1229  O1295   1.306   .     A
C1230  O1297   1.299   .     A
C1230  O1300   1.311   .     A
C1231  O1298   1.310   .     A
C1231  O1299   1.298   .     A
C1232  N1290   1.390   .     A
H1233  O1135   0.991   1_655 S
H1244  O1307   0.991   .     S
H1266  O1313   0.991   .     S
H1277  O1317   0.991   .     S
H1285  O1320   0.991   .     S
H1286  O1323   0.991   .     S
H1287  O1327   0.991   .     S
N1289  Zn1341  2.038   .     S
N1290  Zn1342  2.038   .     S
N1291  Zn1343  2.038   .     S
N1292  Zn1344  2.038   .     S
O1293  Zn1341  2.052   .     S
O1294  Zn1344  2.052   .     S
O1295  Zn1343  2.051   .     S
O1296  Zn1008  2.051   1_565 S
O1297  Zn1008  1.989   1_565 S
O1298  Zn1343  1.989   .     S
O1299  Zn1344  1.999   .     S
O1300  Zn1007  1.999   1_565 S
O1302  S1333   1.503   .     D
O1304  Zn1174  2.052   1_655 S
O1306  S1334   1.496   .     D
O1307  S1334   1.670   .     S
O1308  S1167   1.502   1_655 S
O1309  S1335   1.503   .     D
O1310  H1087   0.991   1_655 S
O1310  S1167   1.670   1_655 S
O1311  S1168   1.498   1_655 S
O1312  S1336   1.499   .     D
O1313  S1336   1.671   .     S
O1314  S1337   1.501   .     D
O1315  Zn1173  2.051   1_655 S
O1316  S1337   1.503   .     D
O1317  S1337   1.669   .     S
O1318  S1338   1.498   .     D
O1319  S1338   1.496   .     D
O1320  S1338   1.670   .     S
O1321  S1339   1.502   .     D
O1322  S1339   1.503   .     D
O1323  S1339   1.670   .     S
O1324  S1340   1.498   .     D
O1325  S1340   1.499   .     D
O1326  Zn1342  2.051   .     S
O1327  S1340   1.671   .     S
O1328  Zn1174  1.989   1_655 S
O1329  Zn1341  1.989   .     S
O1330  Zn1342  1.999   .     S
O1331  Zn1173  1.999   1_655 S
O1332  Zn1007  2.052   1_565 S
S1333  O1133   1.501   1_655 S
S1333  C1064   1.838   1_655 S
S1333  O1135   1.669   1_655 S
S1334  O1137   1.498   1_655 S
C1345  O1494   1.304   .     A
C1345  O1461   1.305   .     A
C1345  C1374   1.461   .     S
C1346  S1502   1.828   .     S
C1346  C3      1.455   1_556 S
C1346  N1625   1.396   .     S
C1347  N1626   1.389   .     S
C1347  S1671   1.838   .     S
C1348  N1457   1.398   .     A
C1348  S1504   1.835   .     S
C1348  C56     1.456   1_556 S
C1349  N1460   1.390   .     A
C1349  S1505   1.838   .     S
C1350  S1506   1.828   .     S
C1350  C7      1.455   1_556 S
C1350  N1795   1.396   .     S
C1351  S1507   1.838   .     S
C1351  N1796   1.389   .     S
C1352  N1459   1.398   .     A
C1352  S1508   1.835   .     S
C1352  C5      1.456   1_556 S
C1353  C1380   1.520   .     S
C1353  C1364   1.391   .     A
C1353  C1372   1.418   .     A
C1354  C1371   1.401   .     A
C1354  C1381   1.517   .     S
C1354  C1365   1.391   .     A
C1355  C1362   1.391   .     A
C1355  C1371   1.411   .     A
C1355  C1382   1.519   .     S
C1356  C1373   1.462   .     S
C1356  O1483   1.306   .     A
C1356  O1472   1.305   .     A
C1357  C1372   1.406   .     A
C1357  C1363   1.391   .     A
C1357  C1383   1.516   .     S
C1358  C1374   1.414   .     A
C1358  C1384   1.502   .     S
C1358  C1369   1.378   .     A
C1359  C1373   1.416   .     A
C1359  C1385   1.512   .     S
C1359  C1370   1.390   .     A
C1360  C1386   1.502   .     S
C1360  C1366   1.378   .     A
C1360  C1373   1.414   .     A
C1361  C1374   1.416   .     A
C1361  C1368   1.390   .     A
C1361  C1387   1.511   .     S
C1362  C1388   1.520   .     S
C1362  C1376   1.418   .     A
C1363  C1375   1.401   .     A
C1363  C1390   1.517   .     S
C1364  C1391   1.519   .     S
C1364  C1375   1.411   .     A
C1365  C1392   1.516   .     S
C1365  C1376   1.406   .     A
C1366  C1379   1.414   .     A
C1366  C1393   1.502   .     S
C1367  O1496   1.299   .     A
C1367  O1499   1.311   .     A
C1367  C1372   1.458   .     S
C1368  C1394   1.512   .     S
C1368  C1377   1.416   .     A
C1369  C1395   1.502   .     S
C1369  C1377   1.414   .     A
C1370  C1396   1.511   .     S
C1370  C1379   1.416   .     A
C1371  C1378   1.454   .     S
C1375  C1399   1.454   .     S
C1376  C1398   1.458   .     S
C1377  C1397   1.462   .     S
C1378  O1498   1.298   .     A
C1378  O1497   1.310   .     A
C1379  C1389   1.461   .     S
C1380  H1403   1.110   .     S
C1380  H1456   1.099   .     S
C1380  H1402   1.105   .     S
C1381  H1406   1.105   .     S
C1381  H1405   1.111   .     S
C1381  H1404   1.103   .     S
C1382  H1408   1.103   .     S
C1382  H1409   1.110   .     S
C1382  H1407   1.100   .     S
C1383  H1413   1.107   .     S
C1383  H1410   1.105   .     S
C1383  H1411   1.110   .     S
C1384  H1414   1.107   .     S
C1384  H1415   1.100   .     S
C1384  H1416   1.111   .     S
C1385  H1418   1.106   .     S
C1385  H1419   1.110   .     S
C1385  H1417   1.102   .     S
C1386  H1422   1.111   .     S
C1386  H1420   1.108   .     S
C1386  H1421   1.099   .     S
C1387  H1425   1.106   .     S
C1387  H1424   1.103   .     S
C1387  H1426   1.111   .     S
C1388  H1427   1.099   .     S
C1388  H1428   1.105   .     S
C1388  H1429   1.110   .     S
C1389  O1500   1.305   .     A
C1389  O1464   1.304   .     A
C1390  H1431   1.111   .     S
C1390  H1432   1.105   .     S
C1390  H1430   1.103   .     S
C1391  H1436   1.110   .     S
C1391  H1433   1.100   .     S
C1391  H1435   1.103   .     S
C1392  H1439   1.107   .     S
C1392  H1437   1.105   .     S
C1392  H1438   1.110   .     S
C1393  H1442   1.111   .     S
C1393  H1440   1.107   .     S
C1393  H1441   1.100   .     S
C1394  H1443   1.102   .     S
C1394  H1446   1.110   .     S
C1394  H1444   1.106   .     S
C1395  H1447   1.108   .     S
C1395  H1449   1.111   .     S
C1395  H1448   1.099   .     S
C1396  H1451   1.106   .     S
C1396  H1450   1.103   .     S
C1396  H1452   1.111   .     S
C1397  O1462   1.305   .     A
C1397  O1463   1.306   .     A
C1398  O1465   1.299   .     A
C1398  O1468   1.311   .     A
C1399  O1466   1.310   .     A
C1399  O1467   1.298   .     A
C1400  N1458   1.390   .     A
C1400  S1669   1.838   1_455 S
H1401  O1639   0.991   .     S
H1412  O1475   0.991   .     S
H1423  O1646   0.991   1_455 S
H1434  O1481   0.991   .     S
H1445  O1485   0.991   .     S
H1453  O1488   0.991   .     S
H1454  O1491   0.991   .     S
H1455  O1495   0.991   .     S
N1457  Zn1509  2.038   .     S
N1457  C1514   1.396   1_455 S
N1458  Zn1510  2.038   .     S
N1458  C1515   1.389   1_455 S
N1459  Zn1511  2.038   .     S
N1459  C1686   1.396   1_545 S
N1460  Zn1512  2.038   .     S
N1460  C1687   1.389   1_545 S
O1461  Zn1509  2.052   .     S
O1462  Zn1512  2.052   .     S
O1463  Zn1511  2.051   .     S
O1464  Zn1848  2.051   .     S
O1465  Zn1848  1.989   .     S
O1466  Zn1511  1.989   .     S
O1467  Zn1512  1.999   .     S
O1468  Zn1847  1.999   .     S
O1469  S1669   1.501   1_455 S
O1470  S1501   1.503   .     D
O1471  H1569   0.991   1_455 S
O1471  S1669   1.669   1_455 S
O1472  Zn1678  2.052   .     S
O1473  S1670   1.498   1_455 S
O1474  S1502   1.496   .     D
O1475  S1502   1.670   .     S
O1476  S1671   1.502   .     S
O1477  S1503   1.503   .     D
O1478  H1591   0.991   .     S
O1478  S1671   1.670   .     S
O1479  S1672   1.498   .     S
O1480  S1504   1.499   .     D
O1481  S1504   1.671   .     S
O1482  S1505   1.501   .     D
O1483  Zn1677  2.051   .     S
O1484  S1505   1.503   .     D
O1485  S1505   1.669   .     S
O1486  S1506   1.498   .     D
O1487  S1506   1.496   .     D
O1488  S1506   1.670   .     S
O1489  S1507   1.502   .     D
O1490  S1507   1.503   .     D
O1491  S1507   1.670   .     S
O1492  S1508   1.498   .     D
O1493  S1508   1.499   .     D
O1494  Zn1510  2.051   .     S
O1495  S1508   1.671   .     S
O1496  Zn1678  1.989   .     S
O1497  Zn1509  1.989   .     S
O1498  Zn1510  1.999   .     S
O1499  Zn1677  1.999   .     S
O1500  Zn1847  2.052   .     S
S1501  O1637   1.501   .     S
S1501  C1568   1.838   .     S
S1501  O1639   1.669   .     S
S1502  O1641   1.498   .     S
S1503  O1644   1.502   1_455 S
S1503  C1515   1.838   1_455 S
S1503  O1646   1.670   1_455 S
S1504  O1647   1.498   1_455 S
Zn1509 O1651   2.051   1_455 S
Zn1509 O1667   1.999   1_455 S
Zn1510 O1640   2.052   1_455 S
Zn1510 O1664   1.989   1_455 S
Zn1511 O1836   2.052   1_545 S
Zn1511 O1804   1.999   1_545 S
Zn1512 O1800   2.051   1_545 S
Zn1512 O1801   1.989   1_545 S
C1513  O1662   1.304   .     A
C1513  O1629   1.305   .     A
C1513  C1542   1.461   .     S
C1514  S1670   1.828   .     S
C1514  C171    1.455   1_556 S
C1514  N1457   1.396   1_655 S
C1515  N1458   1.389   1_655 S
C1515  S1503   1.838   1_655 S
C1516  N1625   1.398   .     A
C1516  S1672   1.835   .     S
C1516  C224    1.456   1_556 S
C1517  N1628   1.390   .     A
C1517  S1673   1.838   .     S
C1518  S1674   1.828   .     S
C1518  C175    1.455   1_556 S
C1518  N1963   1.396   .     S
C1519  S1675   1.838   .     S
C1519  N1964   1.389   .     S
C1520  N1627   1.398   .     A
C1520  S1676   1.835   .     S
C1520  C173    1.456   1_556 S
C1521  C1548   1.520   .     S
C1521  C1532   1.391   .     A
C1521  C1540   1.418   .     A
C1522  C1539   1.401   .     A
C1522  C1549   1.517   .     S
C1522  C1533   1.391   .     A
C1523  C1530   1.391   .     A
C1523  C1539   1.411   .     A
C1523  C1550   1.519   .     S
C1524  C1541   1.462   .     S
C1524  O1651   1.306   .     A
C1524  O1640   1.305   .     A
C1525  C1540   1.406   .     A
C1525  C1531   1.391   .     A
C1525  C1551   1.516   .     S
C1526  C1542   1.414   .     A
C1526  C1552   1.502   .     S
C1526  C1537   1.378   .     A
C1527  C1541   1.416   .     A
C1527  C1553   1.512   .     S
C1527  C1538   1.390   .     A
C1528  C1554   1.502   .     S
C1528  C1534   1.378   .     A
C1528  C1541   1.414   .     A
C1529  C1542   1.416   .     A
C1529  C1536   1.390   .     A
C1529  C1555   1.511   .     S
C1530  C1556   1.520   .     S
C1530  C1544   1.418   .     A
C1531  C1543   1.401   .     A
C1531  C1558   1.517   .     S
C1532  C1559   1.519   .     S
C1532  C1543   1.411   .     A
C1533  C1560   1.516   .     S
C1533  C1544   1.406   .     A
C1534  C1547   1.414   .     A
C1534  C1561   1.502   .     S
C1535  O1664   1.299   .     A
C1535  O1667   1.311   .     A
C1535  C1540   1.458   .     S
C1536  C1562   1.512   .     S
C1536  C1545   1.416   .     A
C1537  C1563   1.502   .     S
C1537  C1545   1.414   .     A
C1538  C1564   1.511   .     S
C1538  C1547   1.416   .     A
C1539  C1546   1.454   .     S
C1543  C1567   1.454   .     S
C1544  C1566   1.458   .     S
C1545  C1565   1.462   .     S
C1546  O1666   1.298   .     A
C1546  O1665   1.310   .     A
C1547  C1557   1.461   .     S
C1548  H1571   1.110   .     S
C1548  H1624   1.099   .     S
C1548  H1570   1.105   .     S
C1549  H1574   1.105   .     S
C1549  H1573   1.111   .     S
C1549  H1572   1.103   .     S
C1550  H1576   1.103   .     S
C1550  H1577   1.110   .     S
C1550  H1575   1.100   .     S
C1551  H1581   1.107   .     S
C1551  H1578   1.105   .     S
C1551  H1579   1.110   .     S
C1552  H1582   1.107   .     S
C1552  H1583   1.100   .     S
C1552  H1584   1.111   .     S
C1553  H1586   1.106   .     S
C1553  H1587   1.110   .     S
C1553  H1585   1.102   .     S
C1554  H1590   1.111   .     S
C1554  H1588   1.108   .     S
C1554  H1589   1.099   .     S
C1555  H1593   1.106   .     S
C1555  H1592   1.103   .     S
C1555  H1594   1.111   .     S
C1556  H1595   1.099   .     S
C1556  H1596   1.105   .     S
C1556  H1597   1.110   .     S
C1557  O1668   1.305   .     A
C1557  O1632   1.304   .     A
C1558  H1599   1.111   .     S
C1558  H1600   1.105   .     S
C1558  H1598   1.103   .     S
C1559  H1604   1.110   .     S
C1559  H1601   1.100   .     S
C1559  H1603   1.103   .     S
C1560  H1607   1.107   .     S
C1560  H1605   1.105   .     S
C1560  H1606   1.110   .     S
C1561  H1610   1.111   .     S
C1561  H1608   1.107   .     S
C1561  H1609   1.100   .     S
C1562  H1611   1.102   .     S
C1562  H1614   1.110   .     S
C1562  H1612   1.106   .     S
C1563  H1615   1.108   .     S
C1563  H1617   1.111   .     S
C1563  H1616   1.099   .     S
C1564  H1619   1.106   .     S
C1564  H1618   1.103   .     S
C1564  H1620   1.111   .     S
C1565  O1630   1.305   .     A
C1565  O1631   1.306   .     A
C1566  O1633   1.299   .     A
C1566  O1636   1.311   .     A
C1567  O1634   1.310   .     A
C1567  O1635   1.298   .     A
C1568  N1626   1.390   .     A
H1569  O1471   0.991   1_655 S
H1580  O1643   0.991   .     S
H1602  O1649   0.991   .     S
H1613  O1653   0.991   .     S
H1621  O1656   0.991   .     S
H1622  O1659   0.991   .     S
H1623  O1663   0.991   .     S
N1625  Zn1677  2.038   .     S
N1626  Zn1678  2.038   .     S
N1627  Zn1679  2.038   .     S
N1627  C1854   1.396   1_545 S
N1628  Zn1680  2.038   .     S
N1628  C1855   1.389   1_545 S
O1629  Zn1677  2.052   .     S
O1630  Zn1680  2.052   .     S
O1631  Zn1679  2.051   .     S
O1632  Zn2016  2.051   .     S
O1633  Zn2016  1.989   .     S
O1634  Zn1679  1.989   .     S
O1635  Zn1680  1.999   .     S
O1636  Zn2015  1.999   .     S
O1638  S1669   1.503   .     D
O1640  Zn1510  2.052   1_655 S
O1642  S1670   1.496   .     D
O1643  S1670   1.670   .     S
O1644  S1503   1.502   1_655 S
O1645  S1671   1.503   .     D
O1646  H1423   0.991   1_655 S
O1646  S1503   1.670   1_655 S
O1647  S1504   1.498   1_655 S
O1648  S1672   1.499   .     D
O1649  S1672   1.671   .     S
O1650  S1673   1.501   .     D
O1651  Zn1509  2.051   1_655 S
O1652  S1673   1.503   .     D
O1653  S1673   1.669   .     S
O1654  S1674   1.498   .     D
O1655  S1674   1.496   .     D
O1656  S1674   1.670   .     S
O1657  S1675   1.502   .     D
O1658  S1675   1.503   .     D
O1659  S1675   1.670   .     S
O1660  S1676   1.498   .     D
O1661  S1676   1.499   .     D
O1662  Zn1678  2.051   .     S
O1663  S1676   1.671   .     S
O1664  Zn1510  1.989   1_655 S
O1665  Zn1677  1.989   .     S
O1666  Zn1678  1.999   .     S
O1667  Zn1509  1.999   1_655 S
O1668  Zn2015  2.052   .     S
S1669  O1469   1.501   1_655 S
S1669  C1400   1.838   1_655 S
S1669  O1471   1.669   1_655 S
S1670  O1473   1.498   1_655 S
Zn1679 O2004   2.052   1_545 S
Zn1679 O1972   1.999   1_545 S
Zn1680 O1968   2.051   1_545 S
Zn1680 O1969   1.989   1_545 S
C1681  O1830   1.304   .     A
C1681  O1797   1.305   .     A
C1681  C1710   1.461   .     S
C1682  S1838   1.828   .     S
C1682  C339    1.455   1_556 S
C1682  N1961   1.396   .     S
C1683  N1962   1.389   .     S
C1683  S2007   1.838   .     S
C1684  N1793   1.398   .     A
C1684  S1840   1.835   .     S
C1684  C392    1.456   1_556 S
C1685  N1796   1.390   .     A
C1685  S1841   1.838   .     S
C1686  S1842   1.828   .     S
C1686  C343    1.455   1_556 S
C1686  N1459   1.396   1_565 S
C1687  S1843   1.838   .     S
C1687  N1460   1.389   1_565 S
C1688  N1795   1.398   .     A
C1688  S1844   1.835   .     S
C1688  C341    1.456   1_556 S
C1689  C1716   1.520   .     S
C1689  C1700   1.391   .     A
C1689  C1708   1.418   .     A
C1690  C1707   1.401   .     A
C1690  C1717   1.517   .     S
C1690  C1701   1.391   .     A
C1691  C1698   1.391   .     A
C1691  C1707   1.411   .     A
C1691  C1718   1.519   .     S
C1692  C1709   1.462   .     S
C1692  O1819   1.306   .     A
C1692  O1808   1.305   .     A
C1693  C1708   1.406   .     A
C1693  C1699   1.391   .     A
C1693  C1719   1.516   .     S
C1694  C1710   1.414   .     A
C1694  C1720   1.502   .     S
C1694  C1705   1.378   .     A
C1695  C1709   1.416   .     A
C1695  C1721   1.512   .     S
C1695  C1706   1.390   .     A
C1696  C1722   1.502   .     S
C1696  C1702   1.378   .     A
C1696  C1709   1.414   .     A
C1697  C1710   1.416   .     A
C1697  C1704   1.390   .     A
C1697  C1723   1.511   .     S
C1698  C1724   1.520   .     S
C1698  C1712   1.418   .     A
C1699  C1711   1.401   .     A
C1699  C1726   1.517   .     S
C1700  C1727   1.519   .     S
C1700  C1711   1.411   .     A
C1701  C1728   1.516   .     S
C1701  C1712   1.406   .     A
C1702  C1715   1.414   .     A
C1702  C1729   1.502   .     S
C1703  O1832   1.299   .     A
C1703  O1835   1.311   .     A
C1703  C1708   1.458   .     S
C1704  C1730   1.512   .     S
C1704  C1713   1.416   .     A
C1705  C1731   1.502   .     S
C1705  C1713   1.414   .     A
C1706  C1732   1.511   .     S
C1706  C1715   1.416   .     A
C1707  C1714   1.454   .     S
C1711  C1735   1.454   .     S
C1712  C1734   1.458   .     S
C1713  C1733   1.462   .     S
C1714  O1834   1.298   .     A
C1714  O1833   1.310   .     A
C1715  C1725   1.461   .     S
C1716  H1739   1.110   .     S
C1716  H1792   1.099   .     S
C1716  H1738   1.105   .     S
C1717  H1742   1.105   .     S
C1717  H1741   1.111   .     S
C1717  H1740   1.103   .     S
C1718  H1744   1.103   .     S
C1718  H1745   1.110   .     S
C1718  H1743   1.100   .     S
C1719  H1749   1.107   .     S
C1719  H1746   1.105   .     S
C1719  H1747   1.110   .     S
C1720  H1750   1.107   .     S
C1720  H1751   1.100   .     S
C1720  H1752   1.111   .     S
C1721  H1754   1.106   .     S
C1721  H1755   1.110   .     S
C1721  H1753   1.102   .     S
C1722  H1758   1.111   .     S
C1722  H1756   1.108   .     S
C1722  H1757   1.099   .     S
C1723  H1761   1.106   .     S
C1723  H1760   1.103   .     S
C1723  H1762   1.111   .     S
C1724  H1763   1.099   .     S
C1724  H1764   1.105   .     S
C1724  H1765   1.110   .     S
C1725  O1836   1.305   .     A
C1725  O1800   1.304   .     A
C1726  H1767   1.111   .     S
C1726  H1768   1.105   .     S
C1726  H1766   1.103   .     S
C1727  H1772   1.110   .     S
C1727  H1769   1.100   .     S
C1727  H1771   1.103   .     S
C1728  H1775   1.107   .     S
C1728  H1773   1.105   .     S
C1728  H1774   1.110   .     S
C1729  H1778   1.111   .     S
C1729  H1776   1.107   .     S
C1729  H1777   1.100   .     S
C1730  H1779   1.102   .     S
C1730  H1782   1.110   .     S
C1730  H1780   1.106   .     S
C1731  H1783   1.108   .     S
C1731  H1785   1.111   .     S
C1731  H1784   1.099   .     S
C1732  H1787   1.106   .     S
C1732  H1786   1.103   .     S
C1732  H1788   1.111   .     S
C1733  O1798   1.305   .     A
C1733  O1799   1.306   .     A
C1734  O1801   1.299   .     A
C1734  O1804   1.311   .     A
C1735  O1802   1.310   .     A
C1735  O1803   1.298   .     A
C1736  N1794   1.390   .     A
C1736  S2005   1.838   1_455 S
H1737  O1975   0.991   .     S
H1748  O1811   0.991   .     S
H1759  O1982   0.991   1_455 S
H1770  O1817   0.991   .     S
H1781  O1821   0.991   .     S
H1789  O1824   0.991   .     S
H1790  O1827   0.991   .     S
H1791  O1831   0.991   .     S
N1793  Zn1845  2.038   .     S
N1793  C1850   1.396   1_455 S
N1794  Zn1846  2.038   .     S
N1794  C1851   1.389   1_455 S
N1795  Zn1847  2.038   .     S
N1796  Zn1848  2.038   .     S
O1797  Zn1845  2.052   .     S
O1798  Zn1848  2.052   .     S
O1799  Zn1847  2.051   .     S
O1800  Zn1512  2.051   1_565 S
O1801  Zn1512  1.989   1_565 S
O1802  Zn1847  1.989   .     S
O1803  Zn1848  1.999   .     S
O1804  Zn1511  1.999   1_565 S
O1805  S2005   1.501   1_455 S
O1806  S1837   1.503   .     D
O1807  H1905   0.991   1_455 S
O1807  S2005   1.669   1_455 S
O1808  Zn2014  2.052   .     S
O1809  S2006   1.498   1_455 S
O1810  S1838   1.496   .     D
O1811  S1838   1.670   .     S
O1812  S2007   1.502   .     S
O1813  S1839   1.503   .     D
O1814  H1927   0.991   .     S
O1814  S2007   1.670   .     S
O1815  S2008   1.498   .     S
O1816  S1840   1.499   .     D
O1817  S1840   1.671   .     S
O1818  S1841   1.501   .     D
O1819  Zn2013  2.051   .     S
O1820  S1841   1.503   .     D
O1821  S1841   1.669   .     S
O1822  S1842   1.498   .     D
O1823  S1842   1.496   .     D
O1824  S1842   1.670   .     S
O1825  S1843   1.502   .     D
O1826  S1843   1.503   .     D
O1827  S1843   1.670   .     S
O1828  S1844   1.498   .     D
O1829  S1844   1.499   .     D
O1830  Zn1846  2.051   .     S
O1831  S1844   1.671   .     S
O1832  Zn2014  1.989   .     S
O1833  Zn1845  1.989   .     S
O1834  Zn1846  1.999   .     S
O1835  Zn2013  1.999   .     S
O1836  Zn1511  2.052   1_565 S
S1837  O1973   1.501   .     S
S1837  C1904   1.838   .     S
S1837  O1975   1.669   .     S
S1838  O1977   1.498   .     S
S1839  O1980   1.502   1_455 S
S1839  C1851   1.838   1_455 S
S1839  O1982   1.670   1_455 S
S1840  O1983   1.498   1_455 S
Zn1845 O1987   2.051   1_455 S
Zn1845 O2003   1.999   1_455 S
Zn1846 O1976   2.052   1_455 S
Zn1846 O2000   1.989   1_455 S
C1849  O1998   1.304   .     A
C1849  O1965   1.305   .     A
C1849  C1878   1.461   .     S
C1850  S2006   1.828   .     S
C1850  C507    1.455   1_556 S
C1850  N1793   1.396   1_655 S
C1851  N1794   1.389   1_655 S
C1851  S1839   1.838   1_655 S
C1852  N1961   1.398   .     A
C1852  S2008   1.835   .     S
C1852  C560    1.456   1_556 S
C1853  N1964   1.390   .     A
C1853  S2009   1.838   .     S
C1854  S2010   1.828   .     S
C1854  C511    1.455   1_556 S
C1854  N1627   1.396   1_565 S
C1855  S2011   1.838   .     S
C1855  N1628   1.389   1_565 S
C1856  N1963   1.398   .     A
C1856  S2012   1.835   .     S
C1856  C509    1.456   1_556 S
C1857  C1884   1.520   .     S
C1857  C1868   1.391   .     A
C1857  C1876   1.418   .     A
C1858  C1875   1.401   .     A
C1858  C1885   1.517   .     S
C1858  C1869   1.391   .     A
C1859  C1866   1.391   .     A
C1859  C1875   1.411   .     A
C1859  C1886   1.519   .     S
C1860  C1877   1.462   .     S
C1860  O1987   1.306   .     A
C1860  O1976   1.305   .     A
C1861  C1876   1.406   .     A
C1861  C1867   1.391   .     A
C1861  C1887   1.516   .     S
C1862  C1878   1.414   .     A
C1862  C1888   1.502   .     S
C1862  C1873   1.378   .     A
C1863  C1877   1.416   .     A
C1863  C1889   1.512   .     S
C1863  C1874   1.390   .     A
C1864  C1890   1.502   .     S
C1864  C1870   1.378   .     A
C1864  C1877   1.414   .     A
C1865  C1878   1.416   .     A
C1865  C1872   1.390   .     A
C1865  C1891   1.511   .     S
C1866  C1892   1.520   .     S
C1866  C1880   1.418   .     A
C1867  C1879   1.401   .     A
C1867  C1894   1.517   .     S
C1868  C1895   1.519   .     S
C1868  C1879   1.411   .     A
C1869  C1896   1.516   .     S
C1869  C1880   1.406   .     A
C1870  C1883   1.414   .     A
C1870  C1897   1.502   .     S
C1871  O2000   1.299   .     A
C1871  O2003   1.311   .     A
C1871  C1876   1.458   .     S
C1872  C1898   1.512   .     S
C1872  C1881   1.416   .     A
C1873  C1899   1.502   .     S
C1873  C1881   1.414   .     A
C1874  C1900   1.511   .     S
C1874  C1883   1.416   .     A
C1875  C1882   1.454   .     S
C1879  C1903   1.454   .     S
C1880  C1902   1.458   .     S
C1881  C1901   1.462   .     S
C1882  O2002   1.298   .     A
C1882  O2001   1.310   .     A
C1883  C1893   1.461   .     S
C1884  H1907   1.110   .     S
C1884  H1960   1.099   .     S
C1884  H1906   1.105   .     S
C1885  H1910   1.105   .     S
C1885  H1909   1.111   .     S
C1885  H1908   1.103   .     S
C1886  H1912   1.103   .     S
C1886  H1913   1.110   .     S
C1886  H1911   1.100   .     S
C1887  H1917   1.107   .     S
C1887  H1914   1.105   .     S
C1887  H1915   1.110   .     S
C1888  H1918   1.107   .     S
C1888  H1919   1.100   .     S
C1888  H1920   1.111   .     S
C1889  H1922   1.106   .     S
C1889  H1923   1.110   .     S
C1889  H1921   1.102   .     S
C1890  H1926   1.111   .     S
C1890  H1924   1.108   .     S
C1890  H1925   1.099   .     S
C1891  H1929   1.106   .     S
C1891  H1928   1.103   .     S
C1891  H1930   1.111   .     S
C1892  H1931   1.099   .     S
C1892  H1932   1.105   .     S
C1892  H1933   1.110   .     S
C1893  O2004   1.305   .     A
C1893  O1968   1.304   .     A
C1894  H1935   1.111   .     S
C1894  H1936   1.105   .     S
C1894  H1934   1.103   .     S
C1895  H1940   1.110   .     S
C1895  H1937   1.100   .     S
C1895  H1939   1.103   .     S
C1896  H1943   1.107   .     S
C1896  H1941   1.105   .     S
C1896  H1942   1.110   .     S
C1897  H1946   1.111   .     S
C1897  H1944   1.107   .     S
C1897  H1945   1.100   .     S
C1898  H1947   1.102   .     S
C1898  H1950   1.110   .     S
C1898  H1948   1.106   .     S
C1899  H1951   1.108   .     S
C1899  H1953   1.111   .     S
C1899  H1952   1.099   .     S
C1900  H1955   1.106   .     S
C1900  H1954   1.103   .     S
C1900  H1956   1.111   .     S
C1901  O1966   1.305   .     A
C1901  O1967   1.306   .     A
C1902  O1969   1.299   .     A
C1902  O1972   1.311   .     A
C1903  O1970   1.310   .     A
C1903  O1971   1.298   .     A
C1904  N1962   1.390   .     A
H1905  O1807   0.991   1_655 S
H1916  O1979   0.991   .     S
H1938  O1985   0.991   .     S
H1949  O1989   0.991   .     S
H1957  O1992   0.991   .     S
H1958  O1995   0.991   .     S
H1959  O1999   0.991   .     S
N1961  Zn2013  2.038   .     S
N1962  Zn2014  2.038   .     S
N1963  Zn2015  2.038   .     S
N1964  Zn2016  2.038   .     S
O1965  Zn2013  2.052   .     S
O1966  Zn2016  2.052   .     S
O1967  Zn2015  2.051   .     S
O1968  Zn1680  2.051   1_565 S
O1969  Zn1680  1.989   1_565 S
O1970  Zn2015  1.989   .     S
O1971  Zn2016  1.999   .     S
O1972  Zn1679  1.999   1_565 S
O1974  S2005   1.503   .     D
O1976  Zn1846  2.052   1_655 S
O1978  S2006   1.496   .     D
O1979  S2006   1.670   .     S
O1980  S1839   1.502   1_655 S
O1981  S2007   1.503   .     D
O1982  H1759   0.991   1_655 S
O1982  S1839   1.670   1_655 S
O1983  S1840   1.498   1_655 S
O1984  S2008   1.499   .     D
O1985  S2008   1.671   .     S
O1986  S2009   1.501   .     D
O1987  Zn1845  2.051   1_655 S
O1988  S2009   1.503   .     D
O1989  S2009   1.669   .     S
O1990  S2010   1.498   .     D
O1991  S2010   1.496   .     D
O1992  S2010   1.670   .     S
O1993  S2011   1.502   .     D
O1994  S2011   1.503   .     D
O1995  S2011   1.670   .     S
O1996  S2012   1.498   .     D
O1997  S2012   1.499   .     D
O1998  Zn2014  2.051   .     S
O1999  S2012   1.671   .     S
O2000  Zn1846  1.989   1_655 S
O2001  Zn2013  1.989   .     S
O2002  Zn2014  1.999   .     S
O2003  Zn1845  1.999   1_655 S
O2004  Zn1679  2.052   1_565 S
S2005  O1805   1.501   1_655 S
S2005  C1736   1.838   1_655 S
S2005  O1807   1.669   1_655 S
S2006  O1809   1.498   1_655 S
