data_str_m2_o1_o10_pcu_sym.177
_audit_creation_date              2020-01-03
_audit_creation_method            'Materials Studio'
_symmetry_space_group_name_H-M    'P1'
_symmetry_Int_Tables_number       1
_symmetry_cell_setting            triclinic
loop_
_symmetry_equiv_pos_as_xyz
  x,y,z
_cell_length_a                    26.5636
_cell_length_b                    32.3783
_cell_length_c                    28.6165
_cell_angle_alpha                 90.5212
_cell_angle_beta                  98.4898
_cell_angle_gamma                 89.9665
loop_
_atom_site_label
_atom_site_type_symbol
_atom_site_fract_x
_atom_site_fract_y
_atom_site_fract_z
_atom_site_U_iso_or_equiv
_atom_site_adp_type
_atom_site_occupancy
C1     C     0.16712   0.08757   0.16659   0.00000  Uiso   1.00
C2     C     0.16621   0.24577   0.16674   0.00000  Uiso   1.00
C3     C     0.06811   0.16717   0.15461   0.00000  Uiso   1.00
C4     C     0.26522   0.16616   0.17872   0.00000  Uiso   1.00
C5     C     0.01327   0.16438   0.14797   0.00000  Uiso   1.00
C6     C     0.32006   0.16895   0.18537   0.00000  Uiso   1.00
C7     C     0.20965   0.02127   0.15434   0.00000  Uiso   1.00
C8     C     0.12368   0.31207   0.17899   0.00000  Uiso   1.00
C9     C     0.20879   0.31124   0.15441   0.00000  Uiso   1.00
C10    C     0.12454   0.02209   0.17892   0.00000  Uiso   1.00
C11    C     0.16608   0.29048   0.16670   0.00000  Uiso   1.00
C12    C     0.16725   0.04285   0.16663   0.00000  Uiso   1.00
C13    C     0.13489   0.14099   0.01977   0.00000  Uiso   1.00
C14    C     0.19844   0.19234   0.31356   0.00000  Uiso   1.00
C15    C     0.13500   0.14115   0.30362   0.00000  Uiso   1.00
C16    C     0.19833   0.19219   0.02971   0.00000  Uiso   1.00
Cu17   Cu    0.16667   0.16667   0.21355   0.00000  Uiso   1.00
Cu18   Cu    0.16667   0.16666   0.11978   0.00000  Uiso   1.00
H19    H     0.10979   0.12076   0.28084   0.00000  Uiso   1.00
H20    H     0.22354   0.21258   0.05249   0.00000  Uiso   1.00
N21    N     0.16668   0.16668   0.28403   0.00000  Uiso   1.00
N22    N     0.16665   0.16666   0.04931   0.00000  Uiso   1.00
O23    O     0.16666   0.10655   0.20625   0.00000  Uiso   1.00
O24    O     0.16667   0.22678   0.12709   0.00000  Uiso   1.00
O25    O     0.16666   0.10654   0.12706   0.00000  Uiso   1.00
O26    O     0.16667   0.22679   0.20628   0.00000  Uiso   1.00
O27    O     0.09161   0.16667   0.19712   0.00000  Uiso   1.00
O28    O     0.24172   0.16666   0.13621   0.00000  Uiso   1.00
O29    O     0.09161   0.16666   0.11793   0.00000  Uiso   1.00
O30    O     0.24172   0.16667   0.21540   0.00000  Uiso   1.00
C31    C     0.32362   0.15258   0.09897   0.00000  Uiso   1.00
H32    H     0.33031   0.17170   0.06953   0.00000  Uiso   1.00
O33    O     0.30020   0.12024   0.09104   0.00000  Uiso   1.00
C34    C     0.00972   0.18075   0.23436   0.00000  Uiso   1.00
H35    H     0.00302   0.16164   0.26380   0.00000  Uiso   1.00
O36    O     0.03314   0.21309   0.24230   0.00000  Uiso   1.00
C37    C     0.25505   0.04459   0.14360   0.00000  Uiso   1.00
H38    H     0.26302   0.07526   0.15833   0.00000  Uiso   1.00
O39    O     0.28340   0.03036   0.11763   0.00000  Uiso   1.00
C40    C     0.07829   0.28874   0.18973   0.00000  Uiso   1.00
H41    H     0.07031   0.25807   0.17500   0.00000  Uiso   1.00
O42    O     0.04993   0.30298   0.21570   0.00000  Uiso   1.00
C43    C     0.25257   0.28759   0.14441   0.00000  Uiso   1.00
N44    N     0.28730   0.26863   0.13643   0.00000  Uiso   1.00
C45    C     0.08077   0.04574   0.18892   0.00000  Uiso   1.00
N46    N     0.04603   0.06470   0.19691   0.00000  Uiso   1.00
C47    C     0.10104   0.11292   0.03835   0.00000  Uiso   1.00
N48    N     0.07376   0.09014   0.05297   0.00000  Uiso   1.00
C49    C     0.23230   0.22041   0.29498   0.00000  Uiso   1.00
N50    N     0.25958   0.24319   0.28036   0.00000  Uiso   1.00
C51    C     0.50045   0.08757   0.16659   0.00000  Uiso   1.00
C52    C     0.49955   0.24577   0.16674   0.00000  Uiso   1.00
C53    C     0.40144   0.16717   0.15461   0.00000  Uiso   1.00
C54    C     0.59855   0.16616   0.17872   0.00000  Uiso   1.00
C55    C     0.34661   0.16438   0.14797   0.00000  Uiso   1.00
C56    C     0.65339   0.16895   0.18537   0.00000  Uiso   1.00
C57    C     0.54299   0.02127   0.15434   0.00000  Uiso   1.00
C58    C     0.45701   0.31207   0.17899   0.00000  Uiso   1.00
C59    C     0.54212   0.31124   0.15441   0.00000  Uiso   1.00
C60    C     0.45788   0.02209   0.17892   0.00000  Uiso   1.00
C61    C     0.49942   0.29048   0.16670   0.00000  Uiso   1.00
C62    C     0.50058   0.04285   0.16663   0.00000  Uiso   1.00
C63    C     0.46822   0.14099   0.01977   0.00000  Uiso   1.00
C64    C     0.53177   0.19234   0.31356   0.00000  Uiso   1.00
C65    C     0.46833   0.14115   0.30362   0.00000  Uiso   1.00
C66    C     0.53167   0.19219   0.02971   0.00000  Uiso   1.00
Cu67   Cu    0.50000   0.16667   0.21355   0.00000  Uiso   1.00
Cu68   Cu    0.50000   0.16666   0.11978   0.00000  Uiso   1.00
H69    H     0.44312   0.12076   0.28084   0.00000  Uiso   1.00
H70    H     0.55688   0.21258   0.05249   0.00000  Uiso   1.00
N71    N     0.50001   0.16668   0.28403   0.00000  Uiso   1.00
N72    N     0.49999   0.16666   0.04931   0.00000  Uiso   1.00
O73    O     0.50000   0.10655   0.20625   0.00000  Uiso   1.00
O74    O     0.50000   0.22678   0.12709   0.00000  Uiso   1.00
O75    O     0.50000   0.10654   0.12706   0.00000  Uiso   1.00
O76    O     0.50000   0.22679   0.20628   0.00000  Uiso   1.00
O77    O     0.42495   0.16667   0.19712   0.00000  Uiso   1.00
O78    O     0.57505   0.16666   0.13621   0.00000  Uiso   1.00
O79    O     0.42494   0.16666   0.11793   0.00000  Uiso   1.00
O80    O     0.57506   0.16667   0.21540   0.00000  Uiso   1.00
C81    C     0.65695   0.15258   0.09897   0.00000  Uiso   1.00
H82    H     0.66365   0.17170   0.06953   0.00000  Uiso   1.00
O83    O     0.63353   0.12024   0.09104   0.00000  Uiso   1.00
C84    C     0.34305   0.18075   0.23436   0.00000  Uiso   1.00
H85    H     0.33635   0.16164   0.26380   0.00000  Uiso   1.00
O86    O     0.36647   0.21309   0.24230   0.00000  Uiso   1.00
C87    C     0.58838   0.04459   0.14360   0.00000  Uiso   1.00
H88    H     0.59636   0.07526   0.15833   0.00000  Uiso   1.00
O89    O     0.61673   0.03036   0.11763   0.00000  Uiso   1.00
C90    C     0.41162   0.28874   0.18973   0.00000  Uiso   1.00
H91    H     0.40364   0.25807   0.17500   0.00000  Uiso   1.00
O92    O     0.38326   0.30298   0.21570   0.00000  Uiso   1.00
C93    C     0.58590   0.28759   0.14441   0.00000  Uiso   1.00
N94    N     0.62064   0.26863   0.13643   0.00000  Uiso   1.00
C95    C     0.41410   0.04574   0.18892   0.00000  Uiso   1.00
N96    N     0.37936   0.06470   0.19691   0.00000  Uiso   1.00
C97    C     0.43437   0.11292   0.03835   0.00000  Uiso   1.00
N98    N     0.40709   0.09014   0.05297   0.00000  Uiso   1.00
C99    C     0.56563   0.22041   0.29498   0.00000  Uiso   1.00
N100   N     0.59291   0.24319   0.28036   0.00000  Uiso   1.00
C101   C     0.83379   0.08757   0.16659   0.00000  Uiso   1.00
C102   C     0.83288   0.24577   0.16674   0.00000  Uiso   1.00
C103   C     0.73478   0.16717   0.15461   0.00000  Uiso   1.00
C104   C     0.93189   0.16616   0.17872   0.00000  Uiso   1.00
C105   C     0.67994   0.16438   0.14797   0.00000  Uiso   1.00
C106   C     0.98673   0.16895   0.18537   0.00000  Uiso   1.00
C107   C     0.87632   0.02127   0.15434   0.00000  Uiso   1.00
C108   C     0.79035   0.31207   0.17899   0.00000  Uiso   1.00
C109   C     0.87546   0.31124   0.15441   0.00000  Uiso   1.00
C110   C     0.79121   0.02209   0.17892   0.00000  Uiso   1.00
C111   C     0.83275   0.29048   0.16670   0.00000  Uiso   1.00
C112   C     0.83392   0.04285   0.16663   0.00000  Uiso   1.00
C113   C     0.80156   0.14099   0.01977   0.00000  Uiso   1.00
C114   C     0.86511   0.19234   0.31356   0.00000  Uiso   1.00
C115   C     0.80167   0.14115   0.30362   0.00000  Uiso   1.00
C116   C     0.86500   0.19219   0.02971   0.00000  Uiso   1.00
Cu117  Cu    0.83333   0.16667   0.21355   0.00000  Uiso   1.00
Cu118  Cu    0.83333   0.16666   0.11978   0.00000  Uiso   1.00
H119   H     0.77646   0.12076   0.28084   0.00000  Uiso   1.00
H120   H     0.89021   0.21258   0.05249   0.00000  Uiso   1.00
N121   N     0.83335   0.16668   0.28403   0.00000  Uiso   1.00
N122   N     0.83332   0.16666   0.04931   0.00000  Uiso   1.00
O123   O     0.83333   0.10655   0.20625   0.00000  Uiso   1.00
O124   O     0.83334   0.22678   0.12709   0.00000  Uiso   1.00
O125   O     0.83333   0.10654   0.12706   0.00000  Uiso   1.00
O126   O     0.83334   0.22679   0.20628   0.00000  Uiso   1.00
O127   O     0.75828   0.16667   0.19712   0.00000  Uiso   1.00
O128   O     0.90839   0.16666   0.13621   0.00000  Uiso   1.00
O129   O     0.75828   0.16666   0.11793   0.00000  Uiso   1.00
O130   O     0.90839   0.16667   0.21540   0.00000  Uiso   1.00
C131   C     0.99028   0.15258   0.09897   0.00000  Uiso   1.00
H132   H     0.99698   0.17170   0.06953   0.00000  Uiso   1.00
O133   O     0.96686   0.12024   0.09104   0.00000  Uiso   1.00
C134   C     0.67638   0.18075   0.23436   0.00000  Uiso   1.00
H135   H     0.66969   0.16164   0.26380   0.00000  Uiso   1.00
O136   O     0.69980   0.21309   0.24230   0.00000  Uiso   1.00
C137   C     0.92171   0.04459   0.14360   0.00000  Uiso   1.00
H138   H     0.92969   0.07526   0.15833   0.00000  Uiso   1.00
O139   O     0.95007   0.03036   0.11763   0.00000  Uiso   1.00
C140   C     0.74495   0.28874   0.18973   0.00000  Uiso   1.00
H141   H     0.73698   0.25807   0.17500   0.00000  Uiso   1.00
O142   O     0.71660   0.30298   0.21570   0.00000  Uiso   1.00
C143   C     0.91923   0.28759   0.14441   0.00000  Uiso   1.00
N144   N     0.95397   0.26863   0.13643   0.00000  Uiso   1.00
C145   C     0.74743   0.04574   0.18892   0.00000  Uiso   1.00
N146   N     0.71269   0.06470   0.19691   0.00000  Uiso   1.00
C147   C     0.76770   0.11292   0.03835   0.00000  Uiso   1.00
N148   N     0.74042   0.09014   0.05297   0.00000  Uiso   1.00
C149   C     0.89896   0.22041   0.29498   0.00000  Uiso   1.00
N150   N     0.92624   0.24319   0.28036   0.00000  Uiso   1.00
C151   C     0.16712   0.42090   0.16659   0.00000  Uiso   1.00
C152   C     0.16621   0.57910   0.16674   0.00000  Uiso   1.00
C153   C     0.06811   0.50050   0.15461   0.00000  Uiso   1.00
C154   C     0.26522   0.49950   0.17872   0.00000  Uiso   1.00
C155   C     0.01327   0.49771   0.14797   0.00000  Uiso   1.00
C156   C     0.32006   0.50229   0.18537   0.00000  Uiso   1.00
C157   C     0.20965   0.35460   0.15434   0.00000  Uiso   1.00
C158   C     0.12368   0.64540   0.17899   0.00000  Uiso   1.00
C159   C     0.20879   0.64458   0.15441   0.00000  Uiso   1.00
C160   C     0.12454   0.35542   0.17892   0.00000  Uiso   1.00
C161   C     0.16608   0.62382   0.16670   0.00000  Uiso   1.00
C162   C     0.16725   0.37618   0.16663   0.00000  Uiso   1.00
C163   C     0.13489   0.47432   0.01977   0.00000  Uiso   1.00
C164   C     0.19844   0.52568   0.31356   0.00000  Uiso   1.00
C165   C     0.13500   0.47448   0.30362   0.00000  Uiso   1.00
C166   C     0.19833   0.52552   0.02971   0.00000  Uiso   1.00
Cu167  Cu    0.16667   0.50001   0.21355   0.00000  Uiso   1.00
Cu168  Cu    0.16667   0.49999   0.11978   0.00000  Uiso   1.00
H169   H     0.10979   0.45409   0.28084   0.00000  Uiso   1.00
H170   H     0.22354   0.54591   0.05249   0.00000  Uiso   1.00
N171   N     0.16668   0.50001   0.28403   0.00000  Uiso   1.00
N172   N     0.16665   0.49999   0.04931   0.00000  Uiso   1.00
O173   O     0.16666   0.43989   0.20625   0.00000  Uiso   1.00
O174   O     0.16667   0.56011   0.12709   0.00000  Uiso   1.00
O175   O     0.16666   0.43988   0.12706   0.00000  Uiso   1.00
O176   O     0.16667   0.56012   0.20628   0.00000  Uiso   1.00
O177   O     0.09161   0.50000   0.19712   0.00000  Uiso   1.00
O178   O     0.24172   0.50000   0.13621   0.00000  Uiso   1.00
O179   O     0.09161   0.49999   0.11793   0.00000  Uiso   1.00
O180   O     0.24172   0.50001   0.21540   0.00000  Uiso   1.00
C181   C     0.32362   0.48591   0.09897   0.00000  Uiso   1.00
H182   H     0.33031   0.50503   0.06953   0.00000  Uiso   1.00
O183   O     0.30020   0.45358   0.09104   0.00000  Uiso   1.00
C184   C     0.00972   0.51409   0.23436   0.00000  Uiso   1.00
H185   H     0.00302   0.49497   0.26380   0.00000  Uiso   1.00
O186   O     0.03314   0.54642   0.24230   0.00000  Uiso   1.00
C187   C     0.25505   0.37792   0.14360   0.00000  Uiso   1.00
H188   H     0.26302   0.40860   0.15833   0.00000  Uiso   1.00
O189   O     0.28340   0.36369   0.11763   0.00000  Uiso   1.00
C190   C     0.07829   0.62208   0.18973   0.00000  Uiso   1.00
H191   H     0.07031   0.59140   0.17500   0.00000  Uiso   1.00
O192   O     0.04993   0.63631   0.21570   0.00000  Uiso   1.00
C193   C     0.25257   0.62093   0.14441   0.00000  Uiso   1.00
N194   N     0.28730   0.60197   0.13643   0.00000  Uiso   1.00
C195   C     0.08077   0.37907   0.18892   0.00000  Uiso   1.00
N196   N     0.04603   0.39803   0.19691   0.00000  Uiso   1.00
C197   C     0.10104   0.44625   0.03835   0.00000  Uiso   1.00
N198   N     0.07376   0.42347   0.05297   0.00000  Uiso   1.00
C199   C     0.23230   0.55375   0.29498   0.00000  Uiso   1.00
N200   N     0.25958   0.57653   0.28036   0.00000  Uiso   1.00
C201   C     0.50045   0.42090   0.16659   0.00000  Uiso   1.00
C202   C     0.49955   0.57910   0.16674   0.00000  Uiso   1.00
C203   C     0.40144   0.50050   0.15461   0.00000  Uiso   1.00
C204   C     0.59855   0.49950   0.17872   0.00000  Uiso   1.00
C205   C     0.34661   0.49771   0.14797   0.00000  Uiso   1.00
C206   C     0.65339   0.50229   0.18537   0.00000  Uiso   1.00
C207   C     0.54299   0.35460   0.15434   0.00000  Uiso   1.00
C208   C     0.45701   0.64540   0.17899   0.00000  Uiso   1.00
C209   C     0.54212   0.64458   0.15441   0.00000  Uiso   1.00
C210   C     0.45788   0.35542   0.17892   0.00000  Uiso   1.00
C211   C     0.49942   0.62382   0.16670   0.00000  Uiso   1.00
C212   C     0.50058   0.37618   0.16663   0.00000  Uiso   1.00
C213   C     0.46822   0.47432   0.01977   0.00000  Uiso   1.00
C214   C     0.53177   0.52568   0.31356   0.00000  Uiso   1.00
C215   C     0.46833   0.47448   0.30362   0.00000  Uiso   1.00
C216   C     0.53167   0.52552   0.02971   0.00000  Uiso   1.00
Cu217  Cu    0.50000   0.50001   0.21355   0.00000  Uiso   1.00
Cu218  Cu    0.50000   0.49999   0.11978   0.00000  Uiso   1.00
H219   H     0.44312   0.45409   0.28084   0.00000  Uiso   1.00
H220   H     0.55688   0.54591   0.05249   0.00000  Uiso   1.00
N221   N     0.50001   0.50001   0.28403   0.00000  Uiso   1.00
N222   N     0.49999   0.49999   0.04931   0.00000  Uiso   1.00
O223   O     0.50000   0.43989   0.20625   0.00000  Uiso   1.00
O224   O     0.50000   0.56011   0.12709   0.00000  Uiso   1.00
O225   O     0.50000   0.43988   0.12706   0.00000  Uiso   1.00
O226   O     0.50000   0.56012   0.20628   0.00000  Uiso   1.00
O227   O     0.42495   0.50000   0.19712   0.00000  Uiso   1.00
O228   O     0.57505   0.50000   0.13621   0.00000  Uiso   1.00
O229   O     0.42494   0.49999   0.11793   0.00000  Uiso   1.00
O230   O     0.57506   0.50001   0.21540   0.00000  Uiso   1.00
C231   C     0.65695   0.48591   0.09897   0.00000  Uiso   1.00
H232   H     0.66365   0.50503   0.06953   0.00000  Uiso   1.00
O233   O     0.63353   0.45358   0.09104   0.00000  Uiso   1.00
C234   C     0.34305   0.51409   0.23436   0.00000  Uiso   1.00
H235   H     0.33635   0.49497   0.26380   0.00000  Uiso   1.00
O236   O     0.36647   0.54642   0.24230   0.00000  Uiso   1.00
C237   C     0.58838   0.37792   0.14360   0.00000  Uiso   1.00
H238   H     0.59636   0.40860   0.15833   0.00000  Uiso   1.00
O239   O     0.61673   0.36369   0.11763   0.00000  Uiso   1.00
C240   C     0.41162   0.62208   0.18973   0.00000  Uiso   1.00
H241   H     0.40364   0.59140   0.17500   0.00000  Uiso   1.00
O242   O     0.38326   0.63631   0.21570   0.00000  Uiso   1.00
C243   C     0.58590   0.62093   0.14441   0.00000  Uiso   1.00
N244   N     0.62064   0.60197   0.13643   0.00000  Uiso   1.00
C245   C     0.41410   0.37907   0.18892   0.00000  Uiso   1.00
N246   N     0.37936   0.39803   0.19691   0.00000  Uiso   1.00
C247   C     0.43437   0.44625   0.03835   0.00000  Uiso   1.00
N248   N     0.40709   0.42347   0.05297   0.00000  Uiso   1.00
C249   C     0.56563   0.55375   0.29498   0.00000  Uiso   1.00
N250   N     0.59291   0.57653   0.28036   0.00000  Uiso   1.00
C251   C     0.83379   0.42090   0.16659   0.00000  Uiso   1.00
C252   C     0.83288   0.57910   0.16674   0.00000  Uiso   1.00
C253   C     0.73478   0.50050   0.15461   0.00000  Uiso   1.00
C254   C     0.93189   0.49950   0.17872   0.00000  Uiso   1.00
C255   C     0.67994   0.49771   0.14797   0.00000  Uiso   1.00
C256   C     0.98673   0.50229   0.18537   0.00000  Uiso   1.00
C257   C     0.87632   0.35460   0.15434   0.00000  Uiso   1.00
C258   C     0.79035   0.64540   0.17899   0.00000  Uiso   1.00
C259   C     0.87546   0.64458   0.15441   0.00000  Uiso   1.00
C260   C     0.79121   0.35542   0.17892   0.00000  Uiso   1.00
C261   C     0.83275   0.62382   0.16670   0.00000  Uiso   1.00
C262   C     0.83392   0.37618   0.16663   0.00000  Uiso   1.00
C263   C     0.80156   0.47432   0.01977   0.00000  Uiso   1.00
C264   C     0.86511   0.52568   0.31356   0.00000  Uiso   1.00
C265   C     0.80167   0.47448   0.30362   0.00000  Uiso   1.00
C266   C     0.86500   0.52552   0.02971   0.00000  Uiso   1.00
Cu267  Cu    0.83333   0.50001   0.21355   0.00000  Uiso   1.00
Cu268  Cu    0.83333   0.49999   0.11978   0.00000  Uiso   1.00
H269   H     0.77646   0.45409   0.28084   0.00000  Uiso   1.00
H270   H     0.89021   0.54591   0.05249   0.00000  Uiso   1.00
N271   N     0.83335   0.50001   0.28403   0.00000  Uiso   1.00
N272   N     0.83332   0.49999   0.04931   0.00000  Uiso   1.00
O273   O     0.83333   0.43989   0.20625   0.00000  Uiso   1.00
O274   O     0.83334   0.56011   0.12709   0.00000  Uiso   1.00
O275   O     0.83333   0.43988   0.12706   0.00000  Uiso   1.00
O276   O     0.83334   0.56012   0.20628   0.00000  Uiso   1.00
O277   O     0.75828   0.50000   0.19712   0.00000  Uiso   1.00
O278   O     0.90839   0.50000   0.13621   0.00000  Uiso   1.00
O279   O     0.75828   0.49999   0.11793   0.00000  Uiso   1.00
O280   O     0.90839   0.50001   0.21540   0.00000  Uiso   1.00
C281   C     0.99028   0.48591   0.09897   0.00000  Uiso   1.00
H282   H     0.99698   0.50503   0.06953   0.00000  Uiso   1.00
O283   O     0.96686   0.45358   0.09104   0.00000  Uiso   1.00
C284   C     0.67638   0.51409   0.23436   0.00000  Uiso   1.00
H285   H     0.66969   0.49497   0.26380   0.00000  Uiso   1.00
O286   O     0.69980   0.54642   0.24230   0.00000  Uiso   1.00
C287   C     0.92171   0.37792   0.14360   0.00000  Uiso   1.00
H288   H     0.92969   0.40860   0.15833   0.00000  Uiso   1.00
O289   O     0.95007   0.36369   0.11763   0.00000  Uiso   1.00
C290   C     0.74495   0.62208   0.18973   0.00000  Uiso   1.00
H291   H     0.73698   0.59140   0.17500   0.00000  Uiso   1.00
O292   O     0.71660   0.63631   0.21570   0.00000  Uiso   1.00
C293   C     0.91923   0.62093   0.14441   0.00000  Uiso   1.00
N294   N     0.95397   0.60197   0.13643   0.00000  Uiso   1.00
C295   C     0.74743   0.37907   0.18892   0.00000  Uiso   1.00
N296   N     0.71269   0.39803   0.19691   0.00000  Uiso   1.00
C297   C     0.76770   0.44625   0.03835   0.00000  Uiso   1.00
N298   N     0.74042   0.42347   0.05297   0.00000  Uiso   1.00
C299   C     0.89896   0.55375   0.29498   0.00000  Uiso   1.00
N300   N     0.92624   0.57653   0.28036   0.00000  Uiso   1.00
C301   C     0.16712   0.75423   0.16659   0.00000  Uiso   1.00
C302   C     0.16621   0.91243   0.16674   0.00000  Uiso   1.00
C303   C     0.06811   0.83384   0.15461   0.00000  Uiso   1.00
C304   C     0.26522   0.83283   0.17872   0.00000  Uiso   1.00
C305   C     0.01327   0.83105   0.14797   0.00000  Uiso   1.00
C306   C     0.32006   0.83562   0.18537   0.00000  Uiso   1.00
C307   C     0.20965   0.68793   0.15434   0.00000  Uiso   1.00
C308   C     0.12368   0.97873   0.17899   0.00000  Uiso   1.00
C309   C     0.20879   0.97791   0.15441   0.00000  Uiso   1.00
C310   C     0.12454   0.68876   0.17892   0.00000  Uiso   1.00
C311   C     0.16608   0.95715   0.16670   0.00000  Uiso   1.00
C312   C     0.16725   0.70952   0.16663   0.00000  Uiso   1.00
C313   C     0.13489   0.80766   0.01977   0.00000  Uiso   1.00
C314   C     0.19844   0.85901   0.31356   0.00000  Uiso   1.00
C315   C     0.13500   0.80781   0.30362   0.00000  Uiso   1.00
C316   C     0.19833   0.85885   0.02971   0.00000  Uiso   1.00
Cu317  Cu    0.16667   0.83334   0.21355   0.00000  Uiso   1.00
Cu318  Cu    0.16667   0.83333   0.11978   0.00000  Uiso   1.00
H319   H     0.10979   0.78742   0.28084   0.00000  Uiso   1.00
H320   H     0.22354   0.87924   0.05249   0.00000  Uiso   1.00
N321   N     0.16668   0.83334   0.28403   0.00000  Uiso   1.00
N322   N     0.16665   0.83332   0.04931   0.00000  Uiso   1.00
O323   O     0.16666   0.77322   0.20625   0.00000  Uiso   1.00
O324   O     0.16667   0.89345   0.12709   0.00000  Uiso   1.00
O325   O     0.16666   0.77321   0.12706   0.00000  Uiso   1.00
O326   O     0.16667   0.89346   0.20628   0.00000  Uiso   1.00
O327   O     0.09161   0.83334   0.19712   0.00000  Uiso   1.00
O328   O     0.24172   0.83333   0.13621   0.00000  Uiso   1.00
O329   O     0.09161   0.83333   0.11793   0.00000  Uiso   1.00
O330   O     0.24172   0.83334   0.21540   0.00000  Uiso   1.00
C331   C     0.32362   0.81925   0.09897   0.00000  Uiso   1.00
H332   H     0.33031   0.83836   0.06953   0.00000  Uiso   1.00
O333   O     0.30020   0.78691   0.09104   0.00000  Uiso   1.00
C334   C     0.00972   0.84742   0.23436   0.00000  Uiso   1.00
H335   H     0.00302   0.82830   0.26380   0.00000  Uiso   1.00
O336   O     0.03314   0.87976   0.24230   0.00000  Uiso   1.00
C337   C     0.25505   0.71125   0.14360   0.00000  Uiso   1.00
H338   H     0.26302   0.74193   0.15833   0.00000  Uiso   1.00
O339   O     0.28340   0.69702   0.11763   0.00000  Uiso   1.00
C340   C     0.07829   0.95541   0.18973   0.00000  Uiso   1.00
H341   H     0.07031   0.92474   0.17500   0.00000  Uiso   1.00
O342   O     0.04993   0.96964   0.21570   0.00000  Uiso   1.00
C343   C     0.25257   0.95426   0.14441   0.00000  Uiso   1.00
N344   N     0.28730   0.93530   0.13643   0.00000  Uiso   1.00
C345   C     0.08077   0.71240   0.18892   0.00000  Uiso   1.00
N346   N     0.04603   0.73137   0.19691   0.00000  Uiso   1.00
C347   C     0.10104   0.77959   0.03835   0.00000  Uiso   1.00
N348   N     0.07376   0.75681   0.05297   0.00000  Uiso   1.00
C349   C     0.23230   0.88708   0.29498   0.00000  Uiso   1.00
N350   N     0.25958   0.90986   0.28036   0.00000  Uiso   1.00
C351   C     0.50045   0.75423   0.16659   0.00000  Uiso   1.00
C352   C     0.49955   0.91243   0.16674   0.00000  Uiso   1.00
C353   C     0.40144   0.83384   0.15461   0.00000  Uiso   1.00
C354   C     0.59855   0.83283   0.17872   0.00000  Uiso   1.00
C355   C     0.34661   0.83105   0.14797   0.00000  Uiso   1.00
C356   C     0.65339   0.83562   0.18537   0.00000  Uiso   1.00
C357   C     0.54299   0.68793   0.15434   0.00000  Uiso   1.00
C358   C     0.45701   0.97873   0.17899   0.00000  Uiso   1.00
C359   C     0.54212   0.97791   0.15441   0.00000  Uiso   1.00
C360   C     0.45788   0.68876   0.17892   0.00000  Uiso   1.00
C361   C     0.49942   0.95715   0.16670   0.00000  Uiso   1.00
C362   C     0.50058   0.70952   0.16663   0.00000  Uiso   1.00
C363   C     0.46822   0.80766   0.01977   0.00000  Uiso   1.00
C364   C     0.53177   0.85901   0.31356   0.00000  Uiso   1.00
C365   C     0.46833   0.80781   0.30362   0.00000  Uiso   1.00
C366   C     0.53167   0.85885   0.02971   0.00000  Uiso   1.00
Cu367  Cu    0.50000   0.83334   0.21355   0.00000  Uiso   1.00
Cu368  Cu    0.50000   0.83333   0.11978   0.00000  Uiso   1.00
H369   H     0.44312   0.78742   0.28084   0.00000  Uiso   1.00
H370   H     0.55688   0.87924   0.05249   0.00000  Uiso   1.00
N371   N     0.50001   0.83334   0.28403   0.00000  Uiso   1.00
N372   N     0.49999   0.83332   0.04931   0.00000  Uiso   1.00
O373   O     0.50000   0.77322   0.20625   0.00000  Uiso   1.00
O374   O     0.50000   0.89345   0.12709   0.00000  Uiso   1.00
O375   O     0.50000   0.77321   0.12706   0.00000  Uiso   1.00
O376   O     0.50000   0.89346   0.20628   0.00000  Uiso   1.00
O377   O     0.42495   0.83334   0.19712   0.00000  Uiso   1.00
O378   O     0.57505   0.83333   0.13621   0.00000  Uiso   1.00
O379   O     0.42494   0.83333   0.11793   0.00000  Uiso   1.00
O380   O     0.57506   0.83334   0.21540   0.00000  Uiso   1.00
C381   C     0.65695   0.81925   0.09897   0.00000  Uiso   1.00
H382   H     0.66365   0.83836   0.06953   0.00000  Uiso   1.00
O383   O     0.63353   0.78691   0.09104   0.00000  Uiso   1.00
C384   C     0.34305   0.84742   0.23436   0.00000  Uiso   1.00
H385   H     0.33635   0.82830   0.26380   0.00000  Uiso   1.00
O386   O     0.36647   0.87976   0.24230   0.00000  Uiso   1.00
C387   C     0.58838   0.71125   0.14360   0.00000  Uiso   1.00
H388   H     0.59636   0.74193   0.15833   0.00000  Uiso   1.00
O389   O     0.61673   0.69702   0.11763   0.00000  Uiso   1.00
C390   C     0.41162   0.95541   0.18973   0.00000  Uiso   1.00
H391   H     0.40364   0.92474   0.17500   0.00000  Uiso   1.00
O392   O     0.38326   0.96964   0.21570   0.00000  Uiso   1.00
C393   C     0.58590   0.95426   0.14441   0.00000  Uiso   1.00
N394   N     0.62064   0.93530   0.13643   0.00000  Uiso   1.00
C395   C     0.41410   0.71240   0.18892   0.00000  Uiso   1.00
N396   N     0.37936   0.73137   0.19691   0.00000  Uiso   1.00
C397   C     0.43437   0.77959   0.03835   0.00000  Uiso   1.00
N398   N     0.40709   0.75681   0.05297   0.00000  Uiso   1.00
C399   C     0.56563   0.88708   0.29498   0.00000  Uiso   1.00
N400   N     0.59291   0.90986   0.28036   0.00000  Uiso   1.00
C401   C     0.83379   0.75423   0.16659   0.00000  Uiso   1.00
C402   C     0.83288   0.91243   0.16674   0.00000  Uiso   1.00
C403   C     0.73478   0.83384   0.15461   0.00000  Uiso   1.00
C404   C     0.93189   0.83283   0.17872   0.00000  Uiso   1.00
C405   C     0.67994   0.83105   0.14797   0.00000  Uiso   1.00
C406   C     0.98673   0.83562   0.18537   0.00000  Uiso   1.00
C407   C     0.87632   0.68793   0.15434   0.00000  Uiso   1.00
C408   C     0.79035   0.97873   0.17899   0.00000  Uiso   1.00
C409   C     0.87546   0.97791   0.15441   0.00000  Uiso   1.00
C410   C     0.79121   0.68876   0.17892   0.00000  Uiso   1.00
C411   C     0.83275   0.95715   0.16670   0.00000  Uiso   1.00
C412   C     0.83392   0.70952   0.16663   0.00000  Uiso   1.00
C413   C     0.80156   0.80766   0.01977   0.00000  Uiso   1.00
C414   C     0.86511   0.85901   0.31356   0.00000  Uiso   1.00
C415   C     0.80167   0.80781   0.30362   0.00000  Uiso   1.00
C416   C     0.86500   0.85885   0.02971   0.00000  Uiso   1.00
Cu417  Cu    0.83333   0.83334   0.21355   0.00000  Uiso   1.00
Cu418  Cu    0.83333   0.83333   0.11978   0.00000  Uiso   1.00
H419   H     0.77646   0.78742   0.28084   0.00000  Uiso   1.00
H420   H     0.89021   0.87924   0.05249   0.00000  Uiso   1.00
N421   N     0.83335   0.83334   0.28403   0.00000  Uiso   1.00
N422   N     0.83332   0.83332   0.04931   0.00000  Uiso   1.00
O423   O     0.83333   0.77322   0.20625   0.00000  Uiso   1.00
O424   O     0.83334   0.89345   0.12709   0.00000  Uiso   1.00
O425   O     0.83333   0.77321   0.12706   0.00000  Uiso   1.00
O426   O     0.83334   0.89346   0.20628   0.00000  Uiso   1.00
O427   O     0.75828   0.83334   0.19712   0.00000  Uiso   1.00
O428   O     0.90839   0.83333   0.13621   0.00000  Uiso   1.00
O429   O     0.75828   0.83333   0.11793   0.00000  Uiso   1.00
O430   O     0.90839   0.83334   0.21540   0.00000  Uiso   1.00
C431   C     0.99028   0.81925   0.09897   0.00000  Uiso   1.00
H432   H     0.99698   0.83836   0.06953   0.00000  Uiso   1.00
O433   O     0.96686   0.78691   0.09104   0.00000  Uiso   1.00
C434   C     0.67638   0.84742   0.23436   0.00000  Uiso   1.00
H435   H     0.66969   0.82830   0.26380   0.00000  Uiso   1.00
O436   O     0.69980   0.87976   0.24230   0.00000  Uiso   1.00
C437   C     0.92171   0.71125   0.14360   0.00000  Uiso   1.00
H438   H     0.92969   0.74193   0.15833   0.00000  Uiso   1.00
O439   O     0.95007   0.69702   0.11763   0.00000  Uiso   1.00
C440   C     0.74495   0.95541   0.18973   0.00000  Uiso   1.00
H441   H     0.73698   0.92474   0.17500   0.00000  Uiso   1.00
O442   O     0.71660   0.96964   0.21570   0.00000  Uiso   1.00
C443   C     0.91923   0.95426   0.14441   0.00000  Uiso   1.00
N444   N     0.95397   0.93530   0.13643   0.00000  Uiso   1.00
C445   C     0.74743   0.71240   0.18892   0.00000  Uiso   1.00
N446   N     0.71269   0.73137   0.19691   0.00000  Uiso   1.00
C447   C     0.76770   0.77959   0.03835   0.00000  Uiso   1.00
N448   N     0.74042   0.75681   0.05297   0.00000  Uiso   1.00
C449   C     0.89896   0.88708   0.29498   0.00000  Uiso   1.00
N450   N     0.92624   0.90986   0.28036   0.00000  Uiso   1.00
C451   C     0.16712   0.08757   0.49992   0.00000  Uiso   1.00
C452   C     0.16621   0.24577   0.50008   0.00000  Uiso   1.00
C453   C     0.06811   0.16717   0.48794   0.00000  Uiso   1.00
C454   C     0.26522   0.16616   0.51206   0.00000  Uiso   1.00
C455   C     0.01327   0.16438   0.48130   0.00000  Uiso   1.00
C456   C     0.32006   0.16895   0.51870   0.00000  Uiso   1.00
C457   C     0.20965   0.02127   0.48768   0.00000  Uiso   1.00
C458   C     0.12368   0.31207   0.51232   0.00000  Uiso   1.00
C459   C     0.20879   0.31124   0.48775   0.00000  Uiso   1.00
C460   C     0.12454   0.02209   0.51225   0.00000  Uiso   1.00
C461   C     0.16608   0.29048   0.50004   0.00000  Uiso   1.00
C462   C     0.16725   0.04285   0.49996   0.00000  Uiso   1.00
C463   C     0.13489   0.14099   0.35311   0.00000  Uiso   1.00
C464   C     0.19844   0.19234   0.64689   0.00000  Uiso   1.00
C465   C     0.13500   0.14115   0.63696   0.00000  Uiso   1.00
C466   C     0.19833   0.19219   0.36304   0.00000  Uiso   1.00
Cu467  Cu    0.16667   0.16667   0.54689   0.00000  Uiso   1.00
Cu468  Cu    0.16667   0.16666   0.45311   0.00000  Uiso   1.00
H469   H     0.10979   0.12076   0.61418   0.00000  Uiso   1.00
H470   H     0.22354   0.21258   0.38582   0.00000  Uiso   1.00
N471   N     0.16668   0.16668   0.61736   0.00000  Uiso   1.00
N472   N     0.16665   0.16666   0.38264   0.00000  Uiso   1.00
O473   O     0.16666   0.10655   0.53958   0.00000  Uiso   1.00
O474   O     0.16667   0.22678   0.46042   0.00000  Uiso   1.00
O475   O     0.16666   0.10654   0.46039   0.00000  Uiso   1.00
O476   O     0.16667   0.22679   0.53961   0.00000  Uiso   1.00
O477   O     0.09161   0.16667   0.53046   0.00000  Uiso   1.00
O478   O     0.24172   0.16666   0.46954   0.00000  Uiso   1.00
O479   O     0.09161   0.16666   0.45127   0.00000  Uiso   1.00
O480   O     0.24172   0.16667   0.54873   0.00000  Uiso   1.00
C481   C     0.32362   0.15258   0.43230   0.00000  Uiso   1.00
H482   H     0.33031   0.17170   0.40286   0.00000  Uiso   1.00
O483   O     0.30020   0.12024   0.42437   0.00000  Uiso   1.00
C484   C     0.00972   0.18075   0.56770   0.00000  Uiso   1.00
H485   H     0.00302   0.16164   0.59714   0.00000  Uiso   1.00
O486   O     0.03314   0.21309   0.57563   0.00000  Uiso   1.00
C487   C     0.25505   0.04459   0.47694   0.00000  Uiso   1.00
H488   H     0.26302   0.07526   0.49167   0.00000  Uiso   1.00
O489   O     0.28340   0.03036   0.45097   0.00000  Uiso   1.00
C490   C     0.07829   0.28874   0.52306   0.00000  Uiso   1.00
H491   H     0.07031   0.25807   0.50833   0.00000  Uiso   1.00
O492   O     0.04993   0.30298   0.54903   0.00000  Uiso   1.00
C493   C     0.25257   0.28759   0.47774   0.00000  Uiso   1.00
N494   N     0.28730   0.26863   0.46976   0.00000  Uiso   1.00
C495   C     0.08077   0.04574   0.52226   0.00000  Uiso   1.00
N496   N     0.04603   0.06470   0.53024   0.00000  Uiso   1.00
C497   C     0.10104   0.11292   0.37169   0.00000  Uiso   1.00
N498   N     0.07376   0.09014   0.38631   0.00000  Uiso   1.00
C499   C     0.23230   0.22041   0.62831   0.00000  Uiso   1.00
N500   N     0.25958   0.24319   0.61369   0.00000  Uiso   1.00
C501   C     0.50045   0.08757   0.49992   0.00000  Uiso   1.00
C502   C     0.49955   0.24577   0.50008   0.00000  Uiso   1.00
C503   C     0.40144   0.16717   0.48794   0.00000  Uiso   1.00
C504   C     0.59855   0.16616   0.51206   0.00000  Uiso   1.00
C505   C     0.34661   0.16438   0.48130   0.00000  Uiso   1.00
C506   C     0.65339   0.16895   0.51870   0.00000  Uiso   1.00
C507   C     0.54299   0.02127   0.48768   0.00000  Uiso   1.00
C508   C     0.45701   0.31207   0.51232   0.00000  Uiso   1.00
C509   C     0.54212   0.31124   0.48775   0.00000  Uiso   1.00
C510   C     0.45788   0.02209   0.51225   0.00000  Uiso   1.00
C511   C     0.49942   0.29048   0.50004   0.00000  Uiso   1.00
C512   C     0.50058   0.04285   0.49996   0.00000  Uiso   1.00
C513   C     0.46822   0.14099   0.35311   0.00000  Uiso   1.00
C514   C     0.53177   0.19234   0.64689   0.00000  Uiso   1.00
C515   C     0.46833   0.14115   0.63696   0.00000  Uiso   1.00
C516   C     0.53167   0.19219   0.36304   0.00000  Uiso   1.00
Cu517  Cu    0.50000   0.16667   0.54689   0.00000  Uiso   1.00
Cu518  Cu    0.50000   0.16666   0.45311   0.00000  Uiso   1.00
H519   H     0.44312   0.12076   0.61418   0.00000  Uiso   1.00
H520   H     0.55688   0.21258   0.38582   0.00000  Uiso   1.00
N521   N     0.50001   0.16668   0.61736   0.00000  Uiso   1.00
N522   N     0.49999   0.16666   0.38264   0.00000  Uiso   1.00
O523   O     0.50000   0.10655   0.53958   0.00000  Uiso   1.00
O524   O     0.50000   0.22678   0.46042   0.00000  Uiso   1.00
O525   O     0.50000   0.10654   0.46039   0.00000  Uiso   1.00
O526   O     0.50000   0.22679   0.53961   0.00000  Uiso   1.00
O527   O     0.42495   0.16667   0.53046   0.00000  Uiso   1.00
O528   O     0.57505   0.16666   0.46954   0.00000  Uiso   1.00
O529   O     0.42494   0.16666   0.45127   0.00000  Uiso   1.00
O530   O     0.57506   0.16667   0.54873   0.00000  Uiso   1.00
C531   C     0.65695   0.15258   0.43230   0.00000  Uiso   1.00
H532   H     0.66365   0.17170   0.40286   0.00000  Uiso   1.00
O533   O     0.63353   0.12024   0.42437   0.00000  Uiso   1.00
C534   C     0.34305   0.18075   0.56770   0.00000  Uiso   1.00
H535   H     0.33635   0.16164   0.59714   0.00000  Uiso   1.00
O536   O     0.36647   0.21309   0.57563   0.00000  Uiso   1.00
C537   C     0.58838   0.04459   0.47694   0.00000  Uiso   1.00
H538   H     0.59636   0.07526   0.49167   0.00000  Uiso   1.00
O539   O     0.61673   0.03036   0.45097   0.00000  Uiso   1.00
C540   C     0.41162   0.28874   0.52306   0.00000  Uiso   1.00
H541   H     0.40364   0.25807   0.50833   0.00000  Uiso   1.00
O542   O     0.38326   0.30298   0.54903   0.00000  Uiso   1.00
C543   C     0.58590   0.28759   0.47774   0.00000  Uiso   1.00
N544   N     0.62064   0.26863   0.46976   0.00000  Uiso   1.00
C545   C     0.41410   0.04574   0.52226   0.00000  Uiso   1.00
N546   N     0.37936   0.06470   0.53024   0.00000  Uiso   1.00
C547   C     0.43437   0.11292   0.37169   0.00000  Uiso   1.00
N548   N     0.40709   0.09014   0.38631   0.00000  Uiso   1.00
C549   C     0.56563   0.22041   0.62831   0.00000  Uiso   1.00
N550   N     0.59291   0.24319   0.61369   0.00000  Uiso   1.00
C551   C     0.83379   0.08757   0.49992   0.00000  Uiso   1.00
C552   C     0.83288   0.24577   0.50008   0.00000  Uiso   1.00
C553   C     0.73478   0.16717   0.48794   0.00000  Uiso   1.00
C554   C     0.93189   0.16616   0.51206   0.00000  Uiso   1.00
C555   C     0.67994   0.16438   0.48130   0.00000  Uiso   1.00
C556   C     0.98673   0.16895   0.51870   0.00000  Uiso   1.00
C557   C     0.87632   0.02127   0.48768   0.00000  Uiso   1.00
C558   C     0.79035   0.31207   0.51232   0.00000  Uiso   1.00
C559   C     0.87546   0.31124   0.48775   0.00000  Uiso   1.00
C560   C     0.79121   0.02209   0.51225   0.00000  Uiso   1.00
C561   C     0.83275   0.29048   0.50004   0.00000  Uiso   1.00
C562   C     0.83392   0.04285   0.49996   0.00000  Uiso   1.00
C563   C     0.80156   0.14099   0.35311   0.00000  Uiso   1.00
C564   C     0.86511   0.19234   0.64689   0.00000  Uiso   1.00
C565   C     0.80167   0.14115   0.63696   0.00000  Uiso   1.00
C566   C     0.86500   0.19219   0.36304   0.00000  Uiso   1.00
Cu567  Cu    0.83333   0.16667   0.54689   0.00000  Uiso   1.00
Cu568  Cu    0.83333   0.16666   0.45311   0.00000  Uiso   1.00
H569   H     0.77646   0.12076   0.61418   0.00000  Uiso   1.00
H570   H     0.89021   0.21258   0.38582   0.00000  Uiso   1.00
N571   N     0.83335   0.16668   0.61736   0.00000  Uiso   1.00
N572   N     0.83332   0.16666   0.38264   0.00000  Uiso   1.00
O573   O     0.83333   0.10655   0.53958   0.00000  Uiso   1.00
O574   O     0.83334   0.22678   0.46042   0.00000  Uiso   1.00
O575   O     0.83333   0.10654   0.46039   0.00000  Uiso   1.00
O576   O     0.83334   0.22679   0.53961   0.00000  Uiso   1.00
O577   O     0.75828   0.16667   0.53046   0.00000  Uiso   1.00
O578   O     0.90839   0.16666   0.46954   0.00000  Uiso   1.00
O579   O     0.75828   0.16666   0.45127   0.00000  Uiso   1.00
O580   O     0.90839   0.16667   0.54873   0.00000  Uiso   1.00
C581   C     0.99028   0.15258   0.43230   0.00000  Uiso   1.00
H582   H     0.99698   0.17170   0.40286   0.00000  Uiso   1.00
O583   O     0.96686   0.12024   0.42437   0.00000  Uiso   1.00
C584   C     0.67638   0.18075   0.56770   0.00000  Uiso   1.00
H585   H     0.66969   0.16164   0.59714   0.00000  Uiso   1.00
O586   O     0.69980   0.21309   0.57563   0.00000  Uiso   1.00
C587   C     0.92171   0.04459   0.47694   0.00000  Uiso   1.00
H588   H     0.92969   0.07526   0.49167   0.00000  Uiso   1.00
O589   O     0.95007   0.03036   0.45097   0.00000  Uiso   1.00
C590   C     0.74495   0.28874   0.52306   0.00000  Uiso   1.00
H591   H     0.73698   0.25807   0.50833   0.00000  Uiso   1.00
O592   O     0.71660   0.30298   0.54903   0.00000  Uiso   1.00
C593   C     0.91923   0.28759   0.47774   0.00000  Uiso   1.00
N594   N     0.95397   0.26863   0.46976   0.00000  Uiso   1.00
C595   C     0.74743   0.04574   0.52226   0.00000  Uiso   1.00
N596   N     0.71269   0.06470   0.53024   0.00000  Uiso   1.00
C597   C     0.76770   0.11292   0.37169   0.00000  Uiso   1.00
N598   N     0.74042   0.09014   0.38631   0.00000  Uiso   1.00
C599   C     0.89896   0.22041   0.62831   0.00000  Uiso   1.00
N600   N     0.92624   0.24319   0.61369   0.00000  Uiso   1.00
C601   C     0.16712   0.42090   0.49992   0.00000  Uiso   1.00
C602   C     0.16621   0.57910   0.50008   0.00000  Uiso   1.00
C603   C     0.06811   0.50050   0.48794   0.00000  Uiso   1.00
C604   C     0.26522   0.49950   0.51206   0.00000  Uiso   1.00
C605   C     0.01327   0.49771   0.48130   0.00000  Uiso   1.00
C606   C     0.32006   0.50229   0.51870   0.00000  Uiso   1.00
C607   C     0.20965   0.35460   0.48768   0.00000  Uiso   1.00
C608   C     0.12368   0.64540   0.51232   0.00000  Uiso   1.00
C609   C     0.20879   0.64458   0.48775   0.00000  Uiso   1.00
C610   C     0.12454   0.35542   0.51225   0.00000  Uiso   1.00
C611   C     0.16608   0.62382   0.50004   0.00000  Uiso   1.00
C612   C     0.16725   0.37618   0.49996   0.00000  Uiso   1.00
C613   C     0.13489   0.47432   0.35311   0.00000  Uiso   1.00
C614   C     0.19844   0.52568   0.64689   0.00000  Uiso   1.00
C615   C     0.13500   0.47448   0.63696   0.00000  Uiso   1.00
C616   C     0.19833   0.52552   0.36304   0.00000  Uiso   1.00
Cu617  Cu    0.16667   0.50001   0.54689   0.00000  Uiso   1.00
Cu618  Cu    0.16667   0.49999   0.45311   0.00000  Uiso   1.00
H619   H     0.10979   0.45409   0.61418   0.00000  Uiso   1.00
H620   H     0.22354   0.54591   0.38582   0.00000  Uiso   1.00
N621   N     0.16668   0.50001   0.61736   0.00000  Uiso   1.00
N622   N     0.16665   0.49999   0.38264   0.00000  Uiso   1.00
O623   O     0.16666   0.43989   0.53958   0.00000  Uiso   1.00
O624   O     0.16667   0.56011   0.46042   0.00000  Uiso   1.00
O625   O     0.16666   0.43988   0.46039   0.00000  Uiso   1.00
O626   O     0.16667   0.56012   0.53961   0.00000  Uiso   1.00
O627   O     0.09161   0.50000   0.53046   0.00000  Uiso   1.00
O628   O     0.24172   0.50000   0.46954   0.00000  Uiso   1.00
O629   O     0.09161   0.49999   0.45127   0.00000  Uiso   1.00
O630   O     0.24172   0.50001   0.54873   0.00000  Uiso   1.00
C631   C     0.32362   0.48591   0.43230   0.00000  Uiso   1.00
H632   H     0.33031   0.50503   0.40286   0.00000  Uiso   1.00
O633   O     0.30020   0.45358   0.42437   0.00000  Uiso   1.00
C634   C     0.00972   0.51409   0.56770   0.00000  Uiso   1.00
H635   H     0.00302   0.49497   0.59714   0.00000  Uiso   1.00
O636   O     0.03314   0.54642   0.57563   0.00000  Uiso   1.00
C637   C     0.25505   0.37792   0.47694   0.00000  Uiso   1.00
H638   H     0.26302   0.40860   0.49167   0.00000  Uiso   1.00
O639   O     0.28340   0.36369   0.45097   0.00000  Uiso   1.00
C640   C     0.07829   0.62208   0.52306   0.00000  Uiso   1.00
H641   H     0.07031   0.59140   0.50833   0.00000  Uiso   1.00
O642   O     0.04993   0.63631   0.54903   0.00000  Uiso   1.00
C643   C     0.25257   0.62093   0.47774   0.00000  Uiso   1.00
N644   N     0.28730   0.60197   0.46976   0.00000  Uiso   1.00
C645   C     0.08077   0.37907   0.52226   0.00000  Uiso   1.00
N646   N     0.04603   0.39803   0.53024   0.00000  Uiso   1.00
C647   C     0.10104   0.44625   0.37169   0.00000  Uiso   1.00
N648   N     0.07376   0.42347   0.38631   0.00000  Uiso   1.00
C649   C     0.23230   0.55375   0.62831   0.00000  Uiso   1.00
N650   N     0.25958   0.57653   0.61369   0.00000  Uiso   1.00
C651   C     0.50045   0.42090   0.49992   0.00000  Uiso   1.00
C652   C     0.49955   0.57910   0.50008   0.00000  Uiso   1.00
C653   C     0.40144   0.50050   0.48794   0.00000  Uiso   1.00
C654   C     0.59855   0.49950   0.51206   0.00000  Uiso   1.00
C655   C     0.34661   0.49771   0.48130   0.00000  Uiso   1.00
C656   C     0.65339   0.50229   0.51870   0.00000  Uiso   1.00
C657   C     0.54299   0.35460   0.48768   0.00000  Uiso   1.00
C658   C     0.45701   0.64540   0.51232   0.00000  Uiso   1.00
C659   C     0.54212   0.64458   0.48775   0.00000  Uiso   1.00
C660   C     0.45788   0.35542   0.51225   0.00000  Uiso   1.00
C661   C     0.49942   0.62382   0.50004   0.00000  Uiso   1.00
C662   C     0.50058   0.37618   0.49996   0.00000  Uiso   1.00
C663   C     0.46822   0.47432   0.35311   0.00000  Uiso   1.00
C664   C     0.53177   0.52568   0.64689   0.00000  Uiso   1.00
C665   C     0.46833   0.47448   0.63696   0.00000  Uiso   1.00
C666   C     0.53167   0.52552   0.36304   0.00000  Uiso   1.00
Cu667  Cu    0.50000   0.50001   0.54689   0.00000  Uiso   1.00
Cu668  Cu    0.50000   0.49999   0.45311   0.00000  Uiso   1.00
H669   H     0.44312   0.45409   0.61418   0.00000  Uiso   1.00
H670   H     0.55688   0.54591   0.38582   0.00000  Uiso   1.00
N671   N     0.50001   0.50001   0.61736   0.00000  Uiso   1.00
N672   N     0.49999   0.49999   0.38264   0.00000  Uiso   1.00
O673   O     0.50000   0.43989   0.53958   0.00000  Uiso   1.00
O674   O     0.50000   0.56011   0.46042   0.00000  Uiso   1.00
O675   O     0.50000   0.43988   0.46039   0.00000  Uiso   1.00
O676   O     0.50000   0.56012   0.53961   0.00000  Uiso   1.00
O677   O     0.42495   0.50000   0.53046   0.00000  Uiso   1.00
O678   O     0.57505   0.50000   0.46954   0.00000  Uiso   1.00
O679   O     0.42494   0.49999   0.45127   0.00000  Uiso   1.00
O680   O     0.57506   0.50001   0.54873   0.00000  Uiso   1.00
C681   C     0.65695   0.48591   0.43230   0.00000  Uiso   1.00
H682   H     0.66365   0.50503   0.40286   0.00000  Uiso   1.00
O683   O     0.63353   0.45358   0.42437   0.00000  Uiso   1.00
C684   C     0.34305   0.51409   0.56770   0.00000  Uiso   1.00
H685   H     0.33635   0.49497   0.59714   0.00000  Uiso   1.00
O686   O     0.36647   0.54642   0.57563   0.00000  Uiso   1.00
C687   C     0.58838   0.37792   0.47694   0.00000  Uiso   1.00
H688   H     0.59636   0.40860   0.49167   0.00000  Uiso   1.00
O689   O     0.61673   0.36369   0.45097   0.00000  Uiso   1.00
C690   C     0.41162   0.62208   0.52306   0.00000  Uiso   1.00
H691   H     0.40364   0.59140   0.50833   0.00000  Uiso   1.00
O692   O     0.38326   0.63631   0.54903   0.00000  Uiso   1.00
C693   C     0.58590   0.62093   0.47774   0.00000  Uiso   1.00
N694   N     0.62064   0.60197   0.46976   0.00000  Uiso   1.00
C695   C     0.41410   0.37907   0.52226   0.00000  Uiso   1.00
N696   N     0.37936   0.39803   0.53024   0.00000  Uiso   1.00
C697   C     0.43437   0.44625   0.37169   0.00000  Uiso   1.00
N698   N     0.40709   0.42347   0.38631   0.00000  Uiso   1.00
C699   C     0.56563   0.55375   0.62831   0.00000  Uiso   1.00
N700   N     0.59291   0.57653   0.61369   0.00000  Uiso   1.00
C701   C     0.83379   0.42090   0.49992   0.00000  Uiso   1.00
C702   C     0.83288   0.57910   0.50008   0.00000  Uiso   1.00
C703   C     0.73478   0.50050   0.48794   0.00000  Uiso   1.00
C704   C     0.93189   0.49950   0.51206   0.00000  Uiso   1.00
C705   C     0.67994   0.49771   0.48130   0.00000  Uiso   1.00
C706   C     0.98673   0.50229   0.51870   0.00000  Uiso   1.00
C707   C     0.87632   0.35460   0.48768   0.00000  Uiso   1.00
C708   C     0.79035   0.64540   0.51232   0.00000  Uiso   1.00
C709   C     0.87546   0.64458   0.48775   0.00000  Uiso   1.00
C710   C     0.79121   0.35542   0.51225   0.00000  Uiso   1.00
C711   C     0.83275   0.62382   0.50004   0.00000  Uiso   1.00
C712   C     0.83392   0.37618   0.49996   0.00000  Uiso   1.00
C713   C     0.80156   0.47432   0.35311   0.00000  Uiso   1.00
C714   C     0.86511   0.52568   0.64689   0.00000  Uiso   1.00
C715   C     0.80167   0.47448   0.63696   0.00000  Uiso   1.00
C716   C     0.86500   0.52552   0.36304   0.00000  Uiso   1.00
Cu717  Cu    0.83333   0.50001   0.54689   0.00000  Uiso   1.00
Cu718  Cu    0.83333   0.49999   0.45311   0.00000  Uiso   1.00
H719   H     0.77646   0.45409   0.61418   0.00000  Uiso   1.00
H720   H     0.89021   0.54591   0.38582   0.00000  Uiso   1.00
N721   N     0.83335   0.50001   0.61736   0.00000  Uiso   1.00
N722   N     0.83332   0.49999   0.38264   0.00000  Uiso   1.00
O723   O     0.83333   0.43989   0.53958   0.00000  Uiso   1.00
O724   O     0.83334   0.56011   0.46042   0.00000  Uiso   1.00
O725   O     0.83333   0.43988   0.46039   0.00000  Uiso   1.00
O726   O     0.83334   0.56012   0.53961   0.00000  Uiso   1.00
O727   O     0.75828   0.50000   0.53046   0.00000  Uiso   1.00
O728   O     0.90839   0.50000   0.46954   0.00000  Uiso   1.00
O729   O     0.75828   0.49999   0.45127   0.00000  Uiso   1.00
O730   O     0.90839   0.50001   0.54873   0.00000  Uiso   1.00
C731   C     0.99028   0.48591   0.43230   0.00000  Uiso   1.00
H732   H     0.99698   0.50503   0.40286   0.00000  Uiso   1.00
O733   O     0.96686   0.45358   0.42437   0.00000  Uiso   1.00
C734   C     0.67638   0.51409   0.56770   0.00000  Uiso   1.00
H735   H     0.66969   0.49497   0.59714   0.00000  Uiso   1.00
O736   O     0.69980   0.54642   0.57563   0.00000  Uiso   1.00
C737   C     0.92171   0.37792   0.47694   0.00000  Uiso   1.00
H738   H     0.92969   0.40860   0.49167   0.00000  Uiso   1.00
O739   O     0.95007   0.36369   0.45097   0.00000  Uiso   1.00
C740   C     0.74495   0.62208   0.52306   0.00000  Uiso   1.00
H741   H     0.73698   0.59140   0.50833   0.00000  Uiso   1.00
O742   O     0.71660   0.63631   0.54903   0.00000  Uiso   1.00
C743   C     0.91923   0.62093   0.47774   0.00000  Uiso   1.00
N744   N     0.95397   0.60197   0.46976   0.00000  Uiso   1.00
C745   C     0.74743   0.37907   0.52226   0.00000  Uiso   1.00
N746   N     0.71269   0.39803   0.53024   0.00000  Uiso   1.00
C747   C     0.76770   0.44625   0.37169   0.00000  Uiso   1.00
N748   N     0.74042   0.42347   0.38631   0.00000  Uiso   1.00
C749   C     0.89896   0.55375   0.62831   0.00000  Uiso   1.00
N750   N     0.92624   0.57653   0.61369   0.00000  Uiso   1.00
C751   C     0.16712   0.75423   0.49992   0.00000  Uiso   1.00
C752   C     0.16621   0.91243   0.50008   0.00000  Uiso   1.00
C753   C     0.06811   0.83384   0.48794   0.00000  Uiso   1.00
C754   C     0.26522   0.83283   0.51206   0.00000  Uiso   1.00
C755   C     0.01327   0.83105   0.48130   0.00000  Uiso   1.00
C756   C     0.32006   0.83562   0.51870   0.00000  Uiso   1.00
C757   C     0.20965   0.68793   0.48768   0.00000  Uiso   1.00
C758   C     0.12368   0.97873   0.51232   0.00000  Uiso   1.00
C759   C     0.20879   0.97791   0.48775   0.00000  Uiso   1.00
C760   C     0.12454   0.68876   0.51225   0.00000  Uiso   1.00
C761   C     0.16608   0.95715   0.50004   0.00000  Uiso   1.00
C762   C     0.16725   0.70952   0.49996   0.00000  Uiso   1.00
C763   C     0.13489   0.80766   0.35311   0.00000  Uiso   1.00
C764   C     0.19844   0.85901   0.64689   0.00000  Uiso   1.00
C765   C     0.13500   0.80781   0.63696   0.00000  Uiso   1.00
C766   C     0.19833   0.85885   0.36304   0.00000  Uiso   1.00
Cu767  Cu    0.16667   0.83334   0.54689   0.00000  Uiso   1.00
Cu768  Cu    0.16667   0.83333   0.45311   0.00000  Uiso   1.00
H769   H     0.10979   0.78742   0.61418   0.00000  Uiso   1.00
H770   H     0.22354   0.87924   0.38582   0.00000  Uiso   1.00
N771   N     0.16668   0.83334   0.61736   0.00000  Uiso   1.00
N772   N     0.16665   0.83332   0.38264   0.00000  Uiso   1.00
O773   O     0.16666   0.77322   0.53958   0.00000  Uiso   1.00
O774   O     0.16667   0.89345   0.46042   0.00000  Uiso   1.00
O775   O     0.16666   0.77321   0.46039   0.00000  Uiso   1.00
O776   O     0.16667   0.89346   0.53961   0.00000  Uiso   1.00
O777   O     0.09161   0.83334   0.53046   0.00000  Uiso   1.00
O778   O     0.24172   0.83333   0.46954   0.00000  Uiso   1.00
O779   O     0.09161   0.83333   0.45127   0.00000  Uiso   1.00
O780   O     0.24172   0.83334   0.54873   0.00000  Uiso   1.00
C781   C     0.32362   0.81925   0.43230   0.00000  Uiso   1.00
H782   H     0.33031   0.83836   0.40286   0.00000  Uiso   1.00
O783   O     0.30020   0.78691   0.42437   0.00000  Uiso   1.00
C784   C     0.00972   0.84742   0.56770   0.00000  Uiso   1.00
H785   H     0.00302   0.82830   0.59714   0.00000  Uiso   1.00
O786   O     0.03314   0.87976   0.57563   0.00000  Uiso   1.00
C787   C     0.25505   0.71125   0.47694   0.00000  Uiso   1.00
H788   H     0.26302   0.74193   0.49167   0.00000  Uiso   1.00
O789   O     0.28340   0.69702   0.45097   0.00000  Uiso   1.00
C790   C     0.07829   0.95541   0.52306   0.00000  Uiso   1.00
H791   H     0.07031   0.92474   0.50833   0.00000  Uiso   1.00
O792   O     0.04993   0.96964   0.54903   0.00000  Uiso   1.00
C793   C     0.25257   0.95426   0.47774   0.00000  Uiso   1.00
N794   N     0.28730   0.93530   0.46976   0.00000  Uiso   1.00
C795   C     0.08077   0.71240   0.52226   0.00000  Uiso   1.00
N796   N     0.04603   0.73137   0.53024   0.00000  Uiso   1.00
C797   C     0.10104   0.77959   0.37169   0.00000  Uiso   1.00
N798   N     0.07376   0.75681   0.38631   0.00000  Uiso   1.00
C799   C     0.23230   0.88708   0.62831   0.00000  Uiso   1.00
N800   N     0.25958   0.90986   0.61369   0.00000  Uiso   1.00
C801   C     0.50045   0.75423   0.49992   0.00000  Uiso   1.00
C802   C     0.49955   0.91243   0.50008   0.00000  Uiso   1.00
C803   C     0.40144   0.83384   0.48794   0.00000  Uiso   1.00
C804   C     0.59855   0.83283   0.51206   0.00000  Uiso   1.00
C805   C     0.34661   0.83105   0.48130   0.00000  Uiso   1.00
C806   C     0.65339   0.83562   0.51870   0.00000  Uiso   1.00
C807   C     0.54299   0.68793   0.48768   0.00000  Uiso   1.00
C808   C     0.45701   0.97873   0.51232   0.00000  Uiso   1.00
C809   C     0.54212   0.97791   0.48775   0.00000  Uiso   1.00
C810   C     0.45788   0.68876   0.51225   0.00000  Uiso   1.00
C811   C     0.49942   0.95715   0.50004   0.00000  Uiso   1.00
C812   C     0.50058   0.70952   0.49996   0.00000  Uiso   1.00
C813   C     0.46822   0.80766   0.35311   0.00000  Uiso   1.00
C814   C     0.53177   0.85901   0.64689   0.00000  Uiso   1.00
C815   C     0.46833   0.80781   0.63696   0.00000  Uiso   1.00
C816   C     0.53167   0.85885   0.36304   0.00000  Uiso   1.00
Cu817  Cu    0.50000   0.83334   0.54689   0.00000  Uiso   1.00
Cu818  Cu    0.50000   0.83333   0.45311   0.00000  Uiso   1.00
H819   H     0.44312   0.78742   0.61418   0.00000  Uiso   1.00
H820   H     0.55688   0.87924   0.38582   0.00000  Uiso   1.00
N821   N     0.50001   0.83334   0.61736   0.00000  Uiso   1.00
N822   N     0.49999   0.83332   0.38264   0.00000  Uiso   1.00
O823   O     0.50000   0.77322   0.53958   0.00000  Uiso   1.00
O824   O     0.50000   0.89345   0.46042   0.00000  Uiso   1.00
O825   O     0.50000   0.77321   0.46039   0.00000  Uiso   1.00
O826   O     0.50000   0.89346   0.53961   0.00000  Uiso   1.00
O827   O     0.42495   0.83334   0.53046   0.00000  Uiso   1.00
O828   O     0.57505   0.83333   0.46954   0.00000  Uiso   1.00
O829   O     0.42494   0.83333   0.45127   0.00000  Uiso   1.00
O830   O     0.57506   0.83334   0.54873   0.00000  Uiso   1.00
C831   C     0.65695   0.81925   0.43230   0.00000  Uiso   1.00
H832   H     0.66365   0.83836   0.40286   0.00000  Uiso   1.00
O833   O     0.63353   0.78691   0.42437   0.00000  Uiso   1.00
C834   C     0.34305   0.84742   0.56770   0.00000  Uiso   1.00
H835   H     0.33635   0.82830   0.59714   0.00000  Uiso   1.00
O836   O     0.36647   0.87976   0.57563   0.00000  Uiso   1.00
C837   C     0.58838   0.71125   0.47694   0.00000  Uiso   1.00
H838   H     0.59636   0.74193   0.49167   0.00000  Uiso   1.00
O839   O     0.61673   0.69702   0.45097   0.00000  Uiso   1.00
C840   C     0.41162   0.95541   0.52306   0.00000  Uiso   1.00
H841   H     0.40364   0.92474   0.50833   0.00000  Uiso   1.00
O842   O     0.38326   0.96964   0.54903   0.00000  Uiso   1.00
C843   C     0.58590   0.95426   0.47774   0.00000  Uiso   1.00
N844   N     0.62064   0.93530   0.46976   0.00000  Uiso   1.00
C845   C     0.41410   0.71240   0.52226   0.00000  Uiso   1.00
N846   N     0.37936   0.73137   0.53024   0.00000  Uiso   1.00
C847   C     0.43437   0.77959   0.37169   0.00000  Uiso   1.00
N848   N     0.40709   0.75681   0.38631   0.00000  Uiso   1.00
C849   C     0.56563   0.88708   0.62831   0.00000  Uiso   1.00
N850   N     0.59291   0.90986   0.61369   0.00000  Uiso   1.00
C851   C     0.83379   0.75423   0.49992   0.00000  Uiso   1.00
C852   C     0.83288   0.91243   0.50008   0.00000  Uiso   1.00
C853   C     0.73478   0.83384   0.48794   0.00000  Uiso   1.00
C854   C     0.93189   0.83283   0.51206   0.00000  Uiso   1.00
C855   C     0.67994   0.83105   0.48130   0.00000  Uiso   1.00
C856   C     0.98673   0.83562   0.51870   0.00000  Uiso   1.00
C857   C     0.87632   0.68793   0.48768   0.00000  Uiso   1.00
C858   C     0.79035   0.97873   0.51232   0.00000  Uiso   1.00
C859   C     0.87546   0.97791   0.48775   0.00000  Uiso   1.00
C860   C     0.79121   0.68876   0.51225   0.00000  Uiso   1.00
C861   C     0.83275   0.95715   0.50004   0.00000  Uiso   1.00
C862   C     0.83392   0.70952   0.49996   0.00000  Uiso   1.00
C863   C     0.80156   0.80766   0.35311   0.00000  Uiso   1.00
C864   C     0.86511   0.85901   0.64689   0.00000  Uiso   1.00
C865   C     0.80167   0.80781   0.63696   0.00000  Uiso   1.00
C866   C     0.86500   0.85885   0.36304   0.00000  Uiso   1.00
Cu867  Cu    0.83333   0.83334   0.54689   0.00000  Uiso   1.00
Cu868  Cu    0.83333   0.83333   0.45311   0.00000  Uiso   1.00
H869   H     0.77646   0.78742   0.61418   0.00000  Uiso   1.00
H870   H     0.89021   0.87924   0.38582   0.00000  Uiso   1.00
N871   N     0.83335   0.83334   0.61736   0.00000  Uiso   1.00
N872   N     0.83332   0.83332   0.38264   0.00000  Uiso   1.00
O873   O     0.83333   0.77322   0.53958   0.00000  Uiso   1.00
O874   O     0.83334   0.89345   0.46042   0.00000  Uiso   1.00
O875   O     0.83333   0.77321   0.46039   0.00000  Uiso   1.00
O876   O     0.83334   0.89346   0.53961   0.00000  Uiso   1.00
O877   O     0.75828   0.83334   0.53046   0.00000  Uiso   1.00
O878   O     0.90839   0.83333   0.46954   0.00000  Uiso   1.00
O879   O     0.75828   0.83333   0.45127   0.00000  Uiso   1.00
O880   O     0.90839   0.83334   0.54873   0.00000  Uiso   1.00
C881   C     0.99028   0.81925   0.43230   0.00000  Uiso   1.00
H882   H     0.99698   0.83836   0.40286   0.00000  Uiso   1.00
O883   O     0.96686   0.78691   0.42437   0.00000  Uiso   1.00
C884   C     0.67638   0.84742   0.56770   0.00000  Uiso   1.00
H885   H     0.66969   0.82830   0.59714   0.00000  Uiso   1.00
O886   O     0.69980   0.87976   0.57563   0.00000  Uiso   1.00
C887   C     0.92171   0.71125   0.47694   0.00000  Uiso   1.00
H888   H     0.92969   0.74193   0.49167   0.00000  Uiso   1.00
O889   O     0.95007   0.69702   0.45097   0.00000  Uiso   1.00
C890   C     0.74495   0.95541   0.52306   0.00000  Uiso   1.00
H891   H     0.73698   0.92474   0.50833   0.00000  Uiso   1.00
O892   O     0.71660   0.96964   0.54903   0.00000  Uiso   1.00
C893   C     0.91923   0.95426   0.47774   0.00000  Uiso   1.00
N894   N     0.95397   0.93530   0.46976   0.00000  Uiso   1.00
C895   C     0.74743   0.71240   0.52226   0.00000  Uiso   1.00
N896   N     0.71269   0.73137   0.53024   0.00000  Uiso   1.00
C897   C     0.76770   0.77959   0.37169   0.00000  Uiso   1.00
N898   N     0.74042   0.75681   0.38631   0.00000  Uiso   1.00
C899   C     0.89896   0.88708   0.62831   0.00000  Uiso   1.00
N900   N     0.92624   0.90986   0.61369   0.00000  Uiso   1.00
C901   C     0.16712   0.08757   0.83326   0.00000  Uiso   1.00
C902   C     0.16621   0.24577   0.83341   0.00000  Uiso   1.00
C903   C     0.06811   0.16717   0.82128   0.00000  Uiso   1.00
C904   C     0.26522   0.16616   0.84539   0.00000  Uiso   1.00
C905   C     0.01327   0.16438   0.81463   0.00000  Uiso   1.00
C906   C     0.32006   0.16895   0.85203   0.00000  Uiso   1.00
C907   C     0.20965   0.02127   0.82101   0.00000  Uiso   1.00
C908   C     0.12368   0.31207   0.84566   0.00000  Uiso   1.00
C909   C     0.20879   0.31124   0.82108   0.00000  Uiso   1.00
C910   C     0.12454   0.02209   0.84559   0.00000  Uiso   1.00
C911   C     0.16608   0.29048   0.83337   0.00000  Uiso   1.00
C912   C     0.16725   0.04285   0.83330   0.00000  Uiso   1.00
C913   C     0.13489   0.14099   0.68644   0.00000  Uiso   1.00
C914   C     0.19844   0.19234   0.98023   0.00000  Uiso   1.00
C915   C     0.13500   0.14115   0.97029   0.00000  Uiso   1.00
C916   C     0.19833   0.19219   0.69638   0.00000  Uiso   1.00
Cu917  Cu    0.16667   0.16667   0.88022   0.00000  Uiso   1.00
Cu918  Cu    0.16667   0.16666   0.78645   0.00000  Uiso   1.00
H919   H     0.10979   0.12076   0.94751   0.00000  Uiso   1.00
H920   H     0.22354   0.21258   0.71916   0.00000  Uiso   1.00
N921   N     0.16668   0.16668   0.95069   0.00000  Uiso   1.00
N922   N     0.16665   0.16666   0.71597   0.00000  Uiso   1.00
O923   O     0.16666   0.10655   0.87291   0.00000  Uiso   1.00
O924   O     0.16667   0.22678   0.79375   0.00000  Uiso   1.00
O925   O     0.16666   0.10654   0.79372   0.00000  Uiso   1.00
O926   O     0.16667   0.22679   0.87294   0.00000  Uiso   1.00
O927   O     0.09161   0.16667   0.86379   0.00000  Uiso   1.00
O928   O     0.24172   0.16666   0.80288   0.00000  Uiso   1.00
O929   O     0.09161   0.16666   0.78460   0.00000  Uiso   1.00
O930   O     0.24172   0.16667   0.88207   0.00000  Uiso   1.00
C931   C     0.32362   0.15258   0.76563   0.00000  Uiso   1.00
H932   H     0.33031   0.17170   0.73620   0.00000  Uiso   1.00
O933   O     0.30020   0.12024   0.75770   0.00000  Uiso   1.00
C934   C     0.00972   0.18075   0.90103   0.00000  Uiso   1.00
H935   H     0.00302   0.16164   0.93047   0.00000  Uiso   1.00
O936   O     0.03314   0.21309   0.90896   0.00000  Uiso   1.00
C937   C     0.25505   0.04459   0.81027   0.00000  Uiso   1.00
H938   H     0.26302   0.07526   0.82500   0.00000  Uiso   1.00
O939   O     0.28340   0.03036   0.78430   0.00000  Uiso   1.00
C940   C     0.07829   0.28874   0.85640   0.00000  Uiso   1.00
H941   H     0.07031   0.25807   0.84167   0.00000  Uiso   1.00
O942   O     0.04993   0.30298   0.88237   0.00000  Uiso   1.00
C943   C     0.25257   0.28759   0.81108   0.00000  Uiso   1.00
N944   N     0.28730   0.26863   0.80309   0.00000  Uiso   1.00
C945   C     0.08077   0.04574   0.85559   0.00000  Uiso   1.00
N946   N     0.04603   0.06470   0.86357   0.00000  Uiso   1.00
C947   C     0.10104   0.11292   0.70502   0.00000  Uiso   1.00
N948   N     0.07376   0.09014   0.71964   0.00000  Uiso   1.00
C949   C     0.23230   0.22041   0.96165   0.00000  Uiso   1.00
N950   N     0.25958   0.24319   0.94703   0.00000  Uiso   1.00
C951   C     0.50045   0.08757   0.83326   0.00000  Uiso   1.00
C952   C     0.49955   0.24577   0.83341   0.00000  Uiso   1.00
C953   C     0.40144   0.16717   0.82128   0.00000  Uiso   1.00
C954   C     0.59855   0.16616   0.84539   0.00000  Uiso   1.00
C955   C     0.34661   0.16438   0.81463   0.00000  Uiso   1.00
C956   C     0.65339   0.16895   0.85203   0.00000  Uiso   1.00
C957   C     0.54299   0.02127   0.82101   0.00000  Uiso   1.00
C958   C     0.45701   0.31207   0.84566   0.00000  Uiso   1.00
C959   C     0.54212   0.31124   0.82108   0.00000  Uiso   1.00
C960   C     0.45788   0.02209   0.84559   0.00000  Uiso   1.00
C961   C     0.49942   0.29048   0.83337   0.00000  Uiso   1.00
C962   C     0.50058   0.04285   0.83330   0.00000  Uiso   1.00
C963   C     0.46822   0.14099   0.68644   0.00000  Uiso   1.00
C964   C     0.53177   0.19234   0.98023   0.00000  Uiso   1.00
C965   C     0.46833   0.14115   0.97029   0.00000  Uiso   1.00
C966   C     0.53167   0.19219   0.69638   0.00000  Uiso   1.00
Cu967  Cu    0.50000   0.16667   0.88022   0.00000  Uiso   1.00
Cu968  Cu    0.50000   0.16666   0.78645   0.00000  Uiso   1.00
H969   H     0.44312   0.12076   0.94751   0.00000  Uiso   1.00
H970   H     0.55688   0.21258   0.71916   0.00000  Uiso   1.00
N971   N     0.50001   0.16668   0.95069   0.00000  Uiso   1.00
N972   N     0.49999   0.16666   0.71597   0.00000  Uiso   1.00
O973   O     0.50000   0.10655   0.87291   0.00000  Uiso   1.00
O974   O     0.50000   0.22678   0.79375   0.00000  Uiso   1.00
O975   O     0.50000   0.10654   0.79372   0.00000  Uiso   1.00
O976   O     0.50000   0.22679   0.87294   0.00000  Uiso   1.00
O977   O     0.42495   0.16667   0.86379   0.00000  Uiso   1.00
O978   O     0.57505   0.16666   0.80288   0.00000  Uiso   1.00
O979   O     0.42494   0.16666   0.78460   0.00000  Uiso   1.00
O980   O     0.57506   0.16667   0.88207   0.00000  Uiso   1.00
C981   C     0.65695   0.15258   0.76563   0.00000  Uiso   1.00
H982   H     0.66365   0.17170   0.73620   0.00000  Uiso   1.00
O983   O     0.63353   0.12024   0.75770   0.00000  Uiso   1.00
C984   C     0.34305   0.18075   0.90103   0.00000  Uiso   1.00
H985   H     0.33635   0.16164   0.93047   0.00000  Uiso   1.00
O986   O     0.36647   0.21309   0.90896   0.00000  Uiso   1.00
C987   C     0.58838   0.04459   0.81027   0.00000  Uiso   1.00
H988   H     0.59636   0.07526   0.82500   0.00000  Uiso   1.00
O989   O     0.61673   0.03036   0.78430   0.00000  Uiso   1.00
C990   C     0.41162   0.28874   0.85640   0.00000  Uiso   1.00
H991   H     0.40364   0.25807   0.84167   0.00000  Uiso   1.00
O992   O     0.38326   0.30298   0.88237   0.00000  Uiso   1.00
C993   C     0.58590   0.28759   0.81108   0.00000  Uiso   1.00
N994   N     0.62064   0.26863   0.80309   0.00000  Uiso   1.00
C995   C     0.41410   0.04574   0.85559   0.00000  Uiso   1.00
N996   N     0.37936   0.06470   0.86357   0.00000  Uiso   1.00
C997   C     0.43437   0.11292   0.70502   0.00000  Uiso   1.00
N998   N     0.40709   0.09014   0.71964   0.00000  Uiso   1.00
C999   C     0.56563   0.22041   0.96165   0.00000  Uiso   1.00
N1000  N     0.59291   0.24319   0.94703   0.00000  Uiso   1.00
C1001  C     0.83379   0.08757   0.83326   0.00000  Uiso   1.00
C1002  C     0.83288   0.24577   0.83341   0.00000  Uiso   1.00
C1003  C     0.73478   0.16717   0.82128   0.00000  Uiso   1.00
C1004  C     0.93189   0.16616   0.84539   0.00000  Uiso   1.00
C1005  C     0.67994   0.16438   0.81463   0.00000  Uiso   1.00
C1006  C     0.98673   0.16895   0.85203   0.00000  Uiso   1.00
C1007  C     0.87632   0.02127   0.82101   0.00000  Uiso   1.00
C1008  C     0.79035   0.31207   0.84566   0.00000  Uiso   1.00
C1009  C     0.87546   0.31124   0.82108   0.00000  Uiso   1.00
C1010  C     0.79121   0.02209   0.84559   0.00000  Uiso   1.00
C1011  C     0.83275   0.29048   0.83337   0.00000  Uiso   1.00
C1012  C     0.83392   0.04285   0.83330   0.00000  Uiso   1.00
C1013  C     0.80156   0.14099   0.68644   0.00000  Uiso   1.00
C1014  C     0.86511   0.19234   0.98023   0.00000  Uiso   1.00
C1015  C     0.80167   0.14115   0.97029   0.00000  Uiso   1.00
C1016  C     0.86500   0.19219   0.69638   0.00000  Uiso   1.00
Cu1017 Cu    0.83333   0.16667   0.88022   0.00000  Uiso   1.00
Cu1018 Cu    0.83333   0.16666   0.78645   0.00000  Uiso   1.00
H1019  H     0.77646   0.12076   0.94751   0.00000  Uiso   1.00
H1020  H     0.89021   0.21258   0.71916   0.00000  Uiso   1.00
N1021  N     0.83335   0.16668   0.95069   0.00000  Uiso   1.00
N1022  N     0.83332   0.16666   0.71597   0.00000  Uiso   1.00
O1023  O     0.83333   0.10655   0.87291   0.00000  Uiso   1.00
O1024  O     0.83334   0.22678   0.79375   0.00000  Uiso   1.00
O1025  O     0.83333   0.10654   0.79372   0.00000  Uiso   1.00
O1026  O     0.83334   0.22679   0.87294   0.00000  Uiso   1.00
O1027  O     0.75828   0.16667   0.86379   0.00000  Uiso   1.00
O1028  O     0.90839   0.16666   0.80288   0.00000  Uiso   1.00
O1029  O     0.75828   0.16666   0.78460   0.00000  Uiso   1.00
O1030  O     0.90839   0.16667   0.88207   0.00000  Uiso   1.00
C1031  C     0.99028   0.15258   0.76563   0.00000  Uiso   1.00
H1032  H     0.99698   0.17170   0.73620   0.00000  Uiso   1.00
O1033  O     0.96686   0.12024   0.75770   0.00000  Uiso   1.00
C1034  C     0.67638   0.18075   0.90103   0.00000  Uiso   1.00
H1035  H     0.66969   0.16164   0.93047   0.00000  Uiso   1.00
O1036  O     0.69980   0.21309   0.90896   0.00000  Uiso   1.00
C1037  C     0.92171   0.04459   0.81027   0.00000  Uiso   1.00
H1038  H     0.92969   0.07526   0.82500   0.00000  Uiso   1.00
O1039  O     0.95007   0.03036   0.78430   0.00000  Uiso   1.00
C1040  C     0.74495   0.28874   0.85640   0.00000  Uiso   1.00
H1041  H     0.73698   0.25807   0.84167   0.00000  Uiso   1.00
O1042  O     0.71660   0.30298   0.88237   0.00000  Uiso   1.00
C1043  C     0.91923   0.28759   0.81108   0.00000  Uiso   1.00
N1044  N     0.95397   0.26863   0.80309   0.00000  Uiso   1.00
C1045  C     0.74743   0.04574   0.85559   0.00000  Uiso   1.00
N1046  N     0.71269   0.06470   0.86357   0.00000  Uiso   1.00
C1047  C     0.76770   0.11292   0.70502   0.00000  Uiso   1.00
N1048  N     0.74042   0.09014   0.71964   0.00000  Uiso   1.00
C1049  C     0.89896   0.22041   0.96165   0.00000  Uiso   1.00
N1050  N     0.92624   0.24319   0.94703   0.00000  Uiso   1.00
C1051  C     0.16712   0.42090   0.83326   0.00000  Uiso   1.00
C1052  C     0.16621   0.57910   0.83341   0.00000  Uiso   1.00
C1053  C     0.06811   0.50050   0.82128   0.00000  Uiso   1.00
C1054  C     0.26522   0.49950   0.84539   0.00000  Uiso   1.00
C1055  C     0.01327   0.49771   0.81463   0.00000  Uiso   1.00
C1056  C     0.32006   0.50229   0.85203   0.00000  Uiso   1.00
C1057  C     0.20965   0.35460   0.82101   0.00000  Uiso   1.00
C1058  C     0.12368   0.64540   0.84566   0.00000  Uiso   1.00
C1059  C     0.20879   0.64458   0.82108   0.00000  Uiso   1.00
C1060  C     0.12454   0.35542   0.84559   0.00000  Uiso   1.00
C1061  C     0.16608   0.62382   0.83337   0.00000  Uiso   1.00
C1062  C     0.16725   0.37618   0.83330   0.00000  Uiso   1.00
C1063  C     0.13489   0.47432   0.68644   0.00000  Uiso   1.00
C1064  C     0.19844   0.52568   0.98023   0.00000  Uiso   1.00
C1065  C     0.13500   0.47448   0.97029   0.00000  Uiso   1.00
C1066  C     0.19833   0.52552   0.69638   0.00000  Uiso   1.00
Cu1067 Cu    0.16667   0.50001   0.88022   0.00000  Uiso   1.00
Cu1068 Cu    0.16667   0.49999   0.78645   0.00000  Uiso   1.00
H1069  H     0.10979   0.45409   0.94751   0.00000  Uiso   1.00
H1070  H     0.22354   0.54591   0.71916   0.00000  Uiso   1.00
N1071  N     0.16668   0.50001   0.95069   0.00000  Uiso   1.00
N1072  N     0.16665   0.49999   0.71597   0.00000  Uiso   1.00
O1073  O     0.16666   0.43989   0.87291   0.00000  Uiso   1.00
O1074  O     0.16667   0.56011   0.79375   0.00000  Uiso   1.00
O1075  O     0.16666   0.43988   0.79372   0.00000  Uiso   1.00
O1076  O     0.16667   0.56012   0.87294   0.00000  Uiso   1.00
O1077  O     0.09161   0.50000   0.86379   0.00000  Uiso   1.00
O1078  O     0.24172   0.50000   0.80288   0.00000  Uiso   1.00
O1079  O     0.09161   0.49999   0.78460   0.00000  Uiso   1.00
O1080  O     0.24172   0.50001   0.88207   0.00000  Uiso   1.00
C1081  C     0.32362   0.48591   0.76563   0.00000  Uiso   1.00
H1082  H     0.33031   0.50503   0.73620   0.00000  Uiso   1.00
O1083  O     0.30020   0.45358   0.75770   0.00000  Uiso   1.00
C1084  C     0.00972   0.51409   0.90103   0.00000  Uiso   1.00
H1085  H     0.00302   0.49497   0.93047   0.00000  Uiso   1.00
O1086  O     0.03314   0.54642   0.90896   0.00000  Uiso   1.00
C1087  C     0.25505   0.37792   0.81027   0.00000  Uiso   1.00
H1088  H     0.26302   0.40860   0.82500   0.00000  Uiso   1.00
O1089  O     0.28340   0.36369   0.78430   0.00000  Uiso   1.00
C1090  C     0.07829   0.62208   0.85640   0.00000  Uiso   1.00
H1091  H     0.07031   0.59140   0.84167   0.00000  Uiso   1.00
O1092  O     0.04993   0.63631   0.88237   0.00000  Uiso   1.00
C1093  C     0.25257   0.62093   0.81108   0.00000  Uiso   1.00
N1094  N     0.28730   0.60197   0.80309   0.00000  Uiso   1.00
C1095  C     0.08077   0.37907   0.85559   0.00000  Uiso   1.00
N1096  N     0.04603   0.39803   0.86357   0.00000  Uiso   1.00
C1097  C     0.10104   0.44625   0.70502   0.00000  Uiso   1.00
N1098  N     0.07376   0.42347   0.71964   0.00000  Uiso   1.00
C1099  C     0.23230   0.55375   0.96165   0.00000  Uiso   1.00
N1100  N     0.25958   0.57653   0.94703   0.00000  Uiso   1.00
C1101  C     0.50045   0.42090   0.83326   0.00000  Uiso   1.00
C1102  C     0.49955   0.57910   0.83341   0.00000  Uiso   1.00
C1103  C     0.40144   0.50050   0.82128   0.00000  Uiso   1.00
C1104  C     0.59855   0.49950   0.84539   0.00000  Uiso   1.00
C1105  C     0.34661   0.49771   0.81463   0.00000  Uiso   1.00
C1106  C     0.65339   0.50229   0.85203   0.00000  Uiso   1.00
C1107  C     0.54299   0.35460   0.82101   0.00000  Uiso   1.00
C1108  C     0.45701   0.64540   0.84566   0.00000  Uiso   1.00
C1109  C     0.54212   0.64458   0.82108   0.00000  Uiso   1.00
C1110  C     0.45788   0.35542   0.84559   0.00000  Uiso   1.00
C1111  C     0.49942   0.62382   0.83337   0.00000  Uiso   1.00
C1112  C     0.50058   0.37618   0.83330   0.00000  Uiso   1.00
C1113  C     0.46822   0.47432   0.68644   0.00000  Uiso   1.00
C1114  C     0.53177   0.52568   0.98023   0.00000  Uiso   1.00
C1115  C     0.46833   0.47448   0.97029   0.00000  Uiso   1.00
C1116  C     0.53167   0.52552   0.69638   0.00000  Uiso   1.00
Cu1117 Cu    0.50000   0.50001   0.88022   0.00000  Uiso   1.00
Cu1118 Cu    0.50000   0.49999   0.78645   0.00000  Uiso   1.00
H1119  H     0.44312   0.45409   0.94751   0.00000  Uiso   1.00
H1120  H     0.55688   0.54591   0.71916   0.00000  Uiso   1.00
N1121  N     0.50001   0.50001   0.95069   0.00000  Uiso   1.00
N1122  N     0.49999   0.49999   0.71597   0.00000  Uiso   1.00
O1123  O     0.50000   0.43989   0.87291   0.00000  Uiso   1.00
O1124  O     0.50000   0.56011   0.79375   0.00000  Uiso   1.00
O1125  O     0.50000   0.43988   0.79372   0.00000  Uiso   1.00
O1126  O     0.50000   0.56012   0.87294   0.00000  Uiso   1.00
O1127  O     0.42495   0.50000   0.86379   0.00000  Uiso   1.00
O1128  O     0.57505   0.50000   0.80288   0.00000  Uiso   1.00
O1129  O     0.42494   0.49999   0.78460   0.00000  Uiso   1.00
O1130  O     0.57506   0.50001   0.88207   0.00000  Uiso   1.00
C1131  C     0.65695   0.48591   0.76563   0.00000  Uiso   1.00
H1132  H     0.66365   0.50503   0.73620   0.00000  Uiso   1.00
O1133  O     0.63353   0.45358   0.75770   0.00000  Uiso   1.00
C1134  C     0.34305   0.51409   0.90103   0.00000  Uiso   1.00
H1135  H     0.33635   0.49497   0.93047   0.00000  Uiso   1.00
O1136  O     0.36647   0.54642   0.90896   0.00000  Uiso   1.00
C1137  C     0.58838   0.37792   0.81027   0.00000  Uiso   1.00
H1138  H     0.59636   0.40860   0.82500   0.00000  Uiso   1.00
O1139  O     0.61673   0.36369   0.78430   0.00000  Uiso   1.00
C1140  C     0.41162   0.62208   0.85640   0.00000  Uiso   1.00
H1141  H     0.40364   0.59140   0.84167   0.00000  Uiso   1.00
O1142  O     0.38326   0.63631   0.88237   0.00000  Uiso   1.00
C1143  C     0.58590   0.62093   0.81108   0.00000  Uiso   1.00
N1144  N     0.62064   0.60197   0.80309   0.00000  Uiso   1.00
C1145  C     0.41410   0.37907   0.85559   0.00000  Uiso   1.00
N1146  N     0.37936   0.39803   0.86357   0.00000  Uiso   1.00
C1147  C     0.43437   0.44625   0.70502   0.00000  Uiso   1.00
N1148  N     0.40709   0.42347   0.71964   0.00000  Uiso   1.00
C1149  C     0.56563   0.55375   0.96165   0.00000  Uiso   1.00
N1150  N     0.59291   0.57653   0.94703   0.00000  Uiso   1.00
C1151  C     0.83379   0.42090   0.83326   0.00000  Uiso   1.00
C1152  C     0.83288   0.57910   0.83341   0.00000  Uiso   1.00
C1153  C     0.73478   0.50050   0.82128   0.00000  Uiso   1.00
C1154  C     0.93189   0.49950   0.84539   0.00000  Uiso   1.00
C1155  C     0.67994   0.49771   0.81463   0.00000  Uiso   1.00
C1156  C     0.98673   0.50229   0.85203   0.00000  Uiso   1.00
C1157  C     0.87632   0.35460   0.82101   0.00000  Uiso   1.00
C1158  C     0.79035   0.64540   0.84566   0.00000  Uiso   1.00
C1159  C     0.87546   0.64458   0.82108   0.00000  Uiso   1.00
C1160  C     0.79121   0.35542   0.84559   0.00000  Uiso   1.00
C1161  C     0.83275   0.62382   0.83337   0.00000  Uiso   1.00
C1162  C     0.83392   0.37618   0.83330   0.00000  Uiso   1.00
C1163  C     0.80156   0.47432   0.68644   0.00000  Uiso   1.00
C1164  C     0.86511   0.52568   0.98023   0.00000  Uiso   1.00
C1165  C     0.80167   0.47448   0.97029   0.00000  Uiso   1.00
C1166  C     0.86500   0.52552   0.69638   0.00000  Uiso   1.00
Cu1167 Cu    0.83333   0.50001   0.88022   0.00000  Uiso   1.00
Cu1168 Cu    0.83333   0.49999   0.78645   0.00000  Uiso   1.00
H1169  H     0.77646   0.45409   0.94751   0.00000  Uiso   1.00
H1170  H     0.89021   0.54591   0.71916   0.00000  Uiso   1.00
N1171  N     0.83335   0.50001   0.95069   0.00000  Uiso   1.00
N1172  N     0.83332   0.49999   0.71597   0.00000  Uiso   1.00
O1173  O     0.83333   0.43989   0.87291   0.00000  Uiso   1.00
O1174  O     0.83334   0.56011   0.79375   0.00000  Uiso   1.00
O1175  O     0.83333   0.43988   0.79372   0.00000  Uiso   1.00
O1176  O     0.83334   0.56012   0.87294   0.00000  Uiso   1.00
O1177  O     0.75828   0.50000   0.86379   0.00000  Uiso   1.00
O1178  O     0.90839   0.50000   0.80288   0.00000  Uiso   1.00
O1179  O     0.75828   0.49999   0.78460   0.00000  Uiso   1.00
O1180  O     0.90839   0.50001   0.88207   0.00000  Uiso   1.00
C1181  C     0.99028   0.48591   0.76563   0.00000  Uiso   1.00
H1182  H     0.99698   0.50503   0.73620   0.00000  Uiso   1.00
O1183  O     0.96686   0.45358   0.75770   0.00000  Uiso   1.00
C1184  C     0.67638   0.51409   0.90103   0.00000  Uiso   1.00
H1185  H     0.66969   0.49497   0.93047   0.00000  Uiso   1.00
O1186  O     0.69980   0.54642   0.90896   0.00000  Uiso   1.00
C1187  C     0.92171   0.37792   0.81027   0.00000  Uiso   1.00
H1188  H     0.92969   0.40860   0.82500   0.00000  Uiso   1.00
O1189  O     0.95007   0.36369   0.78430   0.00000  Uiso   1.00
C1190  C     0.74495   0.62208   0.85640   0.00000  Uiso   1.00
H1191  H     0.73698   0.59140   0.84167   0.00000  Uiso   1.00
O1192  O     0.71660   0.63631   0.88237   0.00000  Uiso   1.00
C1193  C     0.91923   0.62093   0.81108   0.00000  Uiso   1.00
N1194  N     0.95397   0.60197   0.80309   0.00000  Uiso   1.00
C1195  C     0.74743   0.37907   0.85559   0.00000  Uiso   1.00
N1196  N     0.71269   0.39803   0.86357   0.00000  Uiso   1.00
C1197  C     0.76770   0.44625   0.70502   0.00000  Uiso   1.00
N1198  N     0.74042   0.42347   0.71964   0.00000  Uiso   1.00
C1199  C     0.89896   0.55375   0.96165   0.00000  Uiso   1.00
N1200  N     0.92624   0.57653   0.94703   0.00000  Uiso   1.00
C1201  C     0.16712   0.75423   0.83326   0.00000  Uiso   1.00
C1202  C     0.16621   0.91243   0.83341   0.00000  Uiso   1.00
C1203  C     0.06811   0.83384   0.82128   0.00000  Uiso   1.00
C1204  C     0.26522   0.83283   0.84539   0.00000  Uiso   1.00
C1205  C     0.01327   0.83105   0.81463   0.00000  Uiso   1.00
C1206  C     0.32006   0.83562   0.85203   0.00000  Uiso   1.00
C1207  C     0.20965   0.68793   0.82101   0.00000  Uiso   1.00
C1208  C     0.12368   0.97873   0.84566   0.00000  Uiso   1.00
C1209  C     0.20879   0.97791   0.82108   0.00000  Uiso   1.00
C1210  C     0.12454   0.68876   0.84559   0.00000  Uiso   1.00
C1211  C     0.16608   0.95715   0.83337   0.00000  Uiso   1.00
C1212  C     0.16725   0.70952   0.83330   0.00000  Uiso   1.00
C1213  C     0.13489   0.80766   0.68644   0.00000  Uiso   1.00
C1214  C     0.19844   0.85901   0.98023   0.00000  Uiso   1.00
C1215  C     0.13500   0.80781   0.97029   0.00000  Uiso   1.00
C1216  C     0.19833   0.85885   0.69638   0.00000  Uiso   1.00
Cu1217 Cu    0.16667   0.83334   0.88022   0.00000  Uiso   1.00
Cu1218 Cu    0.16667   0.83333   0.78645   0.00000  Uiso   1.00
H1219  H     0.10979   0.78742   0.94751   0.00000  Uiso   1.00
H1220  H     0.22354   0.87924   0.71916   0.00000  Uiso   1.00
N1221  N     0.16668   0.83334   0.95069   0.00000  Uiso   1.00
N1222  N     0.16665   0.83332   0.71597   0.00000  Uiso   1.00
O1223  O     0.16666   0.77322   0.87291   0.00000  Uiso   1.00
O1224  O     0.16667   0.89345   0.79375   0.00000  Uiso   1.00
O1225  O     0.16666   0.77321   0.79372   0.00000  Uiso   1.00
O1226  O     0.16667   0.89346   0.87294   0.00000  Uiso   1.00
O1227  O     0.09161   0.83334   0.86379   0.00000  Uiso   1.00
O1228  O     0.24172   0.83333   0.80288   0.00000  Uiso   1.00
O1229  O     0.09161   0.83333   0.78460   0.00000  Uiso   1.00
O1230  O     0.24172   0.83334   0.88207   0.00000  Uiso   1.00
C1231  C     0.32362   0.81925   0.76563   0.00000  Uiso   1.00
H1232  H     0.33031   0.83836   0.73620   0.00000  Uiso   1.00
O1233  O     0.30020   0.78691   0.75770   0.00000  Uiso   1.00
C1234  C     0.00972   0.84742   0.90103   0.00000  Uiso   1.00
H1235  H     0.00302   0.82830   0.93047   0.00000  Uiso   1.00
O1236  O     0.03314   0.87976   0.90896   0.00000  Uiso   1.00
C1237  C     0.25505   0.71125   0.81027   0.00000  Uiso   1.00
H1238  H     0.26302   0.74193   0.82500   0.00000  Uiso   1.00
O1239  O     0.28340   0.69702   0.78430   0.00000  Uiso   1.00
C1240  C     0.07829   0.95541   0.85640   0.00000  Uiso   1.00
H1241  H     0.07031   0.92474   0.84167   0.00000  Uiso   1.00
O1242  O     0.04993   0.96964   0.88237   0.00000  Uiso   1.00
C1243  C     0.25257   0.95426   0.81108   0.00000  Uiso   1.00
N1244  N     0.28730   0.93530   0.80309   0.00000  Uiso   1.00
C1245  C     0.08077   0.71240   0.85559   0.00000  Uiso   1.00
N1246  N     0.04603   0.73137   0.86357   0.00000  Uiso   1.00
C1247  C     0.10104   0.77959   0.70502   0.00000  Uiso   1.00
N1248  N     0.07376   0.75681   0.71964   0.00000  Uiso   1.00
C1249  C     0.23230   0.88708   0.96165   0.00000  Uiso   1.00
N1250  N     0.25958   0.90986   0.94703   0.00000  Uiso   1.00
C1251  C     0.50045   0.75423   0.83326   0.00000  Uiso   1.00
C1252  C     0.49955   0.91243   0.83341   0.00000  Uiso   1.00
C1253  C     0.40144   0.83384   0.82128   0.00000  Uiso   1.00
C1254  C     0.59855   0.83283   0.84539   0.00000  Uiso   1.00
C1255  C     0.34661   0.83105   0.81463   0.00000  Uiso   1.00
C1256  C     0.65339   0.83562   0.85203   0.00000  Uiso   1.00
C1257  C     0.54299   0.68793   0.82101   0.00000  Uiso   1.00
C1258  C     0.45701   0.97873   0.84566   0.00000  Uiso   1.00
C1259  C     0.54212   0.97791   0.82108   0.00000  Uiso   1.00
C1260  C     0.45788   0.68876   0.84559   0.00000  Uiso   1.00
C1261  C     0.49942   0.95715   0.83337   0.00000  Uiso   1.00
C1262  C     0.50058   0.70952   0.83330   0.00000  Uiso   1.00
C1263  C     0.46822   0.80766   0.68644   0.00000  Uiso   1.00
C1264  C     0.53177   0.85901   0.98023   0.00000  Uiso   1.00
C1265  C     0.46833   0.80781   0.97029   0.00000  Uiso   1.00
C1266  C     0.53167   0.85885   0.69638   0.00000  Uiso   1.00
Cu1267 Cu    0.50000   0.83334   0.88022   0.00000  Uiso   1.00
Cu1268 Cu    0.50000   0.83333   0.78645   0.00000  Uiso   1.00
H1269  H     0.44312   0.78742   0.94751   0.00000  Uiso   1.00
H1270  H     0.55688   0.87924   0.71916   0.00000  Uiso   1.00
N1271  N     0.50001   0.83334   0.95069   0.00000  Uiso   1.00
N1272  N     0.49999   0.83332   0.71597   0.00000  Uiso   1.00
O1273  O     0.50000   0.77322   0.87291   0.00000  Uiso   1.00
O1274  O     0.50000   0.89345   0.79375   0.00000  Uiso   1.00
O1275  O     0.50000   0.77321   0.79372   0.00000  Uiso   1.00
O1276  O     0.50000   0.89346   0.87294   0.00000  Uiso   1.00
O1277  O     0.42495   0.83334   0.86379   0.00000  Uiso   1.00
O1278  O     0.57505   0.83333   0.80288   0.00000  Uiso   1.00
O1279  O     0.42494   0.83333   0.78460   0.00000  Uiso   1.00
O1280  O     0.57506   0.83334   0.88207   0.00000  Uiso   1.00
C1281  C     0.65695   0.81925   0.76563   0.00000  Uiso   1.00
H1282  H     0.66365   0.83836   0.73620   0.00000  Uiso   1.00
O1283  O     0.63353   0.78691   0.75770   0.00000  Uiso   1.00
C1284  C     0.34305   0.84742   0.90103   0.00000  Uiso   1.00
H1285  H     0.33635   0.82830   0.93047   0.00000  Uiso   1.00
O1286  O     0.36647   0.87976   0.90896   0.00000  Uiso   1.00
C1287  C     0.58838   0.71125   0.81027   0.00000  Uiso   1.00
H1288  H     0.59636   0.74193   0.82500   0.00000  Uiso   1.00
O1289  O     0.61673   0.69702   0.78430   0.00000  Uiso   1.00
C1290  C     0.41162   0.95541   0.85640   0.00000  Uiso   1.00
H1291  H     0.40364   0.92474   0.84167   0.00000  Uiso   1.00
O1292  O     0.38326   0.96964   0.88237   0.00000  Uiso   1.00
C1293  C     0.58590   0.95426   0.81108   0.00000  Uiso   1.00
N1294  N     0.62064   0.93530   0.80309   0.00000  Uiso   1.00
C1295  C     0.41410   0.71240   0.85559   0.00000  Uiso   1.00
N1296  N     0.37936   0.73137   0.86357   0.00000  Uiso   1.00
C1297  C     0.43437   0.77959   0.70502   0.00000  Uiso   1.00
N1298  N     0.40709   0.75681   0.71964   0.00000  Uiso   1.00
C1299  C     0.56563   0.88708   0.96165   0.00000  Uiso   1.00
N1300  N     0.59291   0.90986   0.94703   0.00000  Uiso   1.00
C1301  C     0.83379   0.75423   0.83326   0.00000  Uiso   1.00
C1302  C     0.83288   0.91243   0.83341   0.00000  Uiso   1.00
C1303  C     0.73478   0.83384   0.82128   0.00000  Uiso   1.00
C1304  C     0.93189   0.83283   0.84539   0.00000  Uiso   1.00
C1305  C     0.67994   0.83105   0.81463   0.00000  Uiso   1.00
C1306  C     0.98673   0.83562   0.85203   0.00000  Uiso   1.00
C1307  C     0.87632   0.68793   0.82101   0.00000  Uiso   1.00
C1308  C     0.79035   0.97873   0.84566   0.00000  Uiso   1.00
C1309  C     0.87546   0.97791   0.82108   0.00000  Uiso   1.00
C1310  C     0.79121   0.68876   0.84559   0.00000  Uiso   1.00
C1311  C     0.83275   0.95715   0.83337   0.00000  Uiso   1.00
C1312  C     0.83392   0.70952   0.83330   0.00000  Uiso   1.00
C1313  C     0.80156   0.80766   0.68644   0.00000  Uiso   1.00
C1314  C     0.86511   0.85901   0.98023   0.00000  Uiso   1.00
C1315  C     0.80167   0.80781   0.97029   0.00000  Uiso   1.00
C1316  C     0.86500   0.85885   0.69638   0.00000  Uiso   1.00
Cu1317 Cu    0.83333   0.83334   0.88022   0.00000  Uiso   1.00
Cu1318 Cu    0.83333   0.83333   0.78645   0.00000  Uiso   1.00
H1319  H     0.77646   0.78742   0.94751   0.00000  Uiso   1.00
H1320  H     0.89021   0.87924   0.71916   0.00000  Uiso   1.00
N1321  N     0.83335   0.83334   0.95069   0.00000  Uiso   1.00
N1322  N     0.83332   0.83332   0.71597   0.00000  Uiso   1.00
O1323  O     0.83333   0.77322   0.87291   0.00000  Uiso   1.00
O1324  O     0.83334   0.89345   0.79375   0.00000  Uiso   1.00
O1325  O     0.83333   0.77321   0.79372   0.00000  Uiso   1.00
O1326  O     0.83334   0.89346   0.87294   0.00000  Uiso   1.00
O1327  O     0.75828   0.83334   0.86379   0.00000  Uiso   1.00
O1328  O     0.90839   0.83333   0.80288   0.00000  Uiso   1.00
O1329  O     0.75828   0.83333   0.78460   0.00000  Uiso   1.00
O1330  O     0.90839   0.83334   0.88207   0.00000  Uiso   1.00
C1331  C     0.99028   0.81925   0.76563   0.00000  Uiso   1.00
H1332  H     0.99698   0.83836   0.73620   0.00000  Uiso   1.00
O1333  O     0.96686   0.78691   0.75770   0.00000  Uiso   1.00
C1334  C     0.67638   0.84742   0.90103   0.00000  Uiso   1.00
H1335  H     0.66969   0.82830   0.93047   0.00000  Uiso   1.00
O1336  O     0.69980   0.87976   0.90896   0.00000  Uiso   1.00
C1337  C     0.92171   0.71125   0.81027   0.00000  Uiso   1.00
H1338  H     0.92969   0.74193   0.82500   0.00000  Uiso   1.00
O1339  O     0.95007   0.69702   0.78430   0.00000  Uiso   1.00
C1340  C     0.74495   0.95541   0.85640   0.00000  Uiso   1.00
H1341  H     0.73698   0.92474   0.84167   0.00000  Uiso   1.00
O1342  O     0.71660   0.96964   0.88237   0.00000  Uiso   1.00
C1343  C     0.91923   0.95426   0.81108   0.00000  Uiso   1.00
N1344  N     0.95397   0.93530   0.80309   0.00000  Uiso   1.00
C1345  C     0.74743   0.71240   0.85559   0.00000  Uiso   1.00
N1346  N     0.71269   0.73137   0.86357   0.00000  Uiso   1.00
C1347  C     0.76770   0.77959   0.70502   0.00000  Uiso   1.00
N1348  N     0.74042   0.75681   0.71964   0.00000  Uiso   1.00
C1349  C     0.89896   0.88708   0.96165   0.00000  Uiso   1.00
N1350  N     0.92624   0.90986   0.94703   0.00000  Uiso   1.00
loop_
_geom_bond_atom_site_label_1
_geom_bond_atom_site_label_2
_geom_bond_distance
_geom_bond_site_symmetry_2
_ccdc_geom_bond_type
C1     O25     1.291   .     A
C1     O23     1.287   .     A
C1     C12     1.448   .     S
C2     O26     1.291   .     A
C2     O24     1.287   .     A
C2     C11     1.448   .     S
C3     O27     1.283   .     A
C3     O29     1.298   .     A
C3     C5      1.444   .     S
C4     C6      1.444   .     S
C4     O28     1.283   .     A
C4     O30     1.298   .     A
C5     C106    1.373   1_455 S
C5     C131    1.491   1_455 S
C6     C55     1.373   .     S
C6     C84     1.491   .     S
C7     C37     1.494   .     S
C7     C12     1.411   .     A
C7     C309    1.404   1_545 S
C8     C11     1.411   .     A
C8     C40     1.494   .     S
C8     C160    1.404   .     S
C9     C11     1.409   .     A
C9     C43     1.454   .     S
C9     C157    1.404   .     S
C10    C45     1.454   .     S
C10    C12     1.409   .     A
C10    C308    1.404   1_545 S
C13    N22     1.376   .     A
C13    C47     1.438   .     S
C13    C915    1.417   1_554 S
C14    N21     1.376   .     A
C14    C49     1.438   .     S
C14    C466    1.417   .     S
C15    H19     1.083   .     S
C15    N21     1.362   .     A
C15    C463    1.417   .     S
C16    H20     1.083   .     S
C16    N22     1.362   .     A
C16    C914    1.417   1_554 S
Cu17   Cu18    2.683   .     S
Cu17   O30     1.987   .     S
Cu17   O23     1.956   .     S
Cu17   O26     1.959   .     S
Cu17   O27     1.980   .     S
Cu17   N21     2.017   .     S
Cu18   O29     1.987   .     S
Cu18   O25     1.959   .     S
Cu18   O24     1.956   .     S
Cu18   O28     1.980   .     S
Cu18   N22     2.017   .     S
C31    O33     1.221   .     D
C31    H32     1.085   .     S
C31    C55     1.491   .     S
C34    O36     1.221   .     D
C34    H35     1.085   .     S
C34    C106    1.491   1_455 S
C37    H38     1.084   .     S
C37    O39     1.221   .     D
C40    H41     1.084   .     S
C40    O42     1.221   .     D
C43    N44     1.157   .     T
C45    N46     1.157   .     T
C47    N48     1.158   .     T
C49    N50     1.158   .     T
C51    O75     1.291   .     A
C51    O73     1.287   .     A
C51    C62     1.448   .     S
C52    O76     1.291   .     A
C52    O74     1.287   .     A
C52    C61     1.448   .     S
C53    O77     1.283   .     A
C53    O79     1.298   .     A
C53    C55     1.444   .     S
C54    C56     1.444   .     S
C54    O78     1.283   .     A
C54    O80     1.298   .     A
C56    C105    1.373   .     S
C56    C134    1.491   .     S
C57    C87     1.494   .     S
C57    C62     1.411   .     A
C57    C359    1.404   1_545 S
C58    C61     1.411   .     A
C58    C90     1.494   .     S
C58    C210    1.404   .     S
C59    C61     1.409   .     A
C59    C93     1.454   .     S
C59    C207    1.404   .     S
C60    C95     1.454   .     S
C60    C62     1.409   .     A
C60    C358    1.404   1_545 S
C63    N72     1.376   .     A
C63    C97     1.438   .     S
C63    C965    1.417   1_554 S
C64    N71     1.376   .     A
C64    C99     1.438   .     S
C64    C516    1.417   .     S
C65    H69     1.083   .     S
C65    N71     1.362   .     A
C65    C513    1.417   .     S
C66    H70     1.083   .     S
C66    N72     1.362   .     A
C66    C964    1.417   1_554 S
Cu67   Cu68    2.683   .     S
Cu67   O80     1.987   .     S
Cu67   O73     1.956   .     S
Cu67   O76     1.959   .     S
Cu67   O77     1.980   .     S
Cu67   N71     2.017   .     S
Cu68   O79     1.987   .     S
Cu68   O75     1.959   .     S
Cu68   O74     1.956   .     S
Cu68   O78     1.980   .     S
Cu68   N72     2.017   .     S
C81    O83     1.221   .     D
C81    H82     1.085   .     S
C81    C105    1.491   .     S
C84    O86     1.221   .     D
C84    H85     1.085   .     S
C87    H88     1.084   .     S
C87    O89     1.221   .     D
C90    H91     1.084   .     S
C90    O92     1.221   .     D
C93    N94     1.157   .     T
C95    N96     1.157   .     T
C97    N98     1.158   .     T
C99    N100    1.158   .     T
C101   O125    1.291   .     A
C101   O123    1.287   .     A
C101   C112    1.448   .     S
C102   O126    1.291   .     A
C102   O124    1.287   .     A
C102   C111    1.448   .     S
C103   O127    1.283   .     A
C103   O129    1.298   .     A
C103   C105    1.444   .     S
C104   C106    1.444   .     S
C104   O128    1.283   .     A
C104   O130    1.298   .     A
C106   C5      1.373   1_655 S
C106   C34     1.491   1_655 S
C107   C137    1.494   .     S
C107   C112    1.411   .     A
C107   C409    1.404   1_545 S
C108   C111    1.411   .     A
C108   C140    1.494   .     S
C108   C260    1.404   .     S
C109   C111    1.409   .     A
C109   C143    1.454   .     S
C109   C257    1.404   .     S
C110   C145    1.454   .     S
C110   C112    1.409   .     A
C110   C408    1.404   1_545 S
C113   N122    1.376   .     A
C113   C147    1.438   .     S
C113   C1015   1.417   1_554 S
C114   N121    1.376   .     A
C114   C149    1.438   .     S
C114   C566    1.417   .     S
C115   H119    1.083   .     S
C115   N121    1.362   .     A
C115   C563    1.417   .     S
C116   H120    1.083   .     S
C116   N122    1.362   .     A
C116   C1014   1.417   1_554 S
Cu117  Cu118   2.683   .     S
Cu117  O130    1.987   .     S
Cu117  O123    1.956   .     S
Cu117  O126    1.959   .     S
Cu117  O127    1.980   .     S
Cu117  N121    2.017   .     S
Cu118  O129    1.987   .     S
Cu118  O125    1.959   .     S
Cu118  O124    1.956   .     S
Cu118  O128    1.980   .     S
Cu118  N122    2.017   .     S
C131   O133    1.221   .     D
C131   H132    1.085   .     S
C131   C5      1.491   1_655 S
C134   O136    1.221   .     D
C134   H135    1.085   .     S
C137   H138    1.084   .     S
C137   O139    1.221   .     D
C140   H141    1.084   .     S
C140   O142    1.221   .     D
C143   N144    1.157   .     T
C145   N146    1.157   .     T
C147   N148    1.158   .     T
C149   N150    1.158   .     T
C151   O175    1.291   .     A
C151   O173    1.287   .     A
C151   C162    1.448   .     S
C152   O176    1.291   .     A
C152   O174    1.287   .     A
C152   C161    1.448   .     S
C153   O177    1.283   .     A
C153   O179    1.298   .     A
C153   C155    1.444   .     S
C154   C156    1.444   .     S
C154   O178    1.283   .     A
C154   O180    1.298   .     A
C155   C256    1.373   1_455 S
C155   C281    1.491   1_455 S
C156   C205    1.373   .     S
C156   C234    1.491   .     S
C157   C187    1.494   .     S
C157   C162    1.411   .     A
C158   C161    1.411   .     A
C158   C190    1.494   .     S
C158   C310    1.404   .     S
C159   C161    1.409   .     A
C159   C193    1.454   .     S
C159   C307    1.404   .     S
C160   C195    1.454   .     S
C160   C162    1.409   .     A
C163   N172    1.376   .     A
C163   C197    1.438   .     S
C163   C1065   1.417   1_554 S
C164   N171    1.376   .     A
C164   C199    1.438   .     S
C164   C616    1.417   .     S
C165   H169    1.083   .     S
C165   N171    1.362   .     A
C165   C613    1.417   .     S
C166   H170    1.083   .     S
C166   N172    1.362   .     A
C166   C1064   1.417   1_554 S
Cu167  Cu168   2.683   .     S
Cu167  O180    1.987   .     S
Cu167  O173    1.956   .     S
Cu167  O176    1.959   .     S
Cu167  O177    1.980   .     S
Cu167  N171    2.017   .     S
Cu168  O179    1.987   .     S
Cu168  O175    1.959   .     S
Cu168  O174    1.956   .     S
Cu168  O178    1.980   .     S
Cu168  N172    2.017   .     S
C181   O183    1.221   .     D
C181   H182    1.085   .     S
C181   C205    1.491   .     S
C184   O186    1.221   .     D
C184   H185    1.085   .     S
C184   C256    1.491   1_455 S
C187   H188    1.084   .     S
C187   O189    1.221   .     D
C190   H191    1.084   .     S
C190   O192    1.221   .     D
C193   N194    1.157   .     T
C195   N196    1.157   .     T
C197   N198    1.158   .     T
C199   N200    1.158   .     T
C201   O225    1.291   .     A
C201   O223    1.287   .     A
C201   C212    1.448   .     S
C202   O226    1.291   .     A
C202   O224    1.287   .     A
C202   C211    1.448   .     S
C203   O227    1.283   .     A
C203   O229    1.298   .     A
C203   C205    1.444   .     S
C204   C206    1.444   .     S
C204   O228    1.283   .     A
C204   O230    1.298   .     A
C206   C255    1.373   .     S
C206   C284    1.491   .     S
C207   C237    1.494   .     S
C207   C212    1.411   .     A
C208   C211    1.411   .     A
C208   C240    1.494   .     S
C208   C360    1.404   .     S
C209   C211    1.409   .     A
C209   C243    1.454   .     S
C209   C357    1.404   .     S
C210   C245    1.454   .     S
C210   C212    1.409   .     A
C213   N222    1.376   .     A
C213   C247    1.438   .     S
C213   C1115   1.417   1_554 S
C214   N221    1.376   .     A
C214   C249    1.438   .     S
C214   C666    1.417   .     S
C215   H219    1.083   .     S
C215   N221    1.362   .     A
C215   C663    1.417   .     S
C216   H220    1.083   .     S
C216   N222    1.362   .     A
C216   C1114   1.417   1_554 S
Cu217  Cu218   2.683   .     S
Cu217  O230    1.987   .     S
Cu217  O223    1.956   .     S
Cu217  O226    1.959   .     S
Cu217  O227    1.980   .     S
Cu217  N221    2.017   .     S
Cu218  O229    1.987   .     S
Cu218  O225    1.959   .     S
Cu218  O224    1.956   .     S
Cu218  O228    1.980   .     S
Cu218  N222    2.017   .     S
C231   O233    1.221   .     D
C231   H232    1.085   .     S
C231   C255    1.491   .     S
C234   O236    1.221   .     D
C234   H235    1.085   .     S
C237   H238    1.084   .     S
C237   O239    1.221   .     D
C240   H241    1.084   .     S
C240   O242    1.221   .     D
C243   N244    1.157   .     T
C245   N246    1.157   .     T
C247   N248    1.158   .     T
C249   N250    1.158   .     T
C251   O275    1.291   .     A
C251   O273    1.287   .     A
C251   C262    1.448   .     S
C252   O276    1.291   .     A
C252   O274    1.287   .     A
C252   C261    1.448   .     S
C253   O277    1.283   .     A
C253   O279    1.298   .     A
C253   C255    1.444   .     S
C254   C256    1.444   .     S
C254   O278    1.283   .     A
C254   O280    1.298   .     A
C256   C155    1.373   1_655 S
C256   C184    1.491   1_655 S
C257   C287    1.494   .     S
C257   C262    1.411   .     A
C258   C261    1.411   .     A
C258   C290    1.494   .     S
C258   C410    1.404   .     S
C259   C261    1.409   .     A
C259   C293    1.454   .     S
C259   C407    1.404   .     S
C260   C295    1.454   .     S
C260   C262    1.409   .     A
C263   N272    1.376   .     A
C263   C297    1.438   .     S
C263   C1165   1.417   1_554 S
C264   N271    1.376   .     A
C264   C299    1.438   .     S
C264   C716    1.417   .     S
C265   H269    1.083   .     S
C265   N271    1.362   .     A
C265   C713    1.417   .     S
C266   H270    1.083   .     S
C266   N272    1.362   .     A
C266   C1164   1.417   1_554 S
Cu267  Cu268   2.683   .     S
Cu267  O280    1.987   .     S
Cu267  O273    1.956   .     S
Cu267  O276    1.959   .     S
Cu267  O277    1.980   .     S
Cu267  N271    2.017   .     S
Cu268  O279    1.987   .     S
Cu268  O275    1.959   .     S
Cu268  O274    1.956   .     S
Cu268  O278    1.980   .     S
Cu268  N272    2.017   .     S
C281   O283    1.221   .     D
C281   H282    1.085   .     S
C281   C155    1.491   1_655 S
C284   O286    1.221   .     D
C284   H285    1.085   .     S
C287   H288    1.084   .     S
C287   O289    1.221   .     D
C290   H291    1.084   .     S
C290   O292    1.221   .     D
C293   N294    1.157   .     T
C295   N296    1.157   .     T
C297   N298    1.158   .     T
C299   N300    1.158   .     T
C301   O325    1.291   .     A
C301   O323    1.287   .     A
C301   C312    1.448   .     S
C302   O326    1.291   .     A
C302   O324    1.287   .     A
C302   C311    1.448   .     S
C303   O327    1.283   .     A
C303   O329    1.298   .     A
C303   C305    1.444   .     S
C304   C306    1.444   .     S
C304   O328    1.283   .     A
C304   O330    1.298   .     A
C305   C406    1.373   1_455 S
C305   C431    1.491   1_455 S
C306   C355    1.373   .     S
C306   C384    1.491   .     S
C307   C337    1.494   .     S
C307   C312    1.411   .     A
C308   C311    1.411   .     A
C308   C340    1.494   .     S
C308   C10     1.404   1_565 S
C309   C311    1.409   .     A
C309   C343    1.454   .     S
C309   C7      1.404   1_565 S
C310   C345    1.454   .     S
C310   C312    1.409   .     A
C313   N322    1.376   .     A
C313   C347    1.438   .     S
C313   C1215   1.417   1_554 S
C314   N321    1.376   .     A
C314   C349    1.438   .     S
C314   C766    1.417   .     S
C315   H319    1.083   .     S
C315   N321    1.362   .     A
C315   C763    1.417   .     S
C316   H320    1.083   .     S
C316   N322    1.362   .     A
C316   C1214   1.417   1_554 S
Cu317  Cu318   2.683   .     S
Cu317  O330    1.987   .     S
Cu317  O323    1.956   .     S
Cu317  O326    1.959   .     S
Cu317  O327    1.980   .     S
Cu317  N321    2.017   .     S
Cu318  O329    1.987   .     S
Cu318  O325    1.959   .     S
Cu318  O324    1.956   .     S
Cu318  O328    1.980   .     S
Cu318  N322    2.017   .     S
C331   O333    1.221   .     D
C331   H332    1.085   .     S
C331   C355    1.491   .     S
C334   O336    1.221   .     D
C334   H335    1.085   .     S
C334   C406    1.491   1_455 S
C337   H338    1.084   .     S
C337   O339    1.221   .     D
C340   H341    1.084   .     S
C340   O342    1.221   .     D
C343   N344    1.157   .     T
C345   N346    1.157   .     T
C347   N348    1.158   .     T
C349   N350    1.158   .     T
C351   O375    1.291   .     A
C351   O373    1.287   .     A
C351   C362    1.448   .     S
C352   O376    1.291   .     A
C352   O374    1.287   .     A
C352   C361    1.448   .     S
C353   O377    1.283   .     A
C353   O379    1.298   .     A
C353   C355    1.444   .     S
C354   C356    1.444   .     S
C354   O378    1.283   .     A
C354   O380    1.298   .     A
C356   C405    1.373   .     S
C356   C434    1.491   .     S
C357   C387    1.494   .     S
C357   C362    1.411   .     A
C358   C361    1.411   .     A
C358   C390    1.494   .     S
C358   C60     1.404   1_565 S
C359   C361    1.409   .     A
C359   C393    1.454   .     S
C359   C57     1.404   1_565 S
C360   C395    1.454   .     S
C360   C362    1.409   .     A
C363   N372    1.376   .     A
C363   C397    1.438   .     S
C363   C1265   1.417   1_554 S
C364   N371    1.376   .     A
C364   C399    1.438   .     S
C364   C816    1.417   .     S
C365   H369    1.083   .     S
C365   N371    1.362   .     A
C365   C813    1.417   .     S
C366   H370    1.083   .     S
C366   N372    1.362   .     A
C366   C1264   1.417   1_554 S
Cu367  Cu368   2.683   .     S
Cu367  O380    1.987   .     S
Cu367  O373    1.956   .     S
Cu367  O376    1.959   .     S
Cu367  O377    1.980   .     S
Cu367  N371    2.017   .     S
Cu368  O379    1.987   .     S
Cu368  O375    1.959   .     S
Cu368  O374    1.956   .     S
Cu368  O378    1.980   .     S
Cu368  N372    2.017   .     S
C381   O383    1.221   .     D
C381   H382    1.085   .     S
C381   C405    1.491   .     S
C384   O386    1.221   .     D
C384   H385    1.085   .     S
C387   H388    1.084   .     S
C387   O389    1.221   .     D
C390   H391    1.084   .     S
C390   O392    1.221   .     D
C393   N394    1.157   .     T
C395   N396    1.157   .     T
C397   N398    1.158   .     T
C399   N400    1.158   .     T
C401   O425    1.291   .     A
C401   O423    1.287   .     A
C401   C412    1.448   .     S
C402   O426    1.291   .     A
C402   O424    1.287   .     A
C402   C411    1.448   .     S
C403   O427    1.283   .     A
C403   O429    1.298   .     A
C403   C405    1.444   .     S
C404   C406    1.444   .     S
C404   O428    1.283   .     A
C404   O430    1.298   .     A
C406   C305    1.373   1_655 S
C406   C334    1.491   1_655 S
C407   C437    1.494   .     S
C407   C412    1.411   .     A
C408   C411    1.411   .     A
C408   C440    1.494   .     S
C408   C110    1.404   1_565 S
C409   C411    1.409   .     A
C409   C443    1.454   .     S
C409   C107    1.404   1_565 S
C410   C445    1.454   .     S
C410   C412    1.409   .     A
C413   N422    1.376   .     A
C413   C447    1.438   .     S
C413   C1315   1.417   1_554 S
C414   N421    1.376   .     A
C414   C449    1.438   .     S
C414   C866    1.417   .     S
C415   H419    1.083   .     S
C415   N421    1.362   .     A
C415   C863    1.417   .     S
C416   H420    1.083   .     S
C416   N422    1.362   .     A
C416   C1314   1.417   1_554 S
Cu417  Cu418   2.683   .     S
Cu417  O430    1.987   .     S
Cu417  O423    1.956   .     S
Cu417  O426    1.959   .     S
Cu417  O427    1.980   .     S
Cu417  N421    2.017   .     S
Cu418  O429    1.987   .     S
Cu418  O425    1.959   .     S
Cu418  O424    1.956   .     S
Cu418  O428    1.980   .     S
Cu418  N422    2.017   .     S
C431   O433    1.221   .     D
C431   H432    1.085   .     S
C431   C305    1.491   1_655 S
C434   O436    1.221   .     D
C434   H435    1.085   .     S
C437   H438    1.084   .     S
C437   O439    1.221   .     D
C440   H441    1.084   .     S
C440   O442    1.221   .     D
C443   N444    1.157   .     T
C445   N446    1.157   .     T
C447   N448    1.158   .     T
C449   N450    1.158   .     T
C451   O475    1.291   .     A
C451   O473    1.287   .     A
C451   C462    1.448   .     S
C452   O476    1.291   .     A
C452   O474    1.287   .     A
C452   C461    1.448   .     S
C453   O477    1.283   .     A
C453   O479    1.298   .     A
C453   C455    1.444   .     S
C454   C456    1.444   .     S
C454   O478    1.283   .     A
C454   O480    1.298   .     A
C455   C556    1.373   1_455 S
C455   C581    1.491   1_455 S
C456   C505    1.373   .     S
C456   C534    1.491   .     S
C457   C487    1.494   .     S
C457   C462    1.411   .     A
C457   C759    1.404   1_545 S
C458   C461    1.411   .     A
C458   C490    1.494   .     S
C458   C610    1.404   .     S
C459   C461    1.409   .     A
C459   C493    1.454   .     S
C459   C607    1.404   .     S
C460   C495    1.454   .     S
C460   C462    1.409   .     A
C460   C758    1.404   1_545 S
C463   N472    1.376   .     A
C463   C497    1.438   .     S
C464   N471    1.376   .     A
C464   C499    1.438   .     S
C464   C916    1.417   .     S
C465   H469    1.083   .     S
C465   N471    1.362   .     A
C465   C913    1.417   .     S
C466   H470    1.083   .     S
C466   N472    1.362   .     A
Cu467  Cu468   2.683   .     S
Cu467  O480    1.987   .     S
Cu467  O473    1.956   .     S
Cu467  O476    1.959   .     S
Cu467  O477    1.980   .     S
Cu467  N471    2.017   .     S
Cu468  O479    1.987   .     S
Cu468  O475    1.959   .     S
Cu468  O474    1.956   .     S
Cu468  O478    1.980   .     S
Cu468  N472    2.017   .     S
C481   O483    1.221   .     D
C481   H482    1.085   .     S
C481   C505    1.491   .     S
C484   O486    1.221   .     D
C484   H485    1.085   .     S
C484   C556    1.491   1_455 S
C487   H488    1.084   .     S
C487   O489    1.221   .     D
C490   H491    1.084   .     S
C490   O492    1.221   .     D
C493   N494    1.157   .     T
C495   N496    1.157   .     T
C497   N498    1.158   .     T
C499   N500    1.158   .     T
C501   O525    1.291   .     A
C501   O523    1.287   .     A
C501   C512    1.448   .     S
C502   O526    1.291   .     A
C502   O524    1.287   .     A
C502   C511    1.448   .     S
C503   O527    1.283   .     A
C503   O529    1.298   .     A
C503   C505    1.444   .     S
C504   C506    1.444   .     S
C504   O528    1.283   .     A
C504   O530    1.298   .     A
C506   C555    1.373   .     S
C506   C584    1.491   .     S
C507   C537    1.494   .     S
C507   C512    1.411   .     A
C507   C809    1.404   1_545 S
C508   C511    1.411   .     A
C508   C540    1.494   .     S
C508   C660    1.404   .     S
C509   C511    1.409   .     A
C509   C543    1.454   .     S
C509   C657    1.404   .     S
C510   C545    1.454   .     S
C510   C512    1.409   .     A
C510   C808    1.404   1_545 S
C513   N522    1.376   .     A
C513   C547    1.438   .     S
C514   N521    1.376   .     A
C514   C549    1.438   .     S
C514   C966    1.417   .     S
C515   H519    1.083   .     S
C515   N521    1.362   .     A
C515   C963    1.417   .     S
C516   H520    1.083   .     S
C516   N522    1.362   .     A
Cu517  Cu518   2.683   .     S
Cu517  O530    1.987   .     S
Cu517  O523    1.956   .     S
Cu517  O526    1.959   .     S
Cu517  O527    1.980   .     S
Cu517  N521    2.017   .     S
Cu518  O529    1.987   .     S
Cu518  O525    1.959   .     S
Cu518  O524    1.956   .     S
Cu518  O528    1.980   .     S
Cu518  N522    2.017   .     S
C531   O533    1.221   .     D
C531   H532    1.085   .     S
C531   C555    1.491   .     S
C534   O536    1.221   .     D
C534   H535    1.085   .     S
C537   H538    1.084   .     S
C537   O539    1.221   .     D
C540   H541    1.084   .     S
C540   O542    1.221   .     D
C543   N544    1.157   .     T
C545   N546    1.157   .     T
C547   N548    1.158   .     T
C549   N550    1.158   .     T
C551   O575    1.291   .     A
C551   O573    1.287   .     A
C551   C562    1.448   .     S
C552   O576    1.291   .     A
C552   O574    1.287   .     A
C552   C561    1.448   .     S
C553   O577    1.283   .     A
C553   O579    1.298   .     A
C553   C555    1.444   .     S
C554   C556    1.444   .     S
C554   O578    1.283   .     A
C554   O580    1.298   .     A
C556   C455    1.373   1_655 S
C556   C484    1.491   1_655 S
C557   C587    1.494   .     S
C557   C562    1.411   .     A
C557   C859    1.404   1_545 S
C558   C561    1.411   .     A
C558   C590    1.494   .     S
C558   C710    1.404   .     S
C559   C561    1.409   .     A
C559   C593    1.454   .     S
C559   C707    1.404   .     S
C560   C595    1.454   .     S
C560   C562    1.409   .     A
C560   C858    1.404   1_545 S
C563   N572    1.376   .     A
C563   C597    1.438   .     S
C564   N571    1.376   .     A
C564   C599    1.438   .     S
C564   C1016   1.417   .     S
C565   H569    1.083   .     S
C565   N571    1.362   .     A
C565   C1013   1.417   .     S
C566   H570    1.083   .     S
C566   N572    1.362   .     A
Cu567  Cu568   2.683   .     S
Cu567  O580    1.987   .     S
Cu567  O573    1.956   .     S
Cu567  O576    1.959   .     S
Cu567  O577    1.980   .     S
Cu567  N571    2.017   .     S
Cu568  O579    1.987   .     S
Cu568  O575    1.959   .     S
Cu568  O574    1.956   .     S
Cu568  O578    1.980   .     S
Cu568  N572    2.017   .     S
C581   O583    1.221   .     D
C581   H582    1.085   .     S
C581   C455    1.491   1_655 S
C584   O586    1.221   .     D
C584   H585    1.085   .     S
C587   H588    1.084   .     S
C587   O589    1.221   .     D
C590   H591    1.084   .     S
C590   O592    1.221   .     D
C593   N594    1.157   .     T
C595   N596    1.157   .     T
C597   N598    1.158   .     T
C599   N600    1.158   .     T
C601   O625    1.291   .     A
C601   O623    1.287   .     A
C601   C612    1.448   .     S
C602   O626    1.291   .     A
C602   O624    1.287   .     A
C602   C611    1.448   .     S
C603   O627    1.283   .     A
C603   O629    1.298   .     A
C603   C605    1.444   .     S
C604   C606    1.444   .     S
C604   O628    1.283   .     A
C604   O630    1.298   .     A
C605   C706    1.373   1_455 S
C605   C731    1.491   1_455 S
C606   C655    1.373   .     S
C606   C684    1.491   .     S
C607   C637    1.494   .     S
C607   C612    1.411   .     A
C608   C611    1.411   .     A
C608   C640    1.494   .     S
C608   C760    1.404   .     S
C609   C611    1.409   .     A
C609   C643    1.454   .     S
C609   C757    1.404   .     S
C610   C645    1.454   .     S
C610   C612    1.409   .     A
C613   N622    1.376   .     A
C613   C647    1.438   .     S
C614   N621    1.376   .     A
C614   C649    1.438   .     S
C614   C1066   1.417   .     S
C615   H619    1.083   .     S
C615   N621    1.362   .     A
C615   C1063   1.417   .     S
C616   H620    1.083   .     S
C616   N622    1.362   .     A
Cu617  Cu618   2.683   .     S
Cu617  O630    1.987   .     S
Cu617  O623    1.956   .     S
Cu617  O626    1.959   .     S
Cu617  O627    1.980   .     S
Cu617  N621    2.017   .     S
Cu618  O629    1.987   .     S
Cu618  O625    1.959   .     S
Cu618  O624    1.956   .     S
Cu618  O628    1.980   .     S
Cu618  N622    2.017   .     S
C631   O633    1.221   .     D
C631   H632    1.085   .     S
C631   C655    1.491   .     S
C634   O636    1.221   .     D
C634   H635    1.085   .     S
C634   C706    1.491   1_455 S
C637   H638    1.084   .     S
C637   O639    1.221   .     D
C640   H641    1.084   .     S
C640   O642    1.221   .     D
C643   N644    1.157   .     T
C645   N646    1.157   .     T
C647   N648    1.158   .     T
C649   N650    1.158   .     T
C651   O675    1.291   .     A
C651   O673    1.287   .     A
C651   C662    1.448   .     S
C652   O676    1.291   .     A
C652   O674    1.287   .     A
C652   C661    1.448   .     S
C653   O677    1.283   .     A
C653   O679    1.298   .     A
C653   C655    1.444   .     S
C654   C656    1.444   .     S
C654   O678    1.283   .     A
C654   O680    1.298   .     A
C656   C705    1.373   .     S
C656   C734    1.491   .     S
C657   C687    1.494   .     S
C657   C662    1.411   .     A
C658   C661    1.411   .     A
C658   C690    1.494   .     S
C658   C810    1.404   .     S
C659   C661    1.409   .     A
C659   C693    1.454   .     S
C659   C807    1.404   .     S
C660   C695    1.454   .     S
C660   C662    1.409   .     A
C663   N672    1.376   .     A
C663   C697    1.438   .     S
C664   N671    1.376   .     A
C664   C699    1.438   .     S
C664   C1116   1.417   .     S
C665   H669    1.083   .     S
C665   N671    1.362   .     A
C665   C1113   1.417   .     S
C666   H670    1.083   .     S
C666   N672    1.362   .     A
Cu667  Cu668   2.683   .     S
Cu667  O680    1.987   .     S
Cu667  O673    1.956   .     S
Cu667  O676    1.959   .     S
Cu667  O677    1.980   .     S
Cu667  N671    2.017   .     S
Cu668  O679    1.987   .     S
Cu668  O675    1.959   .     S
Cu668  O674    1.956   .     S
Cu668  O678    1.980   .     S
Cu668  N672    2.017   .     S
C681   O683    1.221   .     D
C681   H682    1.085   .     S
C681   C705    1.491   .     S
C684   O686    1.221   .     D
C684   H685    1.085   .     S
C687   H688    1.084   .     S
C687   O689    1.221   .     D
C690   H691    1.084   .     S
C690   O692    1.221   .     D
C693   N694    1.157   .     T
C695   N696    1.157   .     T
C697   N698    1.158   .     T
C699   N700    1.158   .     T
C701   O725    1.291   .     A
C701   O723    1.287   .     A
C701   C712    1.448   .     S
C702   O726    1.291   .     A
C702   O724    1.287   .     A
C702   C711    1.448   .     S
C703   O727    1.283   .     A
C703   O729    1.298   .     A
C703   C705    1.444   .     S
C704   C706    1.444   .     S
C704   O728    1.283   .     A
C704   O730    1.298   .     A
C706   C605    1.373   1_655 S
C706   C634    1.491   1_655 S
C707   C737    1.494   .     S
C707   C712    1.411   .     A
C708   C711    1.411   .     A
C708   C740    1.494   .     S
C708   C860    1.404   .     S
C709   C711    1.409   .     A
C709   C743    1.454   .     S
C709   C857    1.404   .     S
C710   C745    1.454   .     S
C710   C712    1.409   .     A
C713   N722    1.376   .     A
C713   C747    1.438   .     S
C714   N721    1.376   .     A
C714   C749    1.438   .     S
C714   C1166   1.417   .     S
C715   H719    1.083   .     S
C715   N721    1.362   .     A
C715   C1163   1.417   .     S
C716   H720    1.083   .     S
C716   N722    1.362   .     A
Cu717  Cu718   2.683   .     S
Cu717  O730    1.987   .     S
Cu717  O723    1.956   .     S
Cu717  O726    1.959   .     S
Cu717  O727    1.980   .     S
Cu717  N721    2.017   .     S
Cu718  O729    1.987   .     S
Cu718  O725    1.959   .     S
Cu718  O724    1.956   .     S
Cu718  O728    1.980   .     S
Cu718  N722    2.017   .     S
C731   O733    1.221   .     D
C731   H732    1.085   .     S
C731   C605    1.491   1_655 S
C734   O736    1.221   .     D
C734   H735    1.085   .     S
C737   H738    1.084   .     S
C737   O739    1.221   .     D
C740   H741    1.084   .     S
C740   O742    1.221   .     D
C743   N744    1.157   .     T
C745   N746    1.157   .     T
C747   N748    1.158   .     T
C749   N750    1.158   .     T
C751   O775    1.291   .     A
C751   O773    1.287   .     A
C751   C762    1.448   .     S
C752   O776    1.291   .     A
C752   O774    1.287   .     A
C752   C761    1.448   .     S
C753   O777    1.283   .     A
C753   O779    1.298   .     A
C753   C755    1.444   .     S
C754   C756    1.444   .     S
C754   O778    1.283   .     A
C754   O780    1.298   .     A
C755   C856    1.373   1_455 S
C755   C881    1.491   1_455 S
C756   C805    1.373   .     S
C756   C834    1.491   .     S
C757   C787    1.494   .     S
C757   C762    1.411   .     A
C758   C761    1.411   .     A
C758   C790    1.494   .     S
C758   C460    1.404   1_565 S
C759   C761    1.409   .     A
C759   C793    1.454   .     S
C759   C457    1.404   1_565 S
C760   C795    1.454   .     S
C760   C762    1.409   .     A
C763   N772    1.376   .     A
C763   C797    1.438   .     S
C764   N771    1.376   .     A
C764   C799    1.438   .     S
C764   C1216   1.417   .     S
C765   H769    1.083   .     S
C765   N771    1.362   .     A
C765   C1213   1.417   .     S
C766   H770    1.083   .     S
C766   N772    1.362   .     A
Cu767  Cu768   2.683   .     S
Cu767  O780    1.987   .     S
Cu767  O773    1.956   .     S
Cu767  O776    1.959   .     S
Cu767  O777    1.980   .     S
Cu767  N771    2.017   .     S
Cu768  O779    1.987   .     S
Cu768  O775    1.959   .     S
Cu768  O774    1.956   .     S
Cu768  O778    1.980   .     S
Cu768  N772    2.017   .     S
C781   O783    1.221   .     D
C781   H782    1.085   .     S
C781   C805    1.491   .     S
C784   O786    1.221   .     D
C784   H785    1.085   .     S
C784   C856    1.491   1_455 S
C787   H788    1.084   .     S
C787   O789    1.221   .     D
C790   H791    1.084   .     S
C790   O792    1.221   .     D
C793   N794    1.157   .     T
C795   N796    1.157   .     T
C797   N798    1.158   .     T
C799   N800    1.158   .     T
C801   O825    1.291   .     A
C801   O823    1.287   .     A
C801   C812    1.448   .     S
C802   O826    1.291   .     A
C802   O824    1.287   .     A
C802   C811    1.448   .     S
C803   O827    1.283   .     A
C803   O829    1.298   .     A
C803   C805    1.444   .     S
C804   C806    1.444   .     S
C804   O828    1.283   .     A
C804   O830    1.298   .     A
C806   C855    1.373   .     S
C806   C884    1.491   .     S
C807   C837    1.494   .     S
C807   C812    1.411   .     A
C808   C811    1.411   .     A
C808   C840    1.494   .     S
C808   C510    1.404   1_565 S
C809   C811    1.409   .     A
C809   C843    1.454   .     S
C809   C507    1.404   1_565 S
C810   C845    1.454   .     S
C810   C812    1.409   .     A
C813   N822    1.376   .     A
C813   C847    1.438   .     S
C814   N821    1.376   .     A
C814   C849    1.438   .     S
C814   C1266   1.417   .     S
C815   H819    1.083   .     S
C815   N821    1.362   .     A
C815   C1263   1.417   .     S
C816   H820    1.083   .     S
C816   N822    1.362   .     A
Cu817  Cu818   2.683   .     S
Cu817  O830    1.987   .     S
Cu817  O823    1.956   .     S
Cu817  O826    1.959   .     S
Cu817  O827    1.980   .     S
Cu817  N821    2.017   .     S
Cu818  O829    1.987   .     S
Cu818  O825    1.959   .     S
Cu818  O824    1.956   .     S
Cu818  O828    1.980   .     S
Cu818  N822    2.017   .     S
C831   O833    1.221   .     D
C831   H832    1.085   .     S
C831   C855    1.491   .     S
C834   O836    1.221   .     D
C834   H835    1.085   .     S
C837   H838    1.084   .     S
C837   O839    1.221   .     D
C840   H841    1.084   .     S
C840   O842    1.221   .     D
C843   N844    1.157   .     T
C845   N846    1.157   .     T
C847   N848    1.158   .     T
C849   N850    1.158   .     T
C851   O875    1.291   .     A
C851   O873    1.287   .     A
C851   C862    1.448   .     S
C852   O876    1.291   .     A
C852   O874    1.287   .     A
C852   C861    1.448   .     S
C853   O877    1.283   .     A
C853   O879    1.298   .     A
C853   C855    1.444   .     S
C854   C856    1.444   .     S
C854   O878    1.283   .     A
C854   O880    1.298   .     A
C856   C755    1.373   1_655 S
C856   C784    1.491   1_655 S
C857   C887    1.494   .     S
C857   C862    1.411   .     A
C858   C861    1.411   .     A
C858   C890    1.494   .     S
C858   C560    1.404   1_565 S
C859   C861    1.409   .     A
C859   C893    1.454   .     S
C859   C557    1.404   1_565 S
C860   C895    1.454   .     S
C860   C862    1.409   .     A
C863   N872    1.376   .     A
C863   C897    1.438   .     S
C864   N871    1.376   .     A
C864   C899    1.438   .     S
C864   C1316   1.417   .     S
C865   H869    1.083   .     S
C865   N871    1.362   .     A
C865   C1313   1.417   .     S
C866   H870    1.083   .     S
C866   N872    1.362   .     A
Cu867  Cu868   2.683   .     S
Cu867  O880    1.987   .     S
Cu867  O873    1.956   .     S
Cu867  O876    1.959   .     S
Cu867  O877    1.980   .     S
Cu867  N871    2.017   .     S
Cu868  O879    1.987   .     S
Cu868  O875    1.959   .     S
Cu868  O874    1.956   .     S
Cu868  O878    1.980   .     S
Cu868  N872    2.017   .     S
C881   O883    1.221   .     D
C881   H882    1.085   .     S
C881   C755    1.491   1_655 S
C884   O886    1.221   .     D
C884   H885    1.085   .     S
C887   H888    1.084   .     S
C887   O889    1.221   .     D
C890   H891    1.084   .     S
C890   O892    1.221   .     D
C893   N894    1.157   .     T
C895   N896    1.157   .     T
C897   N898    1.158   .     T
C899   N900    1.158   .     T
C901   O925    1.291   .     A
C901   O923    1.287   .     A
C901   C912    1.448   .     S
C902   O926    1.291   .     A
C902   O924    1.287   .     A
C902   C911    1.448   .     S
C903   O927    1.283   .     A
C903   O929    1.298   .     A
C903   C905    1.444   .     S
C904   C906    1.444   .     S
C904   O928    1.283   .     A
C904   O930    1.298   .     A
C905   C1006   1.373   1_455 S
C905   C1031   1.491   1_455 S
C906   C955    1.373   .     S
C906   C984    1.491   .     S
C907   C937    1.494   .     S
C907   C912    1.411   .     A
C907   C1209   1.404   1_545 S
C908   C911    1.411   .     A
C908   C940    1.494   .     S
C908   C1060   1.404   .     S
C909   C911    1.409   .     A
C909   C943    1.454   .     S
C909   C1057   1.404   .     S
C910   C945    1.454   .     S
C910   C912    1.409   .     A
C910   C1208   1.404   1_545 S
C913   N922    1.376   .     A
C913   C947    1.438   .     S
C914   N921    1.376   .     A
C914   C949    1.438   .     S
C914   C16     1.417   1_556 S
C915   H919    1.083   .     S
C915   N921    1.362   .     A
C915   C13     1.417   1_556 S
C916   H920    1.083   .     S
C916   N922    1.362   .     A
Cu917  Cu918   2.683   .     S
Cu917  O930    1.987   .     S
Cu917  O923    1.956   .     S
Cu917  O926    1.959   .     S
Cu917  O927    1.980   .     S
Cu917  N921    2.017   .     S
Cu918  O929    1.987   .     S
Cu918  O925    1.959   .     S
Cu918  O924    1.956   .     S
Cu918  O928    1.980   .     S
Cu918  N922    2.017   .     S
C931   O933    1.221   .     D
C931   H932    1.085   .     S
C931   C955    1.491   .     S
C934   O936    1.221   .     D
C934   H935    1.085   .     S
C934   C1006   1.491   1_455 S
C937   H938    1.084   .     S
C937   O939    1.221   .     D
C940   H941    1.084   .     S
C940   O942    1.221   .     D
C943   N944    1.157   .     T
C945   N946    1.157   .     T
C947   N948    1.158   .     T
C949   N950    1.158   .     T
C951   O975    1.291   .     A
C951   O973    1.287   .     A
C951   C962    1.448   .     S
C952   O976    1.291   .     A
C952   O974    1.287   .     A
C952   C961    1.448   .     S
C953   O977    1.283   .     A
C953   O979    1.298   .     A
C953   C955    1.444   .     S
C954   C956    1.444   .     S
C954   O978    1.283   .     A
C954   O980    1.298   .     A
C956   C1005   1.373   .     S
C956   C1034   1.491   .     S
C957   C987    1.494   .     S
C957   C962    1.411   .     A
C957   C1259   1.404   1_545 S
C958   C961    1.411   .     A
C958   C990    1.494   .     S
C958   C1110   1.404   .     S
C959   C961    1.409   .     A
C959   C993    1.454   .     S
C959   C1107   1.404   .     S
C960   C995    1.454   .     S
C960   C962    1.409   .     A
C960   C1258   1.404   1_545 S
C963   N972    1.376   .     A
C963   C997    1.438   .     S
C964   N971    1.376   .     A
C964   C999    1.438   .     S
C964   C66     1.417   1_556 S
C965   H969    1.083   .     S
C965   N971    1.362   .     A
C965   C63     1.417   1_556 S
C966   H970    1.083   .     S
C966   N972    1.362   .     A
Cu967  Cu968   2.683   .     S
Cu967  O980    1.987   .     S
Cu967  O973    1.956   .     S
Cu967  O976    1.959   .     S
Cu967  O977    1.980   .     S
Cu967  N971    2.017   .     S
Cu968  O979    1.987   .     S
Cu968  O975    1.959   .     S
Cu968  O974    1.956   .     S
Cu968  O978    1.980   .     S
Cu968  N972    2.017   .     S
C981   O983    1.221   .     D
C981   H982    1.085   .     S
C981   C1005   1.491   .     S
C984   O986    1.221   .     D
C984   H985    1.085   .     S
C987   H988    1.084   .     S
C987   O989    1.221   .     D
C990   H991    1.084   .     S
C990   O992    1.221   .     D
C993   N994    1.157   .     T
C995   N996    1.157   .     T
C997   N998    1.158   .     T
C999   N1000   1.158   .     T
C1001  O1025   1.291   .     A
C1001  O1023   1.287   .     A
C1001  C1012   1.448   .     S
C1002  O1026   1.291   .     A
C1002  O1024   1.287   .     A
C1002  C1011   1.448   .     S
C1003  O1027   1.283   .     A
C1003  O1029   1.298   .     A
C1003  C1005   1.444   .     S
C1004  C1006   1.444   .     S
C1004  O1028   1.283   .     A
C1004  O1030   1.298   .     A
C1006  C905    1.373   1_655 S
C1006  C934    1.491   1_655 S
C1007  C1037   1.494   .     S
C1007  C1012   1.411   .     A
C1007  C1309   1.404   1_545 S
C1008  C1011   1.411   .     A
C1008  C1040   1.494   .     S
C1008  C1160   1.404   .     S
C1009  C1011   1.409   .     A
C1009  C1043   1.454   .     S
C1009  C1157   1.404   .     S
C1010  C1045   1.454   .     S
C1010  C1012   1.409   .     A
C1010  C1308   1.404   1_545 S
C1013  N1022   1.376   .     A
C1013  C1047   1.438   .     S
C1014  N1021   1.376   .     A
C1014  C1049   1.438   .     S
C1014  C116    1.417   1_556 S
C1015  H1019   1.083   .     S
C1015  N1021   1.362   .     A
C1015  C113    1.417   1_556 S
C1016  H1020   1.083   .     S
C1016  N1022   1.362   .     A
Cu1017 Cu1018  2.683   .     S
Cu1017 O1030   1.987   .     S
Cu1017 O1023   1.956   .     S
Cu1017 O1026   1.959   .     S
Cu1017 O1027   1.980   .     S
Cu1017 N1021   2.017   .     S
Cu1018 O1029   1.987   .     S
Cu1018 O1025   1.959   .     S
Cu1018 O1024   1.956   .     S
Cu1018 O1028   1.980   .     S
Cu1018 N1022   2.017   .     S
C1031  O1033   1.221   .     D
C1031  H1032   1.085   .     S
C1031  C905    1.491   1_655 S
C1034  O1036   1.221   .     D
C1034  H1035   1.085   .     S
C1037  H1038   1.084   .     S
C1037  O1039   1.221   .     D
C1040  H1041   1.084   .     S
C1040  O1042   1.221   .     D
C1043  N1044   1.157   .     T
C1045  N1046   1.157   .     T
C1047  N1048   1.158   .     T
C1049  N1050   1.158   .     T
C1051  O1075   1.291   .     A
C1051  O1073   1.287   .     A
C1051  C1062   1.448   .     S
C1052  O1076   1.291   .     A
C1052  O1074   1.287   .     A
C1052  C1061   1.448   .     S
C1053  O1077   1.283   .     A
C1053  O1079   1.298   .     A
C1053  C1055   1.444   .     S
C1054  C1056   1.444   .     S
C1054  O1078   1.283   .     A
C1054  O1080   1.298   .     A
C1055  C1156   1.373   1_455 S
C1055  C1181   1.491   1_455 S
C1056  C1105   1.373   .     S
C1056  C1134   1.491   .     S
C1057  C1087   1.494   .     S
C1057  C1062   1.411   .     A
C1058  C1061   1.411   .     A
C1058  C1090   1.494   .     S
C1058  C1210   1.404   .     S
C1059  C1061   1.409   .     A
C1059  C1093   1.454   .     S
C1059  C1207   1.404   .     S
C1060  C1095   1.454   .     S
C1060  C1062   1.409   .     A
C1063  N1072   1.376   .     A
C1063  C1097   1.438   .     S
C1064  N1071   1.376   .     A
C1064  C1099   1.438   .     S
C1064  C166    1.417   1_556 S
C1065  H1069   1.083   .     S
C1065  N1071   1.362   .     A
C1065  C163    1.417   1_556 S
C1066  H1070   1.083   .     S
C1066  N1072   1.362   .     A
Cu1067 Cu1068  2.683   .     S
Cu1067 O1080   1.987   .     S
Cu1067 O1073   1.956   .     S
Cu1067 O1076   1.959   .     S
Cu1067 O1077   1.980   .     S
Cu1067 N1071   2.017   .     S
Cu1068 O1079   1.987   .     S
Cu1068 O1075   1.959   .     S
Cu1068 O1074   1.956   .     S
Cu1068 O1078   1.980   .     S
Cu1068 N1072   2.017   .     S
C1081  O1083   1.221   .     D
C1081  H1082   1.085   .     S
C1081  C1105   1.491   .     S
C1084  O1086   1.221   .     D
C1084  H1085   1.085   .     S
C1084  C1156   1.491   1_455 S
C1087  H1088   1.084   .     S
C1087  O1089   1.221   .     D
C1090  H1091   1.084   .     S
C1090  O1092   1.221   .     D
C1093  N1094   1.157   .     T
C1095  N1096   1.157   .     T
C1097  N1098   1.158   .     T
C1099  N1100   1.158   .     T
C1101  O1125   1.291   .     A
C1101  O1123   1.287   .     A
C1101  C1112   1.448   .     S
C1102  O1126   1.291   .     A
C1102  O1124   1.287   .     A
C1102  C1111   1.448   .     S
C1103  O1127   1.283   .     A
C1103  O1129   1.298   .     A
C1103  C1105   1.444   .     S
C1104  C1106   1.444   .     S
C1104  O1128   1.283   .     A
C1104  O1130   1.298   .     A
C1106  C1155   1.373   .     S
C1106  C1184   1.491   .     S
C1107  C1137   1.494   .     S
C1107  C1112   1.411   .     A
C1108  C1111   1.411   .     A
C1108  C1140   1.494   .     S
C1108  C1260   1.404   .     S
C1109  C1111   1.409   .     A
C1109  C1143   1.454   .     S
C1109  C1257   1.404   .     S
C1110  C1145   1.454   .     S
C1110  C1112   1.409   .     A
C1113  N1122   1.376   .     A
C1113  C1147   1.438   .     S
C1114  N1121   1.376   .     A
C1114  C1149   1.438   .     S
C1114  C216    1.417   1_556 S
C1115  H1119   1.083   .     S
C1115  N1121   1.362   .     A
C1115  C213    1.417   1_556 S
C1116  H1120   1.083   .     S
C1116  N1122   1.362   .     A
Cu1117 Cu1118  2.683   .     S
Cu1117 O1130   1.987   .     S
Cu1117 O1123   1.956   .     S
Cu1117 O1126   1.959   .     S
Cu1117 O1127   1.980   .     S
Cu1117 N1121   2.017   .     S
Cu1118 O1129   1.987   .     S
Cu1118 O1125   1.959   .     S
Cu1118 O1124   1.956   .     S
Cu1118 O1128   1.980   .     S
Cu1118 N1122   2.017   .     S
C1131  O1133   1.221   .     D
C1131  H1132   1.085   .     S
C1131  C1155   1.491   .     S
C1134  O1136   1.221   .     D
C1134  H1135   1.085   .     S
C1137  H1138   1.084   .     S
C1137  O1139   1.221   .     D
C1140  H1141   1.084   .     S
C1140  O1142   1.221   .     D
C1143  N1144   1.157   .     T
C1145  N1146   1.157   .     T
C1147  N1148   1.158   .     T
C1149  N1150   1.158   .     T
C1151  O1175   1.291   .     A
C1151  O1173   1.287   .     A
C1151  C1162   1.448   .     S
C1152  O1176   1.291   .     A
C1152  O1174   1.287   .     A
C1152  C1161   1.448   .     S
C1153  O1177   1.283   .     A
C1153  O1179   1.298   .     A
C1153  C1155   1.444   .     S
C1154  C1156   1.444   .     S
C1154  O1178   1.283   .     A
C1154  O1180   1.298   .     A
C1156  C1055   1.373   1_655 S
C1156  C1084   1.491   1_655 S
C1157  C1187   1.494   .     S
C1157  C1162   1.411   .     A
C1158  C1161   1.411   .     A
C1158  C1190   1.494   .     S
C1158  C1310   1.404   .     S
C1159  C1161   1.409   .     A
C1159  C1193   1.454   .     S
C1159  C1307   1.404   .     S
C1160  C1195   1.454   .     S
C1160  C1162   1.409   .     A
C1163  N1172   1.376   .     A
C1163  C1197   1.438   .     S
C1164  N1171   1.376   .     A
C1164  C1199   1.438   .     S
C1164  C266    1.417   1_556 S
C1165  H1169   1.083   .     S
C1165  N1171   1.362   .     A
C1165  C263    1.417   1_556 S
C1166  H1170   1.083   .     S
C1166  N1172   1.362   .     A
Cu1167 Cu1168  2.683   .     S
Cu1167 O1180   1.987   .     S
Cu1167 O1173   1.956   .     S
Cu1167 O1176   1.959   .     S
Cu1167 O1177   1.980   .     S
Cu1167 N1171   2.017   .     S
Cu1168 O1179   1.987   .     S
Cu1168 O1175   1.959   .     S
Cu1168 O1174   1.956   .     S
Cu1168 O1178   1.980   .     S
Cu1168 N1172   2.017   .     S
C1181  O1183   1.221   .     D
C1181  H1182   1.085   .     S
C1181  C1055   1.491   1_655 S
C1184  O1186   1.221   .     D
C1184  H1185   1.085   .     S
C1187  H1188   1.084   .     S
C1187  O1189   1.221   .     D
C1190  H1191   1.084   .     S
C1190  O1192   1.221   .     D
C1193  N1194   1.157   .     T
C1195  N1196   1.157   .     T
C1197  N1198   1.158   .     T
C1199  N1200   1.158   .     T
C1201  O1225   1.291   .     A
C1201  O1223   1.287   .     A
C1201  C1212   1.448   .     S
C1202  O1226   1.291   .     A
C1202  O1224   1.287   .     A
C1202  C1211   1.448   .     S
C1203  O1227   1.283   .     A
C1203  O1229   1.298   .     A
C1203  C1205   1.444   .     S
C1204  C1206   1.444   .     S
C1204  O1228   1.283   .     A
C1204  O1230   1.298   .     A
C1205  C1306   1.373   1_455 S
C1205  C1331   1.491   1_455 S
C1206  C1255   1.373   .     S
C1206  C1284   1.491   .     S
C1207  C1237   1.494   .     S
C1207  C1212   1.411   .     A
C1208  C1211   1.411   .     A
C1208  C1240   1.494   .     S
C1208  C910    1.404   1_565 S
C1209  C1211   1.409   .     A
C1209  C1243   1.454   .     S
C1209  C907    1.404   1_565 S
C1210  C1245   1.454   .     S
C1210  C1212   1.409   .     A
C1213  N1222   1.376   .     A
C1213  C1247   1.438   .     S
C1214  N1221   1.376   .     A
C1214  C1249   1.438   .     S
C1214  C316    1.417   1_556 S
C1215  H1219   1.083   .     S
C1215  N1221   1.362   .     A
C1215  C313    1.417   1_556 S
C1216  H1220   1.083   .     S
C1216  N1222   1.362   .     A
Cu1217 Cu1218  2.683   .     S
Cu1217 O1230   1.987   .     S
Cu1217 O1223   1.956   .     S
Cu1217 O1226   1.959   .     S
Cu1217 O1227   1.980   .     S
Cu1217 N1221   2.017   .     S
Cu1218 O1229   1.987   .     S
Cu1218 O1225   1.959   .     S
Cu1218 O1224   1.956   .     S
Cu1218 O1228   1.980   .     S
Cu1218 N1222   2.017   .     S
C1231  O1233   1.221   .     D
C1231  H1232   1.085   .     S
C1231  C1255   1.491   .     S
C1234  O1236   1.221   .     D
C1234  H1235   1.085   .     S
C1234  C1306   1.491   1_455 S
C1237  H1238   1.084   .     S
C1237  O1239   1.221   .     D
C1240  H1241   1.084   .     S
C1240  O1242   1.221   .     D
C1243  N1244   1.157   .     T
C1245  N1246   1.157   .     T
C1247  N1248   1.158   .     T
C1249  N1250   1.158   .     T
C1251  O1275   1.291   .     A
C1251  O1273   1.287   .     A
C1251  C1262   1.448   .     S
C1252  O1276   1.291   .     A
C1252  O1274   1.287   .     A
C1252  C1261   1.448   .     S
C1253  O1277   1.283   .     A
C1253  O1279   1.298   .     A
C1253  C1255   1.444   .     S
C1254  C1256   1.444   .     S
C1254  O1278   1.283   .     A
C1254  O1280   1.298   .     A
C1256  C1305   1.373   .     S
C1256  C1334   1.491   .     S
C1257  C1287   1.494   .     S
C1257  C1262   1.411   .     A
C1258  C1261   1.411   .     A
C1258  C1290   1.494   .     S
C1258  C960    1.404   1_565 S
C1259  C1261   1.409   .     A
C1259  C1293   1.454   .     S
C1259  C957    1.404   1_565 S
C1260  C1295   1.454   .     S
C1260  C1262   1.409   .     A
C1263  N1272   1.376   .     A
C1263  C1297   1.438   .     S
C1264  N1271   1.376   .     A
C1264  C1299   1.438   .     S
C1264  C366    1.417   1_556 S
C1265  H1269   1.083   .     S
C1265  N1271   1.362   .     A
C1265  C363    1.417   1_556 S
C1266  H1270   1.083   .     S
C1266  N1272   1.362   .     A
Cu1267 Cu1268  2.683   .     S
Cu1267 O1280   1.987   .     S
Cu1267 O1273   1.956   .     S
Cu1267 O1276   1.959   .     S
Cu1267 O1277   1.980   .     S
Cu1267 N1271   2.017   .     S
Cu1268 O1279   1.987   .     S
Cu1268 O1275   1.959   .     S
Cu1268 O1274   1.956   .     S
Cu1268 O1278   1.980   .     S
Cu1268 N1272   2.017   .     S
C1281  O1283   1.221   .     D
C1281  H1282   1.085   .     S
C1281  C1305   1.491   .     S
C1284  O1286   1.221   .     D
C1284  H1285   1.085   .     S
C1287  H1288   1.084   .     S
C1287  O1289   1.221   .     D
C1290  H1291   1.084   .     S
C1290  O1292   1.221   .     D
C1293  N1294   1.157   .     T
C1295  N1296   1.157   .     T
C1297  N1298   1.158   .     T
C1299  N1300   1.158   .     T
C1301  O1325   1.291   .     A
C1301  O1323   1.287   .     A
C1301  C1312   1.448   .     S
C1302  O1326   1.291   .     A
C1302  O1324   1.287   .     A
C1302  C1311   1.448   .     S
C1303  O1327   1.283   .     A
C1303  O1329   1.298   .     A
C1303  C1305   1.444   .     S
C1304  C1306   1.444   .     S
C1304  O1328   1.283   .     A
C1304  O1330   1.298   .     A
C1306  C1205   1.373   1_655 S
C1306  C1234   1.491   1_655 S
C1307  C1337   1.494   .     S
C1307  C1312   1.411   .     A
C1308  C1311   1.411   .     A
C1308  C1340   1.494   .     S
C1308  C1010   1.404   1_565 S
C1309  C1311   1.409   .     A
C1309  C1343   1.454   .     S
C1309  C1007   1.404   1_565 S
C1310  C1345   1.454   .     S
C1310  C1312   1.409   .     A
C1313  N1322   1.376   .     A
C1313  C1347   1.438   .     S
C1314  N1321   1.376   .     A
C1314  C1349   1.438   .     S
C1314  C416    1.417   1_556 S
C1315  H1319   1.083   .     S
C1315  N1321   1.362   .     A
C1315  C413    1.417   1_556 S
C1316  H1320   1.083   .     S
C1316  N1322   1.362   .     A
Cu1317 Cu1318  2.683   .     S
Cu1317 O1330   1.987   .     S
Cu1317 O1323   1.956   .     S
Cu1317 O1326   1.959   .     S
Cu1317 O1327   1.980   .     S
Cu1317 N1321   2.017   .     S
Cu1318 O1329   1.987   .     S
Cu1318 O1325   1.959   .     S
Cu1318 O1324   1.956   .     S
Cu1318 O1328   1.980   .     S
Cu1318 N1322   2.017   .     S
C1331  O1333   1.221   .     D
C1331  H1332   1.085   .     S
C1331  C1205   1.491   1_655 S
C1334  O1336   1.221   .     D
C1334  H1335   1.085   .     S
C1337  H1338   1.084   .     S
C1337  O1339   1.221   .     D
C1340  H1341   1.084   .     S
C1340  O1342   1.221   .     D
C1343  N1344   1.157   .     T
C1345  N1346   1.157   .     T
C1347  N1348   1.158   .     T
C1349  N1350   1.158   .     T
