data_str_m3_o1_o10_pcu_sym.26
_audit_creation_date              2020-01-03
_audit_creation_method            'Materials Studio'
_symmetry_space_group_name_H-M    'P1'
_symmetry_Int_Tables_number       1
_symmetry_cell_setting            triclinic
loop_
_symmetry_equiv_pos_as_xyz
  x,y,z
_cell_length_a                    25.4729
_cell_length_b                    32.2699
_cell_length_c                    29.8988
_cell_angle_alpha                 91.8473
_cell_angle_beta                  94.5013
_cell_angle_gamma                 92.1173
loop_
_atom_site_label
_atom_site_type_symbol
_atom_site_fract_x
_atom_site_fract_y
_atom_site_fract_z
_atom_site_U_iso_or_equiv
_atom_site_adp_type
_atom_site_occupancy
Br1    Br    0.01034   0.24079   0.17875   0.00000  Uiso   1.00
Br2    Br    0.33195   0.09605   0.16602   0.00000  Uiso   1.00
C3     C     0.16867   0.08649   0.16631   0.00000  Uiso   1.00
C4     C     0.18002   0.02169   0.20731   0.00000  Uiso   1.00
C5     C     0.15254   0.29018   0.16977   0.00000  Uiso   1.00
C6     C     0.16769   0.04148   0.16623   0.00000  Uiso   1.00
C7     C     0.20055   0.19270   0.02676   0.00000  Uiso   1.00
C8     C     0.12958   0.14346   0.30565   0.00000  Uiso   1.00
C9     C     0.20279   0.19058   0.31236   0.00000  Uiso   1.00
C10    C     0.12986   0.14306   0.02060   0.00000  Uiso   1.00
C11    C     0.18584   0.03913   0.06184   0.00000  Uiso   1.00
C12    C     0.17810   0.31116   0.29520   0.00000  Uiso   1.00
C13    C     0.10622   0.27305   0.05934   0.00000  Uiso   1.00
C14    C     0.16129   0.24621   0.16729   0.00000  Uiso   1.00
C15    C     0.26490   0.04806   0.24477   0.00000  Uiso   1.00
C16    C     0.27927   0.21991   0.07163   0.00000  Uiso   1.00
C17    C     0.08133   0.07872   0.27736   0.00000  Uiso   1.00
C18    C     0.29379   0.19670   0.29392   0.00000  Uiso   1.00
C19    C     0.03836   0.13584   0.03773   0.00000  Uiso   1.00
C20    C     0.06877   0.17215   0.15709   0.00000  Uiso   1.00
C21    C     0.26561   0.16386   0.17657   0.00000  Uiso   1.00
C22    C     0.01661   0.18334   0.15990   0.00000  Uiso   1.00
C23    C     0.31870   0.15419   0.17531   0.00000  Uiso   1.00
C24    C     0.14527   0.01847   0.12789   0.00000  Uiso   1.00
C25    C     0.16670   0.31294   0.21008   0.00000  Uiso   1.00
C26    C     0.13334   0.30969   0.13134   0.00000  Uiso   1.00
H27    H     0.10605   0.02539   0.06508   0.00000  Uiso   1.00
H28    H     0.08617   0.29020   0.03171   0.00000  Uiso   1.00
H29    H     0.09338   0.23983   0.05534   0.00000  Uiso   1.00
H30    H     0.14905   0.27594   0.05701   0.00000  Uiso   1.00
H31    H     0.18953   0.06308   0.26494   0.00000  Uiso   1.00
H32    H     0.27996   0.03049   0.21618   0.00000  Uiso   1.00
H33    H     0.27604   0.08151   0.24335   0.00000  Uiso   1.00
H34    H     0.28347   0.03639   0.27647   0.00000  Uiso   1.00
H35    H     0.22499   0.25463   0.03703   0.00000  Uiso   1.00
H36    H     0.30892   0.23997   0.05641   0.00000  Uiso   1.00
H37    H     0.28982   0.18690   0.06899   0.00000  Uiso   1.00
H38    H     0.19826   0.00750   0.05304   0.00000  Uiso   1.00
H39    H     0.27949   0.23033   0.10679   0.00000  Uiso   1.00
H40    H     0.05429   0.13968   0.27228   0.00000  Uiso   1.00
H41    H     0.08187   0.06582   0.24258   0.00000  Uiso   1.00
H42    H     0.04288   0.06989   0.29010   0.00000  Uiso   1.00
H43    H     0.11296   0.06486   0.29868   0.00000  Uiso   1.00
H44    H     0.24355   0.24537   0.29904   0.00000  Uiso   1.00
H45    H     0.31700   0.20675   0.32522   0.00000  Uiso   1.00
H46    H     0.31568   0.20823   0.26594   0.00000  Uiso   1.00
H47    H     0.29093   0.16225   0.29125   0.00000  Uiso   1.00
H48    H     0.09004   0.08841   0.03364   0.00000  Uiso   1.00
H49    H     0.21855   0.05550   0.08291   0.00000  Uiso   1.00
H50    H     0.01596   0.12372   0.06521   0.00000  Uiso   1.00
H51    H     0.01661   0.12548   0.00560   0.00000  Uiso   1.00
H52    H     0.04039   0.17024   0.04071   0.00000  Uiso   1.00
H53    H     0.17875   0.05655   0.03071   0.00000  Uiso   1.00
H54    H     0.12406   0.27720   0.25209   0.00000  Uiso   1.00
H55    H     0.15553   0.00534   0.30296   0.00000  Uiso   1.00
H56    H     0.22115   0.31807   0.29738   0.00000  Uiso   1.00
H57    H     0.17067   0.28818   0.32063   0.00000  Uiso   1.00
H58    H     0.05718   0.30380   0.10085   0.00000  Uiso   1.00
N59    N     0.16665   0.16666   0.28573   0.00000  Uiso   1.00
N60    N     0.09067   0.11964   0.04124   0.00000  Uiso   1.00
N61    N     0.16668   0.16668   0.04760   0.00000  Uiso   1.00
N62    N     0.13819   0.03688   0.08534   0.00000  Uiso   1.00
N63    N     0.15986   0.29324   0.25178   0.00000  Uiso   1.00
N64    N     0.09258   0.28917   0.10232   0.00000  Uiso   1.00
N65    N     0.20835   0.04312   0.24463   0.00000  Uiso   1.00
N66    N     0.22722   0.22635   0.05178   0.00000  Uiso   1.00
N67    N     0.08818   0.12341   0.27730   0.00000  Uiso   1.00
N68    N     0.24201   0.21402   0.29164   0.00000  Uiso   1.00
O69    O     0.16666   0.10558   0.20487   0.00000  Uiso   1.00
O70    O     0.16667   0.22775   0.12846   0.00000  Uiso   1.00
O71    O     0.16666   0.10559   0.12843   0.00000  Uiso   1.00
O72    O     0.16667   0.22774   0.20490   0.00000  Uiso   1.00
O73    O     0.09058   0.16666   0.19595   0.00000  Uiso   1.00
O74    O     0.24275   0.16667   0.13739   0.00000  Uiso   1.00
O75    O     0.09058   0.16667   0.11950   0.00000  Uiso   1.00
O76    O     0.24275   0.16666   0.21383   0.00000  Uiso   1.00
Zn77   Zn    0.16667   0.16666   0.21771   0.00000  Uiso   1.00
Zn78   Zn    0.16667   0.16667   0.11563   0.00000  Uiso   1.00
Br79   Br    0.34367   0.24079   0.17875   0.00000  Uiso   1.00
Br80   Br    0.66528   0.09605   0.16602   0.00000  Uiso   1.00
C81    C     0.50201   0.08649   0.16631   0.00000  Uiso   1.00
C82    C     0.51336   0.02169   0.20731   0.00000  Uiso   1.00
C83    C     0.48587   0.29018   0.16977   0.00000  Uiso   1.00
C84    C     0.50102   0.04148   0.16623   0.00000  Uiso   1.00
C85    C     0.53388   0.19270   0.02676   0.00000  Uiso   1.00
C86    C     0.46291   0.14346   0.30565   0.00000  Uiso   1.00
C87    C     0.53612   0.19058   0.31236   0.00000  Uiso   1.00
C88    C     0.46319   0.14306   0.02060   0.00000  Uiso   1.00
C89    C     0.51917   0.03913   0.06184   0.00000  Uiso   1.00
C90    C     0.51143   0.31116   0.29520   0.00000  Uiso   1.00
C91    C     0.43955   0.27305   0.05934   0.00000  Uiso   1.00
C92    C     0.49463   0.24621   0.16729   0.00000  Uiso   1.00
C93    C     0.59823   0.04806   0.24477   0.00000  Uiso   1.00
C94    C     0.61261   0.21991   0.07163   0.00000  Uiso   1.00
C95    C     0.41467   0.07872   0.27736   0.00000  Uiso   1.00
C96    C     0.62712   0.19670   0.29392   0.00000  Uiso   1.00
C97    C     0.37169   0.13584   0.03773   0.00000  Uiso   1.00
C98    C     0.40210   0.17215   0.15709   0.00000  Uiso   1.00
C99    C     0.59894   0.16386   0.17657   0.00000  Uiso   1.00
C100   C     0.34994   0.18334   0.15990   0.00000  Uiso   1.00
C101   C     0.65204   0.15419   0.17531   0.00000  Uiso   1.00
C102   C     0.47860   0.01847   0.12789   0.00000  Uiso   1.00
C103   C     0.50003   0.31294   0.21008   0.00000  Uiso   1.00
C104   C     0.46667   0.30969   0.13134   0.00000  Uiso   1.00
H105   H     0.43939   0.02539   0.06508   0.00000  Uiso   1.00
H106   H     0.41950   0.29020   0.03171   0.00000  Uiso   1.00
H107   H     0.42671   0.23983   0.05534   0.00000  Uiso   1.00
H108   H     0.48239   0.27594   0.05701   0.00000  Uiso   1.00
H109   H     0.52286   0.06308   0.26494   0.00000  Uiso   1.00
H110   H     0.61329   0.03049   0.21618   0.00000  Uiso   1.00
H111   H     0.60937   0.08151   0.24335   0.00000  Uiso   1.00
H112   H     0.61680   0.03639   0.27647   0.00000  Uiso   1.00
H113   H     0.55832   0.25463   0.03703   0.00000  Uiso   1.00
H114   H     0.64225   0.23997   0.05641   0.00000  Uiso   1.00
H115   H     0.62315   0.18690   0.06899   0.00000  Uiso   1.00
H116   H     0.53159   0.00750   0.05304   0.00000  Uiso   1.00
H117   H     0.61283   0.23033   0.10679   0.00000  Uiso   1.00
H118   H     0.38762   0.13968   0.27228   0.00000  Uiso   1.00
H119   H     0.41520   0.06582   0.24258   0.00000  Uiso   1.00
H120   H     0.37621   0.06989   0.29010   0.00000  Uiso   1.00
H121   H     0.44629   0.06486   0.29868   0.00000  Uiso   1.00
H122   H     0.57688   0.24537   0.29904   0.00000  Uiso   1.00
H123   H     0.65034   0.20675   0.32522   0.00000  Uiso   1.00
H124   H     0.64901   0.20823   0.26594   0.00000  Uiso   1.00
H125   H     0.62427   0.16225   0.29125   0.00000  Uiso   1.00
H126   H     0.42337   0.08841   0.03364   0.00000  Uiso   1.00
H127   H     0.55188   0.05550   0.08291   0.00000  Uiso   1.00
H128   H     0.34929   0.12372   0.06521   0.00000  Uiso   1.00
H129   H     0.34994   0.12548   0.00560   0.00000  Uiso   1.00
H130   H     0.37373   0.17024   0.04071   0.00000  Uiso   1.00
H131   H     0.51209   0.05655   0.03071   0.00000  Uiso   1.00
H132   H     0.45739   0.27720   0.25209   0.00000  Uiso   1.00
H133   H     0.48887   0.00534   0.30296   0.00000  Uiso   1.00
H134   H     0.55448   0.31807   0.29738   0.00000  Uiso   1.00
H135   H     0.50400   0.28818   0.32063   0.00000  Uiso   1.00
H136   H     0.39052   0.30380   0.10085   0.00000  Uiso   1.00
N137   N     0.49999   0.16666   0.28573   0.00000  Uiso   1.00
N138   N     0.42400   0.11964   0.04124   0.00000  Uiso   1.00
N139   N     0.50001   0.16668   0.04760   0.00000  Uiso   1.00
N140   N     0.47153   0.03688   0.08534   0.00000  Uiso   1.00
N141   N     0.49320   0.29324   0.25178   0.00000  Uiso   1.00
N142   N     0.42591   0.28917   0.10232   0.00000  Uiso   1.00
N143   N     0.54169   0.04312   0.24463   0.00000  Uiso   1.00
N144   N     0.56055   0.22635   0.05178   0.00000  Uiso   1.00
N145   N     0.42151   0.12341   0.27730   0.00000  Uiso   1.00
N146   N     0.57534   0.21402   0.29164   0.00000  Uiso   1.00
O147   O     0.50000   0.10558   0.20487   0.00000  Uiso   1.00
O148   O     0.50000   0.22775   0.12846   0.00000  Uiso   1.00
O149   O     0.50000   0.10559   0.12843   0.00000  Uiso   1.00
O150   O     0.50000   0.22774   0.20490   0.00000  Uiso   1.00
O151   O     0.42392   0.16666   0.19595   0.00000  Uiso   1.00
O152   O     0.57608   0.16667   0.13739   0.00000  Uiso   1.00
O153   O     0.42392   0.16667   0.11950   0.00000  Uiso   1.00
O154   O     0.57608   0.16666   0.21383   0.00000  Uiso   1.00
Zn155  Zn    0.50000   0.16666   0.21771   0.00000  Uiso   1.00
Zn156  Zn    0.50000   0.16667   0.11563   0.00000  Uiso   1.00
Br157  Br    0.67700   0.24079   0.17875   0.00000  Uiso   1.00
Br158  Br    0.99862   0.09605   0.16602   0.00000  Uiso   1.00
C159   C     0.83534   0.08649   0.16631   0.00000  Uiso   1.00
C160   C     0.84669   0.02169   0.20731   0.00000  Uiso   1.00
C161   C     0.81921   0.29018   0.16977   0.00000  Uiso   1.00
C162   C     0.83435   0.04148   0.16623   0.00000  Uiso   1.00
C163   C     0.86722   0.19270   0.02676   0.00000  Uiso   1.00
C164   C     0.79624   0.14346   0.30565   0.00000  Uiso   1.00
C165   C     0.86946   0.19058   0.31236   0.00000  Uiso   1.00
C166   C     0.79652   0.14306   0.02060   0.00000  Uiso   1.00
C167   C     0.85250   0.03913   0.06184   0.00000  Uiso   1.00
C168   C     0.84476   0.31116   0.29520   0.00000  Uiso   1.00
C169   C     0.77289   0.27305   0.05934   0.00000  Uiso   1.00
C170   C     0.82796   0.24621   0.16729   0.00000  Uiso   1.00
C171   C     0.93157   0.04806   0.24477   0.00000  Uiso   1.00
C172   C     0.94594   0.21991   0.07163   0.00000  Uiso   1.00
C173   C     0.74800   0.07872   0.27736   0.00000  Uiso   1.00
C174   C     0.96046   0.19670   0.29392   0.00000  Uiso   1.00
C175   C     0.70502   0.13584   0.03773   0.00000  Uiso   1.00
C176   C     0.73543   0.17215   0.15709   0.00000  Uiso   1.00
C177   C     0.93227   0.16386   0.17657   0.00000  Uiso   1.00
C178   C     0.68328   0.18334   0.15990   0.00000  Uiso   1.00
C179   C     0.98537   0.15419   0.17531   0.00000  Uiso   1.00
C180   C     0.81194   0.01847   0.12789   0.00000  Uiso   1.00
C181   C     0.83336   0.31294   0.21008   0.00000  Uiso   1.00
C182   C     0.80000   0.30969   0.13134   0.00000  Uiso   1.00
H183   H     0.77272   0.02539   0.06508   0.00000  Uiso   1.00
H184   H     0.75283   0.29020   0.03171   0.00000  Uiso   1.00
H185   H     0.76004   0.23983   0.05534   0.00000  Uiso   1.00
H186   H     0.81572   0.27594   0.05701   0.00000  Uiso   1.00
H187   H     0.85619   0.06308   0.26494   0.00000  Uiso   1.00
H188   H     0.94663   0.03049   0.21618   0.00000  Uiso   1.00
H189   H     0.94270   0.08151   0.24335   0.00000  Uiso   1.00
H190   H     0.95013   0.03639   0.27647   0.00000  Uiso   1.00
H191   H     0.89166   0.25463   0.03703   0.00000  Uiso   1.00
H192   H     0.97558   0.23997   0.05641   0.00000  Uiso   1.00
H193   H     0.95649   0.18690   0.06899   0.00000  Uiso   1.00
H194   H     0.86493   0.00750   0.05304   0.00000  Uiso   1.00
H195   H     0.94616   0.23033   0.10679   0.00000  Uiso   1.00
H196   H     0.72096   0.13968   0.27228   0.00000  Uiso   1.00
H197   H     0.74853   0.06582   0.24258   0.00000  Uiso   1.00
H198   H     0.70955   0.06989   0.29010   0.00000  Uiso   1.00
H199   H     0.77962   0.06486   0.29868   0.00000  Uiso   1.00
H200   H     0.91022   0.24537   0.29904   0.00000  Uiso   1.00
H201   H     0.98367   0.20675   0.32522   0.00000  Uiso   1.00
H202   H     0.98235   0.20823   0.26594   0.00000  Uiso   1.00
H203   H     0.95760   0.16225   0.29125   0.00000  Uiso   1.00
H204   H     0.75671   0.08841   0.03364   0.00000  Uiso   1.00
H205   H     0.88522   0.05550   0.08291   0.00000  Uiso   1.00
H206   H     0.68263   0.12372   0.06521   0.00000  Uiso   1.00
H207   H     0.68328   0.12548   0.00560   0.00000  Uiso   1.00
H208   H     0.70706   0.17024   0.04071   0.00000  Uiso   1.00
H209   H     0.84542   0.05655   0.03071   0.00000  Uiso   1.00
H210   H     0.79073   0.27720   0.25209   0.00000  Uiso   1.00
H211   H     0.82220   0.00534   0.30296   0.00000  Uiso   1.00
H212   H     0.88782   0.31807   0.29738   0.00000  Uiso   1.00
H213   H     0.83733   0.28818   0.32063   0.00000  Uiso   1.00
H214   H     0.72385   0.30380   0.10085   0.00000  Uiso   1.00
N215   N     0.83332   0.16666   0.28573   0.00000  Uiso   1.00
N216   N     0.75733   0.11964   0.04124   0.00000  Uiso   1.00
N217   N     0.83335   0.16668   0.04760   0.00000  Uiso   1.00
N218   N     0.80486   0.03688   0.08534   0.00000  Uiso   1.00
N219   N     0.82653   0.29324   0.25178   0.00000  Uiso   1.00
N220   N     0.75925   0.28917   0.10232   0.00000  Uiso   1.00
N221   N     0.87502   0.04312   0.24463   0.00000  Uiso   1.00
N222   N     0.89389   0.22635   0.05178   0.00000  Uiso   1.00
N223   N     0.75484   0.12341   0.27730   0.00000  Uiso   1.00
N224   N     0.90868   0.21402   0.29164   0.00000  Uiso   1.00
O225   O     0.83333   0.10558   0.20487   0.00000  Uiso   1.00
O226   O     0.83334   0.22775   0.12846   0.00000  Uiso   1.00
O227   O     0.83333   0.10559   0.12843   0.00000  Uiso   1.00
O228   O     0.83334   0.22774   0.20490   0.00000  Uiso   1.00
O229   O     0.75725   0.16666   0.19595   0.00000  Uiso   1.00
O230   O     0.90942   0.16667   0.13739   0.00000  Uiso   1.00
O231   O     0.75725   0.16667   0.11950   0.00000  Uiso   1.00
O232   O     0.90942   0.16666   0.21383   0.00000  Uiso   1.00
Zn233  Zn    0.83333   0.16666   0.21771   0.00000  Uiso   1.00
Zn234  Zn    0.83333   0.16667   0.11563   0.00000  Uiso   1.00
Br235  Br    0.01034   0.57413   0.17875   0.00000  Uiso   1.00
Br236  Br    0.33195   0.42938   0.16602   0.00000  Uiso   1.00
C237   C     0.16867   0.41982   0.16631   0.00000  Uiso   1.00
C238   C     0.18002   0.35503   0.20731   0.00000  Uiso   1.00
C239   C     0.15254   0.62351   0.16977   0.00000  Uiso   1.00
C240   C     0.16769   0.37481   0.16623   0.00000  Uiso   1.00
C241   C     0.20055   0.52604   0.02676   0.00000  Uiso   1.00
C242   C     0.12958   0.47679   0.30565   0.00000  Uiso   1.00
C243   C     0.20279   0.52391   0.31236   0.00000  Uiso   1.00
C244   C     0.12986   0.47640   0.02060   0.00000  Uiso   1.00
C245   C     0.18584   0.37247   0.06184   0.00000  Uiso   1.00
C246   C     0.17810   0.64450   0.29520   0.00000  Uiso   1.00
C247   C     0.10622   0.60638   0.05934   0.00000  Uiso   1.00
C248   C     0.16129   0.57954   0.16729   0.00000  Uiso   1.00
C249   C     0.26490   0.38139   0.24477   0.00000  Uiso   1.00
C250   C     0.27927   0.55325   0.07163   0.00000  Uiso   1.00
C251   C     0.08133   0.41205   0.27736   0.00000  Uiso   1.00
C252   C     0.29379   0.53003   0.29392   0.00000  Uiso   1.00
C253   C     0.03836   0.46917   0.03773   0.00000  Uiso   1.00
C254   C     0.06877   0.50548   0.15709   0.00000  Uiso   1.00
C255   C     0.26561   0.49719   0.17657   0.00000  Uiso   1.00
C256   C     0.01661   0.51667   0.15990   0.00000  Uiso   1.00
C257   C     0.31870   0.48752   0.17531   0.00000  Uiso   1.00
C258   C     0.14527   0.35181   0.12789   0.00000  Uiso   1.00
C259   C     0.16670   0.64628   0.21008   0.00000  Uiso   1.00
C260   C     0.13334   0.64302   0.13134   0.00000  Uiso   1.00
H261   H     0.10605   0.35872   0.06508   0.00000  Uiso   1.00
H262   H     0.08617   0.62354   0.03171   0.00000  Uiso   1.00
H263   H     0.09338   0.57316   0.05534   0.00000  Uiso   1.00
H264   H     0.14905   0.60927   0.05701   0.00000  Uiso   1.00
H265   H     0.18953   0.39641   0.26494   0.00000  Uiso   1.00
H266   H     0.27996   0.36382   0.21618   0.00000  Uiso   1.00
H267   H     0.27604   0.41484   0.24335   0.00000  Uiso   1.00
H268   H     0.28347   0.36972   0.27647   0.00000  Uiso   1.00
H269   H     0.22499   0.58797   0.03703   0.00000  Uiso   1.00
H270   H     0.30892   0.57330   0.05641   0.00000  Uiso   1.00
H271   H     0.28982   0.52023   0.06899   0.00000  Uiso   1.00
H272   H     0.19826   0.34084   0.05304   0.00000  Uiso   1.00
H273   H     0.27949   0.56366   0.10679   0.00000  Uiso   1.00
H274   H     0.05429   0.47301   0.27228   0.00000  Uiso   1.00
H275   H     0.08187   0.39916   0.24258   0.00000  Uiso   1.00
H276   H     0.04288   0.40323   0.29010   0.00000  Uiso   1.00
H277   H     0.11296   0.39819   0.29868   0.00000  Uiso   1.00
H278   H     0.24355   0.57870   0.29904   0.00000  Uiso   1.00
H279   H     0.31700   0.54008   0.32522   0.00000  Uiso   1.00
H280   H     0.31568   0.54156   0.26594   0.00000  Uiso   1.00
H281   H     0.29093   0.49559   0.29125   0.00000  Uiso   1.00
H282   H     0.09004   0.42174   0.03364   0.00000  Uiso   1.00
H283   H     0.21855   0.38883   0.08291   0.00000  Uiso   1.00
H284   H     0.01596   0.45705   0.06521   0.00000  Uiso   1.00
H285   H     0.01661   0.45882   0.00560   0.00000  Uiso   1.00
H286   H     0.04039   0.50358   0.04071   0.00000  Uiso   1.00
H287   H     0.17875   0.38989   0.03071   0.00000  Uiso   1.00
H288   H     0.12406   0.61053   0.25209   0.00000  Uiso   1.00
H289   H     0.15553   0.33867   0.30296   0.00000  Uiso   1.00
H290   H     0.22115   0.65140   0.29738   0.00000  Uiso   1.00
H291   H     0.17067   0.62151   0.32063   0.00000  Uiso   1.00
H292   H     0.05718   0.63714   0.10085   0.00000  Uiso   1.00
N293   N     0.16665   0.49999   0.28573   0.00000  Uiso   1.00
N294   N     0.09067   0.45297   0.04124   0.00000  Uiso   1.00
N295   N     0.16668   0.50001   0.04760   0.00000  Uiso   1.00
N296   N     0.13819   0.37021   0.08534   0.00000  Uiso   1.00
N297   N     0.15986   0.62658   0.25178   0.00000  Uiso   1.00
N298   N     0.09258   0.62251   0.10232   0.00000  Uiso   1.00
N299   N     0.20835   0.37646   0.24463   0.00000  Uiso   1.00
N300   N     0.22722   0.55969   0.05178   0.00000  Uiso   1.00
N301   N     0.08818   0.45674   0.27730   0.00000  Uiso   1.00
N302   N     0.24201   0.54735   0.29164   0.00000  Uiso   1.00
O303   O     0.16666   0.43892   0.20487   0.00000  Uiso   1.00
O304   O     0.16667   0.56108   0.12846   0.00000  Uiso   1.00
O305   O     0.16666   0.43893   0.12843   0.00000  Uiso   1.00
O306   O     0.16667   0.56107   0.20490   0.00000  Uiso   1.00
O307   O     0.09058   0.50000   0.19595   0.00000  Uiso   1.00
O308   O     0.24275   0.50000   0.13739   0.00000  Uiso   1.00
O309   O     0.09058   0.50000   0.11950   0.00000  Uiso   1.00
O310   O     0.24275   0.50000   0.21383   0.00000  Uiso   1.00
Zn311  Zn    0.16667   0.49999   0.21771   0.00000  Uiso   1.00
Zn312  Zn    0.16667   0.50001   0.11563   0.00000  Uiso   1.00
Br313  Br    0.34367   0.57413   0.17875   0.00000  Uiso   1.00
Br314  Br    0.66528   0.42938   0.16602   0.00000  Uiso   1.00
C315   C     0.50201   0.41982   0.16631   0.00000  Uiso   1.00
C316   C     0.51336   0.35503   0.20731   0.00000  Uiso   1.00
C317   C     0.48587   0.62351   0.16977   0.00000  Uiso   1.00
C318   C     0.50102   0.37481   0.16623   0.00000  Uiso   1.00
C319   C     0.53388   0.52604   0.02676   0.00000  Uiso   1.00
C320   C     0.46291   0.47679   0.30565   0.00000  Uiso   1.00
C321   C     0.53612   0.52391   0.31236   0.00000  Uiso   1.00
C322   C     0.46319   0.47640   0.02060   0.00000  Uiso   1.00
C323   C     0.51917   0.37247   0.06184   0.00000  Uiso   1.00
C324   C     0.51143   0.64450   0.29520   0.00000  Uiso   1.00
C325   C     0.43955   0.60638   0.05934   0.00000  Uiso   1.00
C326   C     0.49463   0.57954   0.16729   0.00000  Uiso   1.00
C327   C     0.59823   0.38139   0.24477   0.00000  Uiso   1.00
C328   C     0.61261   0.55325   0.07163   0.00000  Uiso   1.00
C329   C     0.41467   0.41205   0.27736   0.00000  Uiso   1.00
C330   C     0.62712   0.53003   0.29392   0.00000  Uiso   1.00
C331   C     0.37169   0.46917   0.03773   0.00000  Uiso   1.00
C332   C     0.40210   0.50548   0.15709   0.00000  Uiso   1.00
C333   C     0.59894   0.49719   0.17657   0.00000  Uiso   1.00
C334   C     0.34994   0.51667   0.15990   0.00000  Uiso   1.00
C335   C     0.65204   0.48752   0.17531   0.00000  Uiso   1.00
C336   C     0.47860   0.35181   0.12789   0.00000  Uiso   1.00
C337   C     0.50003   0.64628   0.21008   0.00000  Uiso   1.00
C338   C     0.46667   0.64302   0.13134   0.00000  Uiso   1.00
H339   H     0.43939   0.35872   0.06508   0.00000  Uiso   1.00
H340   H     0.41950   0.62354   0.03171   0.00000  Uiso   1.00
H341   H     0.42671   0.57316   0.05534   0.00000  Uiso   1.00
H342   H     0.48239   0.60927   0.05701   0.00000  Uiso   1.00
H343   H     0.52286   0.39641   0.26494   0.00000  Uiso   1.00
H344   H     0.61329   0.36382   0.21618   0.00000  Uiso   1.00
H345   H     0.60937   0.41484   0.24335   0.00000  Uiso   1.00
H346   H     0.61680   0.36972   0.27647   0.00000  Uiso   1.00
H347   H     0.55832   0.58797   0.03703   0.00000  Uiso   1.00
H348   H     0.64225   0.57330   0.05641   0.00000  Uiso   1.00
H349   H     0.62315   0.52023   0.06899   0.00000  Uiso   1.00
H350   H     0.53159   0.34084   0.05304   0.00000  Uiso   1.00
H351   H     0.61283   0.56366   0.10679   0.00000  Uiso   1.00
H352   H     0.38762   0.47301   0.27228   0.00000  Uiso   1.00
H353   H     0.41520   0.39916   0.24258   0.00000  Uiso   1.00
H354   H     0.37621   0.40323   0.29010   0.00000  Uiso   1.00
H355   H     0.44629   0.39819   0.29868   0.00000  Uiso   1.00
H356   H     0.57688   0.57870   0.29904   0.00000  Uiso   1.00
H357   H     0.65034   0.54008   0.32522   0.00000  Uiso   1.00
H358   H     0.64901   0.54156   0.26594   0.00000  Uiso   1.00
H359   H     0.62427   0.49559   0.29125   0.00000  Uiso   1.00
H360   H     0.42337   0.42174   0.03364   0.00000  Uiso   1.00
H361   H     0.55188   0.38883   0.08291   0.00000  Uiso   1.00
H362   H     0.34929   0.45705   0.06521   0.00000  Uiso   1.00
H363   H     0.34994   0.45882   0.00560   0.00000  Uiso   1.00
H364   H     0.37373   0.50358   0.04071   0.00000  Uiso   1.00
H365   H     0.51209   0.38989   0.03071   0.00000  Uiso   1.00
H366   H     0.45739   0.61053   0.25209   0.00000  Uiso   1.00
H367   H     0.48887   0.33867   0.30296   0.00000  Uiso   1.00
H368   H     0.55448   0.65140   0.29738   0.00000  Uiso   1.00
H369   H     0.50400   0.62151   0.32063   0.00000  Uiso   1.00
H370   H     0.39052   0.63714   0.10085   0.00000  Uiso   1.00
N371   N     0.49999   0.49999   0.28573   0.00000  Uiso   1.00
N372   N     0.42400   0.45297   0.04124   0.00000  Uiso   1.00
N373   N     0.50001   0.50001   0.04760   0.00000  Uiso   1.00
N374   N     0.47153   0.37021   0.08534   0.00000  Uiso   1.00
N375   N     0.49320   0.62658   0.25178   0.00000  Uiso   1.00
N376   N     0.42591   0.62251   0.10232   0.00000  Uiso   1.00
N377   N     0.54169   0.37646   0.24463   0.00000  Uiso   1.00
N378   N     0.56055   0.55969   0.05178   0.00000  Uiso   1.00
N379   N     0.42151   0.45674   0.27730   0.00000  Uiso   1.00
N380   N     0.57534   0.54735   0.29164   0.00000  Uiso   1.00
O381   O     0.50000   0.43892   0.20487   0.00000  Uiso   1.00
O382   O     0.50000   0.56108   0.12846   0.00000  Uiso   1.00
O383   O     0.50000   0.43893   0.12843   0.00000  Uiso   1.00
O384   O     0.50000   0.56107   0.20490   0.00000  Uiso   1.00
O385   O     0.42392   0.50000   0.19595   0.00000  Uiso   1.00
O386   O     0.57608   0.50000   0.13739   0.00000  Uiso   1.00
O387   O     0.42392   0.50000   0.11950   0.00000  Uiso   1.00
O388   O     0.57608   0.50000   0.21383   0.00000  Uiso   1.00
Zn389  Zn    0.50000   0.49999   0.21771   0.00000  Uiso   1.00
Zn390  Zn    0.50000   0.50001   0.11563   0.00000  Uiso   1.00
Br391  Br    0.67700   0.57413   0.17875   0.00000  Uiso   1.00
Br392  Br    0.99862   0.42938   0.16602   0.00000  Uiso   1.00
C393   C     0.83534   0.41982   0.16631   0.00000  Uiso   1.00
C394   C     0.84669   0.35503   0.20731   0.00000  Uiso   1.00
C395   C     0.81921   0.62351   0.16977   0.00000  Uiso   1.00
C396   C     0.83435   0.37481   0.16623   0.00000  Uiso   1.00
C397   C     0.86722   0.52604   0.02676   0.00000  Uiso   1.00
C398   C     0.79624   0.47679   0.30565   0.00000  Uiso   1.00
C399   C     0.86946   0.52391   0.31236   0.00000  Uiso   1.00
C400   C     0.79652   0.47640   0.02060   0.00000  Uiso   1.00
C401   C     0.85250   0.37247   0.06184   0.00000  Uiso   1.00
C402   C     0.84476   0.64450   0.29520   0.00000  Uiso   1.00
C403   C     0.77289   0.60638   0.05934   0.00000  Uiso   1.00
C404   C     0.82796   0.57954   0.16729   0.00000  Uiso   1.00
C405   C     0.93157   0.38139   0.24477   0.00000  Uiso   1.00
C406   C     0.94594   0.55325   0.07163   0.00000  Uiso   1.00
C407   C     0.74800   0.41205   0.27736   0.00000  Uiso   1.00
C408   C     0.96046   0.53003   0.29392   0.00000  Uiso   1.00
C409   C     0.70502   0.46917   0.03773   0.00000  Uiso   1.00
C410   C     0.73543   0.50548   0.15709   0.00000  Uiso   1.00
C411   C     0.93227   0.49719   0.17657   0.00000  Uiso   1.00
C412   C     0.68328   0.51667   0.15990   0.00000  Uiso   1.00
C413   C     0.98537   0.48752   0.17531   0.00000  Uiso   1.00
C414   C     0.81194   0.35181   0.12789   0.00000  Uiso   1.00
C415   C     0.83336   0.64628   0.21008   0.00000  Uiso   1.00
C416   C     0.80000   0.64302   0.13134   0.00000  Uiso   1.00
H417   H     0.77272   0.35872   0.06508   0.00000  Uiso   1.00
H418   H     0.75283   0.62354   0.03171   0.00000  Uiso   1.00
H419   H     0.76004   0.57316   0.05534   0.00000  Uiso   1.00
H420   H     0.81572   0.60927   0.05701   0.00000  Uiso   1.00
H421   H     0.85619   0.39641   0.26494   0.00000  Uiso   1.00
H422   H     0.94663   0.36382   0.21618   0.00000  Uiso   1.00
H423   H     0.94270   0.41484   0.24335   0.00000  Uiso   1.00
H424   H     0.95013   0.36972   0.27647   0.00000  Uiso   1.00
H425   H     0.89166   0.58797   0.03703   0.00000  Uiso   1.00
H426   H     0.97558   0.57330   0.05641   0.00000  Uiso   1.00
H427   H     0.95649   0.52023   0.06899   0.00000  Uiso   1.00
H428   H     0.86493   0.34084   0.05304   0.00000  Uiso   1.00
H429   H     0.94616   0.56366   0.10679   0.00000  Uiso   1.00
H430   H     0.72096   0.47301   0.27228   0.00000  Uiso   1.00
H431   H     0.74853   0.39916   0.24258   0.00000  Uiso   1.00
H432   H     0.70955   0.40323   0.29010   0.00000  Uiso   1.00
H433   H     0.77962   0.39819   0.29868   0.00000  Uiso   1.00
H434   H     0.91022   0.57870   0.29904   0.00000  Uiso   1.00
H435   H     0.98367   0.54008   0.32522   0.00000  Uiso   1.00
H436   H     0.98235   0.54156   0.26594   0.00000  Uiso   1.00
H437   H     0.95760   0.49559   0.29125   0.00000  Uiso   1.00
H438   H     0.75671   0.42174   0.03364   0.00000  Uiso   1.00
H439   H     0.88522   0.38883   0.08291   0.00000  Uiso   1.00
H440   H     0.68263   0.45705   0.06521   0.00000  Uiso   1.00
H441   H     0.68328   0.45882   0.00560   0.00000  Uiso   1.00
H442   H     0.70706   0.50358   0.04071   0.00000  Uiso   1.00
H443   H     0.84542   0.38989   0.03071   0.00000  Uiso   1.00
H444   H     0.79073   0.61053   0.25209   0.00000  Uiso   1.00
H445   H     0.82220   0.33867   0.30296   0.00000  Uiso   1.00
H446   H     0.88782   0.65140   0.29738   0.00000  Uiso   1.00
H447   H     0.83733   0.62151   0.32063   0.00000  Uiso   1.00
H448   H     0.72385   0.63714   0.10085   0.00000  Uiso   1.00
N449   N     0.83332   0.49999   0.28573   0.00000  Uiso   1.00
N450   N     0.75733   0.45297   0.04124   0.00000  Uiso   1.00
N451   N     0.83335   0.50001   0.04760   0.00000  Uiso   1.00
N452   N     0.80486   0.37021   0.08534   0.00000  Uiso   1.00
N453   N     0.82653   0.62658   0.25178   0.00000  Uiso   1.00
N454   N     0.75925   0.62251   0.10232   0.00000  Uiso   1.00
N455   N     0.87502   0.37646   0.24463   0.00000  Uiso   1.00
N456   N     0.89389   0.55969   0.05178   0.00000  Uiso   1.00
N457   N     0.75484   0.45674   0.27730   0.00000  Uiso   1.00
N458   N     0.90868   0.54735   0.29164   0.00000  Uiso   1.00
O459   O     0.83333   0.43892   0.20487   0.00000  Uiso   1.00
O460   O     0.83334   0.56108   0.12846   0.00000  Uiso   1.00
O461   O     0.83333   0.43893   0.12843   0.00000  Uiso   1.00
O462   O     0.83334   0.56107   0.20490   0.00000  Uiso   1.00
O463   O     0.75725   0.50000   0.19595   0.00000  Uiso   1.00
O464   O     0.90942   0.50000   0.13739   0.00000  Uiso   1.00
O465   O     0.75725   0.50000   0.11950   0.00000  Uiso   1.00
O466   O     0.90942   0.50000   0.21383   0.00000  Uiso   1.00
Zn467  Zn    0.83333   0.49999   0.21771   0.00000  Uiso   1.00
Zn468  Zn    0.83333   0.50001   0.11563   0.00000  Uiso   1.00
Br469  Br    0.01034   0.90746   0.17875   0.00000  Uiso   1.00
Br470  Br    0.33195   0.76272   0.16602   0.00000  Uiso   1.00
C471   C     0.16867   0.75316   0.16631   0.00000  Uiso   1.00
C472   C     0.18002   0.68836   0.20731   0.00000  Uiso   1.00
C473   C     0.15254   0.95685   0.16977   0.00000  Uiso   1.00
C474   C     0.16769   0.70815   0.16623   0.00000  Uiso   1.00
C475   C     0.20055   0.85937   0.02676   0.00000  Uiso   1.00
C476   C     0.12958   0.81013   0.30565   0.00000  Uiso   1.00
C477   C     0.20279   0.85725   0.31236   0.00000  Uiso   1.00
C478   C     0.12986   0.80973   0.02060   0.00000  Uiso   1.00
C479   C     0.18584   0.70580   0.06184   0.00000  Uiso   1.00
C480   C     0.17810   0.97783   0.29520   0.00000  Uiso   1.00
C481   C     0.10622   0.93972   0.05934   0.00000  Uiso   1.00
C482   C     0.16129   0.91288   0.16729   0.00000  Uiso   1.00
C483   C     0.26490   0.71473   0.24477   0.00000  Uiso   1.00
C484   C     0.27927   0.88658   0.07163   0.00000  Uiso   1.00
C485   C     0.08133   0.74539   0.27736   0.00000  Uiso   1.00
C486   C     0.29379   0.86337   0.29392   0.00000  Uiso   1.00
C487   C     0.03836   0.80251   0.03773   0.00000  Uiso   1.00
C488   C     0.06877   0.83881   0.15709   0.00000  Uiso   1.00
C489   C     0.26561   0.83053   0.17657   0.00000  Uiso   1.00
C490   C     0.01661   0.85001   0.15990   0.00000  Uiso   1.00
C491   C     0.31870   0.82086   0.17531   0.00000  Uiso   1.00
C492   C     0.14527   0.68514   0.12789   0.00000  Uiso   1.00
C493   C     0.16670   0.97961   0.21008   0.00000  Uiso   1.00
C494   C     0.13334   0.97636   0.13134   0.00000  Uiso   1.00
H495   H     0.10605   0.69206   0.06508   0.00000  Uiso   1.00
H496   H     0.08617   0.95687   0.03171   0.00000  Uiso   1.00
H497   H     0.09338   0.90649   0.05534   0.00000  Uiso   1.00
H498   H     0.14905   0.94260   0.05701   0.00000  Uiso   1.00
H499   H     0.18953   0.72975   0.26494   0.00000  Uiso   1.00
H500   H     0.27996   0.69715   0.21618   0.00000  Uiso   1.00
H501   H     0.27604   0.74818   0.24335   0.00000  Uiso   1.00
H502   H     0.28347   0.70306   0.27647   0.00000  Uiso   1.00
H503   H     0.22499   0.92130   0.03703   0.00000  Uiso   1.00
H504   H     0.30892   0.90663   0.05641   0.00000  Uiso   1.00
H505   H     0.28982   0.85357   0.06899   0.00000  Uiso   1.00
H506   H     0.19826   0.67417   0.05304   0.00000  Uiso   1.00
H507   H     0.27949   0.89699   0.10679   0.00000  Uiso   1.00
H508   H     0.05429   0.80635   0.27228   0.00000  Uiso   1.00
H509   H     0.08187   0.73249   0.24258   0.00000  Uiso   1.00
H510   H     0.04288   0.73656   0.29010   0.00000  Uiso   1.00
H511   H     0.11296   0.73153   0.29868   0.00000  Uiso   1.00
H512   H     0.24355   0.91204   0.29904   0.00000  Uiso   1.00
H513   H     0.31700   0.87341   0.32522   0.00000  Uiso   1.00
H514   H     0.31568   0.87489   0.26594   0.00000  Uiso   1.00
H515   H     0.29093   0.82892   0.29125   0.00000  Uiso   1.00
H516   H     0.09004   0.75507   0.03364   0.00000  Uiso   1.00
H517   H     0.21855   0.72217   0.08291   0.00000  Uiso   1.00
H518   H     0.01596   0.79039   0.06521   0.00000  Uiso   1.00
H519   H     0.01661   0.79215   0.00560   0.00000  Uiso   1.00
H520   H     0.04039   0.83691   0.04071   0.00000  Uiso   1.00
H521   H     0.17875   0.72322   0.03071   0.00000  Uiso   1.00
H522   H     0.12406   0.94387   0.25209   0.00000  Uiso   1.00
H523   H     0.15553   0.67200   0.30296   0.00000  Uiso   1.00
H524   H     0.22115   0.98473   0.29738   0.00000  Uiso   1.00
H525   H     0.17067   0.95484   0.32063   0.00000  Uiso   1.00
H526   H     0.05718   0.97047   0.10085   0.00000  Uiso   1.00
N527   N     0.16665   0.83332   0.28573   0.00000  Uiso   1.00
N528   N     0.09067   0.78631   0.04124   0.00000  Uiso   1.00
N529   N     0.16668   0.83334   0.04760   0.00000  Uiso   1.00
N530   N     0.13819   0.70355   0.08534   0.00000  Uiso   1.00
N531   N     0.15986   0.95991   0.25178   0.00000  Uiso   1.00
N532   N     0.09258   0.95584   0.10232   0.00000  Uiso   1.00
N533   N     0.20835   0.70979   0.24463   0.00000  Uiso   1.00
N534   N     0.22722   0.89302   0.05178   0.00000  Uiso   1.00
N535   N     0.08818   0.79007   0.27730   0.00000  Uiso   1.00
N536   N     0.24201   0.88069   0.29164   0.00000  Uiso   1.00
O537   O     0.16666   0.77225   0.20487   0.00000  Uiso   1.00
O538   O     0.16667   0.89442   0.12846   0.00000  Uiso   1.00
O539   O     0.16666   0.77226   0.12843   0.00000  Uiso   1.00
O540   O     0.16667   0.89441   0.20490   0.00000  Uiso   1.00
O541   O     0.09058   0.83333   0.19595   0.00000  Uiso   1.00
O542   O     0.24275   0.83334   0.13739   0.00000  Uiso   1.00
O543   O     0.09058   0.83334   0.11950   0.00000  Uiso   1.00
O544   O     0.24275   0.83333   0.21383   0.00000  Uiso   1.00
Zn545  Zn    0.16667   0.83333   0.21771   0.00000  Uiso   1.00
Zn546  Zn    0.16667   0.83334   0.11563   0.00000  Uiso   1.00
Br547  Br    0.34367   0.90746   0.17875   0.00000  Uiso   1.00
Br548  Br    0.66528   0.76272   0.16602   0.00000  Uiso   1.00
C549   C     0.50201   0.75316   0.16631   0.00000  Uiso   1.00
C550   C     0.51336   0.68836   0.20731   0.00000  Uiso   1.00
C551   C     0.48587   0.95685   0.16977   0.00000  Uiso   1.00
C552   C     0.50102   0.70815   0.16623   0.00000  Uiso   1.00
C553   C     0.53388   0.85937   0.02676   0.00000  Uiso   1.00
C554   C     0.46291   0.81013   0.30565   0.00000  Uiso   1.00
C555   C     0.53612   0.85725   0.31236   0.00000  Uiso   1.00
C556   C     0.46319   0.80973   0.02060   0.00000  Uiso   1.00
C557   C     0.51917   0.70580   0.06184   0.00000  Uiso   1.00
C558   C     0.51143   0.97783   0.29520   0.00000  Uiso   1.00
C559   C     0.43955   0.93972   0.05934   0.00000  Uiso   1.00
C560   C     0.49463   0.91288   0.16729   0.00000  Uiso   1.00
C561   C     0.59823   0.71473   0.24477   0.00000  Uiso   1.00
C562   C     0.61261   0.88658   0.07163   0.00000  Uiso   1.00
C563   C     0.41467   0.74539   0.27736   0.00000  Uiso   1.00
C564   C     0.62712   0.86337   0.29392   0.00000  Uiso   1.00
C565   C     0.37169   0.80251   0.03773   0.00000  Uiso   1.00
C566   C     0.40210   0.83881   0.15709   0.00000  Uiso   1.00
C567   C     0.59894   0.83053   0.17657   0.00000  Uiso   1.00
C568   C     0.34994   0.85001   0.15990   0.00000  Uiso   1.00
C569   C     0.65204   0.82086   0.17531   0.00000  Uiso   1.00
C570   C     0.47860   0.68514   0.12789   0.00000  Uiso   1.00
C571   C     0.50003   0.97961   0.21008   0.00000  Uiso   1.00
C572   C     0.46667   0.97636   0.13134   0.00000  Uiso   1.00
H573   H     0.43939   0.69206   0.06508   0.00000  Uiso   1.00
H574   H     0.41950   0.95687   0.03171   0.00000  Uiso   1.00
H575   H     0.42671   0.90649   0.05534   0.00000  Uiso   1.00
H576   H     0.48239   0.94260   0.05701   0.00000  Uiso   1.00
H577   H     0.52286   0.72975   0.26494   0.00000  Uiso   1.00
H578   H     0.61329   0.69715   0.21618   0.00000  Uiso   1.00
H579   H     0.60937   0.74818   0.24335   0.00000  Uiso   1.00
H580   H     0.61680   0.70306   0.27647   0.00000  Uiso   1.00
H581   H     0.55832   0.92130   0.03703   0.00000  Uiso   1.00
H582   H     0.64225   0.90663   0.05641   0.00000  Uiso   1.00
H583   H     0.62315   0.85357   0.06899   0.00000  Uiso   1.00
H584   H     0.53159   0.67417   0.05304   0.00000  Uiso   1.00
H585   H     0.61283   0.89699   0.10679   0.00000  Uiso   1.00
H586   H     0.38762   0.80635   0.27228   0.00000  Uiso   1.00
H587   H     0.41520   0.73249   0.24258   0.00000  Uiso   1.00
H588   H     0.37621   0.73656   0.29010   0.00000  Uiso   1.00
H589   H     0.44629   0.73153   0.29868   0.00000  Uiso   1.00
H590   H     0.57688   0.91204   0.29904   0.00000  Uiso   1.00
H591   H     0.65034   0.87341   0.32522   0.00000  Uiso   1.00
H592   H     0.64901   0.87489   0.26594   0.00000  Uiso   1.00
H593   H     0.62427   0.82892   0.29125   0.00000  Uiso   1.00
H594   H     0.42337   0.75507   0.03364   0.00000  Uiso   1.00
H595   H     0.55188   0.72217   0.08291   0.00000  Uiso   1.00
H596   H     0.34929   0.79039   0.06521   0.00000  Uiso   1.00
H597   H     0.34994   0.79215   0.00560   0.00000  Uiso   1.00
H598   H     0.37373   0.83691   0.04071   0.00000  Uiso   1.00
H599   H     0.51209   0.72322   0.03071   0.00000  Uiso   1.00
H600   H     0.45739   0.94387   0.25209   0.00000  Uiso   1.00
H601   H     0.48887   0.67200   0.30296   0.00000  Uiso   1.00
H602   H     0.55448   0.98473   0.29738   0.00000  Uiso   1.00
H603   H     0.50400   0.95484   0.32063   0.00000  Uiso   1.00
H604   H     0.39052   0.97047   0.10085   0.00000  Uiso   1.00
N605   N     0.49999   0.83332   0.28573   0.00000  Uiso   1.00
N606   N     0.42400   0.78631   0.04124   0.00000  Uiso   1.00
N607   N     0.50001   0.83334   0.04760   0.00000  Uiso   1.00
N608   N     0.47153   0.70355   0.08534   0.00000  Uiso   1.00
N609   N     0.49320   0.95991   0.25178   0.00000  Uiso   1.00
N610   N     0.42591   0.95584   0.10232   0.00000  Uiso   1.00
N611   N     0.54169   0.70979   0.24463   0.00000  Uiso   1.00
N612   N     0.56055   0.89302   0.05178   0.00000  Uiso   1.00
N613   N     0.42151   0.79007   0.27730   0.00000  Uiso   1.00
N614   N     0.57534   0.88069   0.29164   0.00000  Uiso   1.00
O615   O     0.50000   0.77225   0.20487   0.00000  Uiso   1.00
O616   O     0.50000   0.89442   0.12846   0.00000  Uiso   1.00
O617   O     0.50000   0.77226   0.12843   0.00000  Uiso   1.00
O618   O     0.50000   0.89441   0.20490   0.00000  Uiso   1.00
O619   O     0.42392   0.83333   0.19595   0.00000  Uiso   1.00
O620   O     0.57608   0.83334   0.13739   0.00000  Uiso   1.00
O621   O     0.42392   0.83334   0.11950   0.00000  Uiso   1.00
O622   O     0.57608   0.83333   0.21383   0.00000  Uiso   1.00
Zn623  Zn    0.50000   0.83333   0.21771   0.00000  Uiso   1.00
Zn624  Zn    0.50000   0.83334   0.11563   0.00000  Uiso   1.00
Br625  Br    0.67700   0.90746   0.17875   0.00000  Uiso   1.00
Br626  Br    0.99862   0.76272   0.16602   0.00000  Uiso   1.00
C627   C     0.83534   0.75316   0.16631   0.00000  Uiso   1.00
C628   C     0.84669   0.68836   0.20731   0.00000  Uiso   1.00
C629   C     0.81921   0.95685   0.16977   0.00000  Uiso   1.00
C630   C     0.83435   0.70815   0.16623   0.00000  Uiso   1.00
C631   C     0.86722   0.85937   0.02676   0.00000  Uiso   1.00
C632   C     0.79624   0.81013   0.30565   0.00000  Uiso   1.00
C633   C     0.86946   0.85725   0.31236   0.00000  Uiso   1.00
C634   C     0.79652   0.80973   0.02060   0.00000  Uiso   1.00
C635   C     0.85250   0.70580   0.06184   0.00000  Uiso   1.00
C636   C     0.84476   0.97783   0.29520   0.00000  Uiso   1.00
C637   C     0.77289   0.93972   0.05934   0.00000  Uiso   1.00
C638   C     0.82796   0.91288   0.16729   0.00000  Uiso   1.00
C639   C     0.93157   0.71473   0.24477   0.00000  Uiso   1.00
C640   C     0.94594   0.88658   0.07163   0.00000  Uiso   1.00
C641   C     0.74800   0.74539   0.27736   0.00000  Uiso   1.00
C642   C     0.96046   0.86337   0.29392   0.00000  Uiso   1.00
C643   C     0.70502   0.80251   0.03773   0.00000  Uiso   1.00
C644   C     0.73543   0.83881   0.15709   0.00000  Uiso   1.00
C645   C     0.93227   0.83053   0.17657   0.00000  Uiso   1.00
C646   C     0.68328   0.85001   0.15990   0.00000  Uiso   1.00
C647   C     0.98537   0.82086   0.17531   0.00000  Uiso   1.00
C648   C     0.81194   0.68514   0.12789   0.00000  Uiso   1.00
C649   C     0.83336   0.97961   0.21008   0.00000  Uiso   1.00
C650   C     0.80000   0.97636   0.13134   0.00000  Uiso   1.00
H651   H     0.77272   0.69206   0.06508   0.00000  Uiso   1.00
H652   H     0.75283   0.95687   0.03171   0.00000  Uiso   1.00
H653   H     0.76004   0.90649   0.05534   0.00000  Uiso   1.00
H654   H     0.81572   0.94260   0.05701   0.00000  Uiso   1.00
H655   H     0.85619   0.72975   0.26494   0.00000  Uiso   1.00
H656   H     0.94663   0.69715   0.21618   0.00000  Uiso   1.00
H657   H     0.94270   0.74818   0.24335   0.00000  Uiso   1.00
H658   H     0.95013   0.70306   0.27647   0.00000  Uiso   1.00
H659   H     0.89166   0.92130   0.03703   0.00000  Uiso   1.00
H660   H     0.97558   0.90663   0.05641   0.00000  Uiso   1.00
H661   H     0.95649   0.85357   0.06899   0.00000  Uiso   1.00
H662   H     0.86493   0.67417   0.05304   0.00000  Uiso   1.00
H663   H     0.94616   0.89699   0.10679   0.00000  Uiso   1.00
H664   H     0.72096   0.80635   0.27228   0.00000  Uiso   1.00
H665   H     0.74853   0.73249   0.24258   0.00000  Uiso   1.00
H666   H     0.70955   0.73656   0.29010   0.00000  Uiso   1.00
H667   H     0.77962   0.73153   0.29868   0.00000  Uiso   1.00
H668   H     0.91022   0.91204   0.29904   0.00000  Uiso   1.00
H669   H     0.98367   0.87341   0.32522   0.00000  Uiso   1.00
H670   H     0.98235   0.87489   0.26594   0.00000  Uiso   1.00
H671   H     0.95760   0.82892   0.29125   0.00000  Uiso   1.00
H672   H     0.75671   0.75507   0.03364   0.00000  Uiso   1.00
H673   H     0.88522   0.72217   0.08291   0.00000  Uiso   1.00
H674   H     0.68263   0.79039   0.06521   0.00000  Uiso   1.00
H675   H     0.68328   0.79215   0.00560   0.00000  Uiso   1.00
H676   H     0.70706   0.83691   0.04071   0.00000  Uiso   1.00
H677   H     0.84542   0.72322   0.03071   0.00000  Uiso   1.00
H678   H     0.79073   0.94387   0.25209   0.00000  Uiso   1.00
H679   H     0.82220   0.67200   0.30296   0.00000  Uiso   1.00
H680   H     0.88782   0.98473   0.29738   0.00000  Uiso   1.00
H681   H     0.83733   0.95484   0.32063   0.00000  Uiso   1.00
H682   H     0.72385   0.97047   0.10085   0.00000  Uiso   1.00
N683   N     0.83332   0.83332   0.28573   0.00000  Uiso   1.00
N684   N     0.75733   0.78631   0.04124   0.00000  Uiso   1.00
N685   N     0.83335   0.83334   0.04760   0.00000  Uiso   1.00
N686   N     0.80486   0.70355   0.08534   0.00000  Uiso   1.00
N687   N     0.82653   0.95991   0.25178   0.00000  Uiso   1.00
N688   N     0.75925   0.95584   0.10232   0.00000  Uiso   1.00
N689   N     0.87502   0.70979   0.24463   0.00000  Uiso   1.00
N690   N     0.89389   0.89302   0.05178   0.00000  Uiso   1.00
N691   N     0.75484   0.79007   0.27730   0.00000  Uiso   1.00
N692   N     0.90868   0.88069   0.29164   0.00000  Uiso   1.00
O693   O     0.83333   0.77225   0.20487   0.00000  Uiso   1.00
O694   O     0.83334   0.89442   0.12846   0.00000  Uiso   1.00
O695   O     0.83333   0.77226   0.12843   0.00000  Uiso   1.00
O696   O     0.83334   0.89441   0.20490   0.00000  Uiso   1.00
O697   O     0.75725   0.83333   0.19595   0.00000  Uiso   1.00
O698   O     0.90942   0.83334   0.13739   0.00000  Uiso   1.00
O699   O     0.75725   0.83334   0.11950   0.00000  Uiso   1.00
O700   O     0.90942   0.83333   0.21383   0.00000  Uiso   1.00
Zn701  Zn    0.83333   0.83333   0.21771   0.00000  Uiso   1.00
Zn702  Zn    0.83333   0.83334   0.11563   0.00000  Uiso   1.00
Br703  Br    0.01034   0.24079   0.51208   0.00000  Uiso   1.00
Br704  Br    0.33195   0.09605   0.49935   0.00000  Uiso   1.00
C705   C     0.16867   0.08649   0.49964   0.00000  Uiso   1.00
C706   C     0.18002   0.02169   0.54064   0.00000  Uiso   1.00
C707   C     0.15254   0.29018   0.50310   0.00000  Uiso   1.00
C708   C     0.16769   0.04148   0.49957   0.00000  Uiso   1.00
C709   C     0.20055   0.19270   0.36010   0.00000  Uiso   1.00
C710   C     0.12958   0.14346   0.63898   0.00000  Uiso   1.00
C711   C     0.20279   0.19058   0.64569   0.00000  Uiso   1.00
C712   C     0.12986   0.14306   0.35393   0.00000  Uiso   1.00
C713   C     0.18584   0.03913   0.39517   0.00000  Uiso   1.00
C714   C     0.17810   0.31116   0.62853   0.00000  Uiso   1.00
C715   C     0.10622   0.27305   0.39268   0.00000  Uiso   1.00
C716   C     0.16129   0.24621   0.50062   0.00000  Uiso   1.00
C717   C     0.26490   0.04806   0.57810   0.00000  Uiso   1.00
C718   C     0.27927   0.21991   0.40496   0.00000  Uiso   1.00
C719   C     0.08133   0.07872   0.61070   0.00000  Uiso   1.00
C720   C     0.29379   0.19670   0.62725   0.00000  Uiso   1.00
C721   C     0.03836   0.13584   0.37106   0.00000  Uiso   1.00
C722   C     0.06877   0.17215   0.49042   0.00000  Uiso   1.00
C723   C     0.26561   0.16386   0.50990   0.00000  Uiso   1.00
C724   C     0.01661   0.18334   0.49323   0.00000  Uiso   1.00
C725   C     0.31870   0.15419   0.50864   0.00000  Uiso   1.00
C726   C     0.14527   0.01847   0.46122   0.00000  Uiso   1.00
C727   C     0.16670   0.31294   0.54342   0.00000  Uiso   1.00
C728   C     0.13334   0.30969   0.46468   0.00000  Uiso   1.00
H729   H     0.10605   0.02539   0.39842   0.00000  Uiso   1.00
H730   H     0.08617   0.29020   0.36504   0.00000  Uiso   1.00
H731   H     0.09338   0.23983   0.38867   0.00000  Uiso   1.00
H732   H     0.14905   0.27594   0.39035   0.00000  Uiso   1.00
H733   H     0.18953   0.06308   0.59827   0.00000  Uiso   1.00
H734   H     0.27996   0.03049   0.54952   0.00000  Uiso   1.00
H735   H     0.27604   0.08151   0.57668   0.00000  Uiso   1.00
H736   H     0.28347   0.03639   0.60980   0.00000  Uiso   1.00
H737   H     0.22499   0.25463   0.37037   0.00000  Uiso   1.00
H738   H     0.30892   0.23997   0.38974   0.00000  Uiso   1.00
H739   H     0.28982   0.18690   0.40233   0.00000  Uiso   1.00
H740   H     0.19826   0.00750   0.38637   0.00000  Uiso   1.00
H741   H     0.27949   0.23033   0.44012   0.00000  Uiso   1.00
H742   H     0.05429   0.13968   0.60561   0.00000  Uiso   1.00
H743   H     0.08187   0.06582   0.57591   0.00000  Uiso   1.00
H744   H     0.04288   0.06989   0.62343   0.00000  Uiso   1.00
H745   H     0.11296   0.06486   0.63201   0.00000  Uiso   1.00
H746   H     0.24355   0.24537   0.63237   0.00000  Uiso   1.00
H747   H     0.31700   0.20675   0.65855   0.00000  Uiso   1.00
H748   H     0.31568   0.20823   0.59928   0.00000  Uiso   1.00
H749   H     0.29093   0.16225   0.62458   0.00000  Uiso   1.00
H750   H     0.09004   0.08841   0.36698   0.00000  Uiso   1.00
H751   H     0.21855   0.05550   0.41624   0.00000  Uiso   1.00
H752   H     0.01596   0.12372   0.39854   0.00000  Uiso   1.00
H753   H     0.01661   0.12548   0.33894   0.00000  Uiso   1.00
H754   H     0.04039   0.17024   0.37405   0.00000  Uiso   1.00
H755   H     0.17875   0.05655   0.36404   0.00000  Uiso   1.00
H756   H     0.12406   0.27720   0.58542   0.00000  Uiso   1.00
H757   H     0.15553   0.00534   0.63629   0.00000  Uiso   1.00
H758   H     0.22115   0.31807   0.63072   0.00000  Uiso   1.00
H759   H     0.17067   0.28818   0.65397   0.00000  Uiso   1.00
H760   H     0.05718   0.30380   0.43419   0.00000  Uiso   1.00
N761   N     0.16665   0.16666   0.61907   0.00000  Uiso   1.00
N762   N     0.09067   0.11964   0.37457   0.00000  Uiso   1.00
N763   N     0.16668   0.16668   0.38093   0.00000  Uiso   1.00
N764   N     0.13819   0.03688   0.41867   0.00000  Uiso   1.00
N765   N     0.15986   0.29324   0.58511   0.00000  Uiso   1.00
N766   N     0.09258   0.28917   0.43565   0.00000  Uiso   1.00
N767   N     0.20835   0.04312   0.57797   0.00000  Uiso   1.00
N768   N     0.22722   0.22635   0.38512   0.00000  Uiso   1.00
N769   N     0.08818   0.12341   0.61064   0.00000  Uiso   1.00
N770   N     0.24201   0.21402   0.62498   0.00000  Uiso   1.00
O771   O     0.16666   0.10558   0.53821   0.00000  Uiso   1.00
O772   O     0.16667   0.22775   0.46179   0.00000  Uiso   1.00
O773   O     0.16666   0.10559   0.46176   0.00000  Uiso   1.00
O774   O     0.16667   0.22774   0.53824   0.00000  Uiso   1.00
O775   O     0.09058   0.16666   0.52928   0.00000  Uiso   1.00
O776   O     0.24275   0.16667   0.47072   0.00000  Uiso   1.00
O777   O     0.09058   0.16667   0.45284   0.00000  Uiso   1.00
O778   O     0.24275   0.16666   0.54716   0.00000  Uiso   1.00
Zn779  Zn    0.16667   0.16666   0.55104   0.00000  Uiso   1.00
Zn780  Zn    0.16667   0.16667   0.44896   0.00000  Uiso   1.00
Br781  Br    0.34367   0.24079   0.51208   0.00000  Uiso   1.00
Br782  Br    0.66528   0.09605   0.49935   0.00000  Uiso   1.00
C783   C     0.50201   0.08649   0.49964   0.00000  Uiso   1.00
C784   C     0.51336   0.02169   0.54064   0.00000  Uiso   1.00
C785   C     0.48587   0.29018   0.50310   0.00000  Uiso   1.00
C786   C     0.50102   0.04148   0.49957   0.00000  Uiso   1.00
C787   C     0.53388   0.19270   0.36010   0.00000  Uiso   1.00
C788   C     0.46291   0.14346   0.63898   0.00000  Uiso   1.00
C789   C     0.53612   0.19058   0.64569   0.00000  Uiso   1.00
C790   C     0.46319   0.14306   0.35393   0.00000  Uiso   1.00
C791   C     0.51917   0.03913   0.39517   0.00000  Uiso   1.00
C792   C     0.51143   0.31116   0.62853   0.00000  Uiso   1.00
C793   C     0.43955   0.27305   0.39268   0.00000  Uiso   1.00
C794   C     0.49463   0.24621   0.50062   0.00000  Uiso   1.00
C795   C     0.59823   0.04806   0.57810   0.00000  Uiso   1.00
C796   C     0.61261   0.21991   0.40496   0.00000  Uiso   1.00
C797   C     0.41467   0.07872   0.61070   0.00000  Uiso   1.00
C798   C     0.62712   0.19670   0.62725   0.00000  Uiso   1.00
C799   C     0.37169   0.13584   0.37106   0.00000  Uiso   1.00
C800   C     0.40210   0.17215   0.49042   0.00000  Uiso   1.00
C801   C     0.59894   0.16386   0.50990   0.00000  Uiso   1.00
C802   C     0.34994   0.18334   0.49323   0.00000  Uiso   1.00
C803   C     0.65204   0.15419   0.50864   0.00000  Uiso   1.00
C804   C     0.47860   0.01847   0.46122   0.00000  Uiso   1.00
C805   C     0.50003   0.31294   0.54342   0.00000  Uiso   1.00
C806   C     0.46667   0.30969   0.46468   0.00000  Uiso   1.00
H807   H     0.43939   0.02539   0.39842   0.00000  Uiso   1.00
H808   H     0.41950   0.29020   0.36504   0.00000  Uiso   1.00
H809   H     0.42671   0.23983   0.38867   0.00000  Uiso   1.00
H810   H     0.48239   0.27594   0.39035   0.00000  Uiso   1.00
H811   H     0.52286   0.06308   0.59827   0.00000  Uiso   1.00
H812   H     0.61329   0.03049   0.54952   0.00000  Uiso   1.00
H813   H     0.60937   0.08151   0.57668   0.00000  Uiso   1.00
H814   H     0.61680   0.03639   0.60980   0.00000  Uiso   1.00
H815   H     0.55832   0.25463   0.37037   0.00000  Uiso   1.00
H816   H     0.64225   0.23997   0.38974   0.00000  Uiso   1.00
H817   H     0.62315   0.18690   0.40233   0.00000  Uiso   1.00
H818   H     0.53159   0.00750   0.38637   0.00000  Uiso   1.00
H819   H     0.61283   0.23033   0.44012   0.00000  Uiso   1.00
H820   H     0.38762   0.13968   0.60561   0.00000  Uiso   1.00
H821   H     0.41520   0.06582   0.57591   0.00000  Uiso   1.00
H822   H     0.37621   0.06989   0.62343   0.00000  Uiso   1.00
H823   H     0.44629   0.06486   0.63201   0.00000  Uiso   1.00
H824   H     0.57688   0.24537   0.63237   0.00000  Uiso   1.00
H825   H     0.65034   0.20675   0.65855   0.00000  Uiso   1.00
H826   H     0.64901   0.20823   0.59928   0.00000  Uiso   1.00
H827   H     0.62427   0.16225   0.62458   0.00000  Uiso   1.00
H828   H     0.42337   0.08841   0.36698   0.00000  Uiso   1.00
H829   H     0.55188   0.05550   0.41624   0.00000  Uiso   1.00
H830   H     0.34929   0.12372   0.39854   0.00000  Uiso   1.00
H831   H     0.34994   0.12548   0.33894   0.00000  Uiso   1.00
H832   H     0.37373   0.17024   0.37405   0.00000  Uiso   1.00
H833   H     0.51209   0.05655   0.36404   0.00000  Uiso   1.00
H834   H     0.45739   0.27720   0.58542   0.00000  Uiso   1.00
H835   H     0.48887   0.00534   0.63629   0.00000  Uiso   1.00
H836   H     0.55448   0.31807   0.63072   0.00000  Uiso   1.00
H837   H     0.50400   0.28818   0.65397   0.00000  Uiso   1.00
H838   H     0.39052   0.30380   0.43419   0.00000  Uiso   1.00
N839   N     0.49999   0.16666   0.61907   0.00000  Uiso   1.00
N840   N     0.42400   0.11964   0.37457   0.00000  Uiso   1.00
N841   N     0.50001   0.16668   0.38093   0.00000  Uiso   1.00
N842   N     0.47153   0.03688   0.41867   0.00000  Uiso   1.00
N843   N     0.49320   0.29324   0.58511   0.00000  Uiso   1.00
N844   N     0.42591   0.28917   0.43565   0.00000  Uiso   1.00
N845   N     0.54169   0.04312   0.57797   0.00000  Uiso   1.00
N846   N     0.56055   0.22635   0.38512   0.00000  Uiso   1.00
N847   N     0.42151   0.12341   0.61064   0.00000  Uiso   1.00
N848   N     0.57534   0.21402   0.62498   0.00000  Uiso   1.00
O849   O     0.50000   0.10558   0.53821   0.00000  Uiso   1.00
O850   O     0.50000   0.22775   0.46179   0.00000  Uiso   1.00
O851   O     0.50000   0.10559   0.46176   0.00000  Uiso   1.00
O852   O     0.50000   0.22774   0.53824   0.00000  Uiso   1.00
O853   O     0.42392   0.16666   0.52928   0.00000  Uiso   1.00
O854   O     0.57608   0.16667   0.47072   0.00000  Uiso   1.00
O855   O     0.42392   0.16667   0.45284   0.00000  Uiso   1.00
O856   O     0.57608   0.16666   0.54716   0.00000  Uiso   1.00
Zn857  Zn    0.50000   0.16666   0.55104   0.00000  Uiso   1.00
Zn858  Zn    0.50000   0.16667   0.44896   0.00000  Uiso   1.00
Br859  Br    0.67700   0.24079   0.51208   0.00000  Uiso   1.00
Br860  Br    0.99862   0.09605   0.49935   0.00000  Uiso   1.00
C861   C     0.83534   0.08649   0.49964   0.00000  Uiso   1.00
C862   C     0.84669   0.02169   0.54064   0.00000  Uiso   1.00
C863   C     0.81921   0.29018   0.50310   0.00000  Uiso   1.00
C864   C     0.83435   0.04148   0.49957   0.00000  Uiso   1.00
C865   C     0.86722   0.19270   0.36010   0.00000  Uiso   1.00
C866   C     0.79624   0.14346   0.63898   0.00000  Uiso   1.00
C867   C     0.86946   0.19058   0.64569   0.00000  Uiso   1.00
C868   C     0.79652   0.14306   0.35393   0.00000  Uiso   1.00
C869   C     0.85250   0.03913   0.39517   0.00000  Uiso   1.00
C870   C     0.84476   0.31116   0.62853   0.00000  Uiso   1.00
C871   C     0.77289   0.27305   0.39268   0.00000  Uiso   1.00
C872   C     0.82796   0.24621   0.50062   0.00000  Uiso   1.00
C873   C     0.93157   0.04806   0.57810   0.00000  Uiso   1.00
C874   C     0.94594   0.21991   0.40496   0.00000  Uiso   1.00
C875   C     0.74800   0.07872   0.61070   0.00000  Uiso   1.00
C876   C     0.96046   0.19670   0.62725   0.00000  Uiso   1.00
C877   C     0.70502   0.13584   0.37106   0.00000  Uiso   1.00
C878   C     0.73543   0.17215   0.49042   0.00000  Uiso   1.00
C879   C     0.93227   0.16386   0.50990   0.00000  Uiso   1.00
C880   C     0.68328   0.18334   0.49323   0.00000  Uiso   1.00
C881   C     0.98537   0.15419   0.50864   0.00000  Uiso   1.00
C882   C     0.81194   0.01847   0.46122   0.00000  Uiso   1.00
C883   C     0.83336   0.31294   0.54342   0.00000  Uiso   1.00
C884   C     0.80000   0.30969   0.46468   0.00000  Uiso   1.00
H885   H     0.77272   0.02539   0.39842   0.00000  Uiso   1.00
H886   H     0.75283   0.29020   0.36504   0.00000  Uiso   1.00
H887   H     0.76004   0.23983   0.38867   0.00000  Uiso   1.00
H888   H     0.81572   0.27594   0.39035   0.00000  Uiso   1.00
H889   H     0.85619   0.06308   0.59827   0.00000  Uiso   1.00
H890   H     0.94663   0.03049   0.54952   0.00000  Uiso   1.00
H891   H     0.94270   0.08151   0.57668   0.00000  Uiso   1.00
H892   H     0.95013   0.03639   0.60980   0.00000  Uiso   1.00
H893   H     0.89166   0.25463   0.37037   0.00000  Uiso   1.00
H894   H     0.97558   0.23997   0.38974   0.00000  Uiso   1.00
H895   H     0.95649   0.18690   0.40233   0.00000  Uiso   1.00
H896   H     0.86493   0.00750   0.38637   0.00000  Uiso   1.00
H897   H     0.94616   0.23033   0.44012   0.00000  Uiso   1.00
H898   H     0.72096   0.13968   0.60561   0.00000  Uiso   1.00
H899   H     0.74853   0.06582   0.57591   0.00000  Uiso   1.00
H900   H     0.70955   0.06989   0.62343   0.00000  Uiso   1.00
H901   H     0.77962   0.06486   0.63201   0.00000  Uiso   1.00
H902   H     0.91022   0.24537   0.63237   0.00000  Uiso   1.00
H903   H     0.98367   0.20675   0.65855   0.00000  Uiso   1.00
H904   H     0.98235   0.20823   0.59928   0.00000  Uiso   1.00
H905   H     0.95760   0.16225   0.62458   0.00000  Uiso   1.00
H906   H     0.75671   0.08841   0.36698   0.00000  Uiso   1.00
H907   H     0.88522   0.05550   0.41624   0.00000  Uiso   1.00
H908   H     0.68263   0.12372   0.39854   0.00000  Uiso   1.00
H909   H     0.68328   0.12548   0.33894   0.00000  Uiso   1.00
H910   H     0.70706   0.17024   0.37405   0.00000  Uiso   1.00
H911   H     0.84542   0.05655   0.36404   0.00000  Uiso   1.00
H912   H     0.79073   0.27720   0.58542   0.00000  Uiso   1.00
H913   H     0.82220   0.00534   0.63629   0.00000  Uiso   1.00
H914   H     0.88782   0.31807   0.63072   0.00000  Uiso   1.00
H915   H     0.83733   0.28818   0.65397   0.00000  Uiso   1.00
H916   H     0.72385   0.30380   0.43419   0.00000  Uiso   1.00
N917   N     0.83332   0.16666   0.61907   0.00000  Uiso   1.00
N918   N     0.75733   0.11964   0.37457   0.00000  Uiso   1.00
N919   N     0.83335   0.16668   0.38093   0.00000  Uiso   1.00
N920   N     0.80486   0.03688   0.41867   0.00000  Uiso   1.00
N921   N     0.82653   0.29324   0.58511   0.00000  Uiso   1.00
N922   N     0.75925   0.28917   0.43565   0.00000  Uiso   1.00
N923   N     0.87502   0.04312   0.57797   0.00000  Uiso   1.00
N924   N     0.89389   0.22635   0.38512   0.00000  Uiso   1.00
N925   N     0.75484   0.12341   0.61064   0.00000  Uiso   1.00
N926   N     0.90868   0.21402   0.62498   0.00000  Uiso   1.00
O927   O     0.83333   0.10558   0.53821   0.00000  Uiso   1.00
O928   O     0.83334   0.22775   0.46179   0.00000  Uiso   1.00
O929   O     0.83333   0.10559   0.46176   0.00000  Uiso   1.00
O930   O     0.83334   0.22774   0.53824   0.00000  Uiso   1.00
O931   O     0.75725   0.16666   0.52928   0.00000  Uiso   1.00
O932   O     0.90942   0.16667   0.47072   0.00000  Uiso   1.00
O933   O     0.75725   0.16667   0.45284   0.00000  Uiso   1.00
O934   O     0.90942   0.16666   0.54716   0.00000  Uiso   1.00
Zn935  Zn    0.83333   0.16666   0.55104   0.00000  Uiso   1.00
Zn936  Zn    0.83333   0.16667   0.44896   0.00000  Uiso   1.00
Br937  Br    0.01034   0.57413   0.51208   0.00000  Uiso   1.00
Br938  Br    0.33195   0.42938   0.49935   0.00000  Uiso   1.00
C939   C     0.16867   0.41982   0.49964   0.00000  Uiso   1.00
C940   C     0.18002   0.35503   0.54064   0.00000  Uiso   1.00
C941   C     0.15254   0.62351   0.50310   0.00000  Uiso   1.00
C942   C     0.16769   0.37481   0.49957   0.00000  Uiso   1.00
C943   C     0.20055   0.52604   0.36010   0.00000  Uiso   1.00
C944   C     0.12958   0.47679   0.63898   0.00000  Uiso   1.00
C945   C     0.20279   0.52391   0.64569   0.00000  Uiso   1.00
C946   C     0.12986   0.47640   0.35393   0.00000  Uiso   1.00
C947   C     0.18584   0.37247   0.39517   0.00000  Uiso   1.00
C948   C     0.17810   0.64450   0.62853   0.00000  Uiso   1.00
C949   C     0.10622   0.60638   0.39268   0.00000  Uiso   1.00
C950   C     0.16129   0.57954   0.50062   0.00000  Uiso   1.00
C951   C     0.26490   0.38139   0.57810   0.00000  Uiso   1.00
C952   C     0.27927   0.55325   0.40496   0.00000  Uiso   1.00
C953   C     0.08133   0.41205   0.61070   0.00000  Uiso   1.00
C954   C     0.29379   0.53003   0.62725   0.00000  Uiso   1.00
C955   C     0.03836   0.46917   0.37106   0.00000  Uiso   1.00
C956   C     0.06877   0.50548   0.49042   0.00000  Uiso   1.00
C957   C     0.26561   0.49719   0.50990   0.00000  Uiso   1.00
C958   C     0.01661   0.51667   0.49323   0.00000  Uiso   1.00
C959   C     0.31870   0.48752   0.50864   0.00000  Uiso   1.00
C960   C     0.14527   0.35181   0.46122   0.00000  Uiso   1.00
C961   C     0.16670   0.64628   0.54342   0.00000  Uiso   1.00
C962   C     0.13334   0.64302   0.46468   0.00000  Uiso   1.00
H963   H     0.10605   0.35872   0.39842   0.00000  Uiso   1.00
H964   H     0.08617   0.62354   0.36504   0.00000  Uiso   1.00
H965   H     0.09338   0.57316   0.38867   0.00000  Uiso   1.00
H966   H     0.14905   0.60927   0.39035   0.00000  Uiso   1.00
H967   H     0.18953   0.39641   0.59827   0.00000  Uiso   1.00
H968   H     0.27996   0.36382   0.54952   0.00000  Uiso   1.00
H969   H     0.27604   0.41484   0.57668   0.00000  Uiso   1.00
H970   H     0.28347   0.36972   0.60980   0.00000  Uiso   1.00
H971   H     0.22499   0.58797   0.37037   0.00000  Uiso   1.00
H972   H     0.30892   0.57330   0.38974   0.00000  Uiso   1.00
H973   H     0.28982   0.52023   0.40233   0.00000  Uiso   1.00
H974   H     0.19826   0.34084   0.38637   0.00000  Uiso   1.00
H975   H     0.27949   0.56366   0.44012   0.00000  Uiso   1.00
H976   H     0.05429   0.47301   0.60561   0.00000  Uiso   1.00
H977   H     0.08187   0.39916   0.57591   0.00000  Uiso   1.00
H978   H     0.04288   0.40323   0.62343   0.00000  Uiso   1.00
H979   H     0.11296   0.39819   0.63201   0.00000  Uiso   1.00
H980   H     0.24355   0.57870   0.63237   0.00000  Uiso   1.00
H981   H     0.31700   0.54008   0.65855   0.00000  Uiso   1.00
H982   H     0.31568   0.54156   0.59928   0.00000  Uiso   1.00
H983   H     0.29093   0.49559   0.62458   0.00000  Uiso   1.00
H984   H     0.09004   0.42174   0.36698   0.00000  Uiso   1.00
H985   H     0.21855   0.38883   0.41624   0.00000  Uiso   1.00
H986   H     0.01596   0.45705   0.39854   0.00000  Uiso   1.00
H987   H     0.01661   0.45882   0.33894   0.00000  Uiso   1.00
H988   H     0.04039   0.50358   0.37405   0.00000  Uiso   1.00
H989   H     0.17875   0.38989   0.36404   0.00000  Uiso   1.00
H990   H     0.12406   0.61053   0.58542   0.00000  Uiso   1.00
H991   H     0.15553   0.33867   0.63629   0.00000  Uiso   1.00
H992   H     0.22115   0.65140   0.63072   0.00000  Uiso   1.00
H993   H     0.17067   0.62151   0.65397   0.00000  Uiso   1.00
H994   H     0.05718   0.63714   0.43419   0.00000  Uiso   1.00
N995   N     0.16665   0.49999   0.61907   0.00000  Uiso   1.00
N996   N     0.09067   0.45297   0.37457   0.00000  Uiso   1.00
N997   N     0.16668   0.50001   0.38093   0.00000  Uiso   1.00
N998   N     0.13819   0.37021   0.41867   0.00000  Uiso   1.00
N999   N     0.15986   0.62658   0.58511   0.00000  Uiso   1.00
N1000  N     0.09258   0.62251   0.43565   0.00000  Uiso   1.00
N1001  N     0.20835   0.37646   0.57797   0.00000  Uiso   1.00
N1002  N     0.22722   0.55969   0.38512   0.00000  Uiso   1.00
N1003  N     0.08818   0.45674   0.61064   0.00000  Uiso   1.00
N1004  N     0.24201   0.54735   0.62498   0.00000  Uiso   1.00
O1005  O     0.16666   0.43892   0.53821   0.00000  Uiso   1.00
O1006  O     0.16667   0.56108   0.46179   0.00000  Uiso   1.00
O1007  O     0.16666   0.43893   0.46176   0.00000  Uiso   1.00
O1008  O     0.16667   0.56107   0.53824   0.00000  Uiso   1.00
O1009  O     0.09058   0.50000   0.52928   0.00000  Uiso   1.00
O1010  O     0.24275   0.50000   0.47072   0.00000  Uiso   1.00
O1011  O     0.09058   0.50000   0.45284   0.00000  Uiso   1.00
O1012  O     0.24275   0.50000   0.54716   0.00000  Uiso   1.00
Zn1013 Zn    0.16667   0.49999   0.55104   0.00000  Uiso   1.00
Zn1014 Zn    0.16667   0.50001   0.44896   0.00000  Uiso   1.00
Br1015 Br    0.34367   0.57413   0.51208   0.00000  Uiso   1.00
Br1016 Br    0.66528   0.42938   0.49935   0.00000  Uiso   1.00
C1017  C     0.50201   0.41982   0.49964   0.00000  Uiso   1.00
C1018  C     0.51336   0.35503   0.54064   0.00000  Uiso   1.00
C1019  C     0.48587   0.62351   0.50310   0.00000  Uiso   1.00
C1020  C     0.50102   0.37481   0.49957   0.00000  Uiso   1.00
C1021  C     0.53388   0.52604   0.36010   0.00000  Uiso   1.00
C1022  C     0.46291   0.47679   0.63898   0.00000  Uiso   1.00
C1023  C     0.53612   0.52391   0.64569   0.00000  Uiso   1.00
C1024  C     0.46319   0.47640   0.35393   0.00000  Uiso   1.00
C1025  C     0.51917   0.37247   0.39517   0.00000  Uiso   1.00
C1026  C     0.51143   0.64450   0.62853   0.00000  Uiso   1.00
C1027  C     0.43955   0.60638   0.39268   0.00000  Uiso   1.00
C1028  C     0.49463   0.57954   0.50062   0.00000  Uiso   1.00
C1029  C     0.59823   0.38139   0.57810   0.00000  Uiso   1.00
C1030  C     0.61261   0.55325   0.40496   0.00000  Uiso   1.00
C1031  C     0.41467   0.41205   0.61070   0.00000  Uiso   1.00
C1032  C     0.62712   0.53003   0.62725   0.00000  Uiso   1.00
C1033  C     0.37169   0.46917   0.37106   0.00000  Uiso   1.00
C1034  C     0.40210   0.50548   0.49042   0.00000  Uiso   1.00
C1035  C     0.59894   0.49719   0.50990   0.00000  Uiso   1.00
C1036  C     0.34994   0.51667   0.49323   0.00000  Uiso   1.00
C1037  C     0.65204   0.48752   0.50864   0.00000  Uiso   1.00
C1038  C     0.47860   0.35181   0.46122   0.00000  Uiso   1.00
C1039  C     0.50003   0.64628   0.54342   0.00000  Uiso   1.00
C1040  C     0.46667   0.64302   0.46468   0.00000  Uiso   1.00
H1041  H     0.43939   0.35872   0.39842   0.00000  Uiso   1.00
H1042  H     0.41950   0.62354   0.36504   0.00000  Uiso   1.00
H1043  H     0.42671   0.57316   0.38867   0.00000  Uiso   1.00
H1044  H     0.48239   0.60927   0.39035   0.00000  Uiso   1.00
H1045  H     0.52286   0.39641   0.59827   0.00000  Uiso   1.00
H1046  H     0.61329   0.36382   0.54952   0.00000  Uiso   1.00
H1047  H     0.60937   0.41484   0.57668   0.00000  Uiso   1.00
H1048  H     0.61680   0.36972   0.60980   0.00000  Uiso   1.00
H1049  H     0.55832   0.58797   0.37037   0.00000  Uiso   1.00
H1050  H     0.64225   0.57330   0.38974   0.00000  Uiso   1.00
H1051  H     0.62315   0.52023   0.40233   0.00000  Uiso   1.00
H1052  H     0.53159   0.34084   0.38637   0.00000  Uiso   1.00
H1053  H     0.61283   0.56366   0.44012   0.00000  Uiso   1.00
H1054  H     0.38762   0.47301   0.60561   0.00000  Uiso   1.00
H1055  H     0.41520   0.39916   0.57591   0.00000  Uiso   1.00
H1056  H     0.37621   0.40323   0.62343   0.00000  Uiso   1.00
H1057  H     0.44629   0.39819   0.63201   0.00000  Uiso   1.00
H1058  H     0.57688   0.57870   0.63237   0.00000  Uiso   1.00
H1059  H     0.65034   0.54008   0.65855   0.00000  Uiso   1.00
H1060  H     0.64901   0.54156   0.59928   0.00000  Uiso   1.00
H1061  H     0.62427   0.49559   0.62458   0.00000  Uiso   1.00
H1062  H     0.42337   0.42174   0.36698   0.00000  Uiso   1.00
H1063  H     0.55188   0.38883   0.41624   0.00000  Uiso   1.00
H1064  H     0.34929   0.45705   0.39854   0.00000  Uiso   1.00
H1065  H     0.34994   0.45882   0.33894   0.00000  Uiso   1.00
H1066  H     0.37373   0.50358   0.37405   0.00000  Uiso   1.00
H1067  H     0.51209   0.38989   0.36404   0.00000  Uiso   1.00
H1068  H     0.45739   0.61053   0.58542   0.00000  Uiso   1.00
H1069  H     0.48887   0.33867   0.63629   0.00000  Uiso   1.00
H1070  H     0.55448   0.65140   0.63072   0.00000  Uiso   1.00
H1071  H     0.50400   0.62151   0.65397   0.00000  Uiso   1.00
H1072  H     0.39052   0.63714   0.43419   0.00000  Uiso   1.00
N1073  N     0.49999   0.49999   0.61907   0.00000  Uiso   1.00
N1074  N     0.42400   0.45297   0.37457   0.00000  Uiso   1.00
N1075  N     0.50001   0.50001   0.38093   0.00000  Uiso   1.00
N1076  N     0.47153   0.37021   0.41867   0.00000  Uiso   1.00
N1077  N     0.49320   0.62658   0.58511   0.00000  Uiso   1.00
N1078  N     0.42591   0.62251   0.43565   0.00000  Uiso   1.00
N1079  N     0.54169   0.37646   0.57797   0.00000  Uiso   1.00
N1080  N     0.56055   0.55969   0.38512   0.00000  Uiso   1.00
N1081  N     0.42151   0.45674   0.61064   0.00000  Uiso   1.00
N1082  N     0.57534   0.54735   0.62498   0.00000  Uiso   1.00
O1083  O     0.50000   0.43892   0.53821   0.00000  Uiso   1.00
O1084  O     0.50000   0.56108   0.46179   0.00000  Uiso   1.00
O1085  O     0.50000   0.43893   0.46176   0.00000  Uiso   1.00
O1086  O     0.50000   0.56107   0.53824   0.00000  Uiso   1.00
O1087  O     0.42392   0.50000   0.52928   0.00000  Uiso   1.00
O1088  O     0.57608   0.50000   0.47072   0.00000  Uiso   1.00
O1089  O     0.42392   0.50000   0.45284   0.00000  Uiso   1.00
O1090  O     0.57608   0.50000   0.54716   0.00000  Uiso   1.00
Zn1091 Zn    0.50000   0.49999   0.55104   0.00000  Uiso   1.00
Zn1092 Zn    0.50000   0.50001   0.44896   0.00000  Uiso   1.00
Br1093 Br    0.67700   0.57413   0.51208   0.00000  Uiso   1.00
Br1094 Br    0.99862   0.42938   0.49935   0.00000  Uiso   1.00
C1095  C     0.83534   0.41982   0.49964   0.00000  Uiso   1.00
C1096  C     0.84669   0.35503   0.54064   0.00000  Uiso   1.00
C1097  C     0.81921   0.62351   0.50310   0.00000  Uiso   1.00
C1098  C     0.83435   0.37481   0.49957   0.00000  Uiso   1.00
C1099  C     0.86722   0.52604   0.36010   0.00000  Uiso   1.00
C1100  C     0.79624   0.47679   0.63898   0.00000  Uiso   1.00
C1101  C     0.86946   0.52391   0.64569   0.00000  Uiso   1.00
C1102  C     0.79652   0.47640   0.35393   0.00000  Uiso   1.00
C1103  C     0.85250   0.37247   0.39517   0.00000  Uiso   1.00
C1104  C     0.84476   0.64450   0.62853   0.00000  Uiso   1.00
C1105  C     0.77289   0.60638   0.39268   0.00000  Uiso   1.00
C1106  C     0.82796   0.57954   0.50062   0.00000  Uiso   1.00
C1107  C     0.93157   0.38139   0.57810   0.00000  Uiso   1.00
C1108  C     0.94594   0.55325   0.40496   0.00000  Uiso   1.00
C1109  C     0.74800   0.41205   0.61070   0.00000  Uiso   1.00
C1110  C     0.96046   0.53003   0.62725   0.00000  Uiso   1.00
C1111  C     0.70502   0.46917   0.37106   0.00000  Uiso   1.00
C1112  C     0.73543   0.50548   0.49042   0.00000  Uiso   1.00
C1113  C     0.93227   0.49719   0.50990   0.00000  Uiso   1.00
C1114  C     0.68328   0.51667   0.49323   0.00000  Uiso   1.00
C1115  C     0.98537   0.48752   0.50864   0.00000  Uiso   1.00
C1116  C     0.81194   0.35181   0.46122   0.00000  Uiso   1.00
C1117  C     0.83336   0.64628   0.54342   0.00000  Uiso   1.00
C1118  C     0.80000   0.64302   0.46468   0.00000  Uiso   1.00
H1119  H     0.77272   0.35872   0.39842   0.00000  Uiso   1.00
H1120  H     0.75283   0.62354   0.36504   0.00000  Uiso   1.00
H1121  H     0.76004   0.57316   0.38867   0.00000  Uiso   1.00
H1122  H     0.81572   0.60927   0.39035   0.00000  Uiso   1.00
H1123  H     0.85619   0.39641   0.59827   0.00000  Uiso   1.00
H1124  H     0.94663   0.36382   0.54952   0.00000  Uiso   1.00
H1125  H     0.94270   0.41484   0.57668   0.00000  Uiso   1.00
H1126  H     0.95013   0.36972   0.60980   0.00000  Uiso   1.00
H1127  H     0.89166   0.58797   0.37037   0.00000  Uiso   1.00
H1128  H     0.97558   0.57330   0.38974   0.00000  Uiso   1.00
H1129  H     0.95649   0.52023   0.40233   0.00000  Uiso   1.00
H1130  H     0.86493   0.34084   0.38637   0.00000  Uiso   1.00
H1131  H     0.94616   0.56366   0.44012   0.00000  Uiso   1.00
H1132  H     0.72096   0.47301   0.60561   0.00000  Uiso   1.00
H1133  H     0.74853   0.39916   0.57591   0.00000  Uiso   1.00
H1134  H     0.70955   0.40323   0.62343   0.00000  Uiso   1.00
H1135  H     0.77962   0.39819   0.63201   0.00000  Uiso   1.00
H1136  H     0.91022   0.57870   0.63237   0.00000  Uiso   1.00
H1137  H     0.98367   0.54008   0.65855   0.00000  Uiso   1.00
H1138  H     0.98235   0.54156   0.59928   0.00000  Uiso   1.00
H1139  H     0.95760   0.49559   0.62458   0.00000  Uiso   1.00
H1140  H     0.75671   0.42174   0.36698   0.00000  Uiso   1.00
H1141  H     0.88522   0.38883   0.41624   0.00000  Uiso   1.00
H1142  H     0.68263   0.45705   0.39854   0.00000  Uiso   1.00
H1143  H     0.68328   0.45882   0.33894   0.00000  Uiso   1.00
H1144  H     0.70706   0.50358   0.37405   0.00000  Uiso   1.00
H1145  H     0.84542   0.38989   0.36404   0.00000  Uiso   1.00
H1146  H     0.79073   0.61053   0.58542   0.00000  Uiso   1.00
H1147  H     0.82220   0.33867   0.63629   0.00000  Uiso   1.00
H1148  H     0.88782   0.65140   0.63072   0.00000  Uiso   1.00
H1149  H     0.83733   0.62151   0.65397   0.00000  Uiso   1.00
H1150  H     0.72385   0.63714   0.43419   0.00000  Uiso   1.00
N1151  N     0.83332   0.49999   0.61907   0.00000  Uiso   1.00
N1152  N     0.75733   0.45297   0.37457   0.00000  Uiso   1.00
N1153  N     0.83335   0.50001   0.38093   0.00000  Uiso   1.00
N1154  N     0.80486   0.37021   0.41867   0.00000  Uiso   1.00
N1155  N     0.82653   0.62658   0.58511   0.00000  Uiso   1.00
N1156  N     0.75925   0.62251   0.43565   0.00000  Uiso   1.00
N1157  N     0.87502   0.37646   0.57797   0.00000  Uiso   1.00
N1158  N     0.89389   0.55969   0.38512   0.00000  Uiso   1.00
N1159  N     0.75484   0.45674   0.61064   0.00000  Uiso   1.00
N1160  N     0.90868   0.54735   0.62498   0.00000  Uiso   1.00
O1161  O     0.83333   0.43892   0.53821   0.00000  Uiso   1.00
O1162  O     0.83334   0.56108   0.46179   0.00000  Uiso   1.00
O1163  O     0.83333   0.43893   0.46176   0.00000  Uiso   1.00
O1164  O     0.83334   0.56107   0.53824   0.00000  Uiso   1.00
O1165  O     0.75725   0.50000   0.52928   0.00000  Uiso   1.00
O1166  O     0.90942   0.50000   0.47072   0.00000  Uiso   1.00
O1167  O     0.75725   0.50000   0.45284   0.00000  Uiso   1.00
O1168  O     0.90942   0.50000   0.54716   0.00000  Uiso   1.00
Zn1169 Zn    0.83333   0.49999   0.55104   0.00000  Uiso   1.00
Zn1170 Zn    0.83333   0.50001   0.44896   0.00000  Uiso   1.00
Br1171 Br    0.01034   0.90746   0.51208   0.00000  Uiso   1.00
Br1172 Br    0.33195   0.76272   0.49935   0.00000  Uiso   1.00
C1173  C     0.16867   0.75316   0.49964   0.00000  Uiso   1.00
C1174  C     0.18002   0.68836   0.54064   0.00000  Uiso   1.00
C1175  C     0.15254   0.95685   0.50310   0.00000  Uiso   1.00
C1176  C     0.16769   0.70815   0.49957   0.00000  Uiso   1.00
C1177  C     0.20055   0.85937   0.36010   0.00000  Uiso   1.00
C1178  C     0.12958   0.81013   0.63898   0.00000  Uiso   1.00
C1179  C     0.20279   0.85725   0.64569   0.00000  Uiso   1.00
C1180  C     0.12986   0.80973   0.35393   0.00000  Uiso   1.00
C1181  C     0.18584   0.70580   0.39517   0.00000  Uiso   1.00
C1182  C     0.17810   0.97783   0.62853   0.00000  Uiso   1.00
C1183  C     0.10622   0.93972   0.39268   0.00000  Uiso   1.00
C1184  C     0.16129   0.91288   0.50062   0.00000  Uiso   1.00
C1185  C     0.26490   0.71473   0.57810   0.00000  Uiso   1.00
C1186  C     0.27927   0.88658   0.40496   0.00000  Uiso   1.00
C1187  C     0.08133   0.74539   0.61070   0.00000  Uiso   1.00
C1188  C     0.29379   0.86337   0.62725   0.00000  Uiso   1.00
C1189  C     0.03836   0.80251   0.37106   0.00000  Uiso   1.00
C1190  C     0.06877   0.83881   0.49042   0.00000  Uiso   1.00
C1191  C     0.26561   0.83053   0.50990   0.00000  Uiso   1.00
C1192  C     0.01661   0.85001   0.49323   0.00000  Uiso   1.00
C1193  C     0.31870   0.82086   0.50864   0.00000  Uiso   1.00
C1194  C     0.14527   0.68514   0.46122   0.00000  Uiso   1.00
C1195  C     0.16670   0.97961   0.54342   0.00000  Uiso   1.00
C1196  C     0.13334   0.97636   0.46468   0.00000  Uiso   1.00
H1197  H     0.10605   0.69206   0.39842   0.00000  Uiso   1.00
H1198  H     0.08617   0.95687   0.36504   0.00000  Uiso   1.00
H1199  H     0.09338   0.90649   0.38867   0.00000  Uiso   1.00
H1200  H     0.14905   0.94260   0.39035   0.00000  Uiso   1.00
H1201  H     0.18953   0.72975   0.59827   0.00000  Uiso   1.00
H1202  H     0.27996   0.69715   0.54952   0.00000  Uiso   1.00
H1203  H     0.27604   0.74818   0.57668   0.00000  Uiso   1.00
H1204  H     0.28347   0.70306   0.60980   0.00000  Uiso   1.00
H1205  H     0.22499   0.92130   0.37037   0.00000  Uiso   1.00
H1206  H     0.30892   0.90663   0.38974   0.00000  Uiso   1.00
H1207  H     0.28982   0.85357   0.40233   0.00000  Uiso   1.00
H1208  H     0.19826   0.67417   0.38637   0.00000  Uiso   1.00
H1209  H     0.27949   0.89699   0.44012   0.00000  Uiso   1.00
H1210  H     0.05429   0.80635   0.60561   0.00000  Uiso   1.00
H1211  H     0.08187   0.73249   0.57591   0.00000  Uiso   1.00
H1212  H     0.04288   0.73656   0.62343   0.00000  Uiso   1.00
H1213  H     0.11296   0.73153   0.63201   0.00000  Uiso   1.00
H1214  H     0.24355   0.91204   0.63237   0.00000  Uiso   1.00
H1215  H     0.31700   0.87341   0.65855   0.00000  Uiso   1.00
H1216  H     0.31568   0.87489   0.59928   0.00000  Uiso   1.00
H1217  H     0.29093   0.82892   0.62458   0.00000  Uiso   1.00
H1218  H     0.09004   0.75507   0.36698   0.00000  Uiso   1.00
H1219  H     0.21855   0.72217   0.41624   0.00000  Uiso   1.00
H1220  H     0.01596   0.79039   0.39854   0.00000  Uiso   1.00
H1221  H     0.01661   0.79215   0.33894   0.00000  Uiso   1.00
H1222  H     0.04039   0.83691   0.37405   0.00000  Uiso   1.00
H1223  H     0.17875   0.72322   0.36404   0.00000  Uiso   1.00
H1224  H     0.12406   0.94387   0.58542   0.00000  Uiso   1.00
H1225  H     0.15553   0.67200   0.63629   0.00000  Uiso   1.00
H1226  H     0.22115   0.98473   0.63072   0.00000  Uiso   1.00
H1227  H     0.17067   0.95484   0.65397   0.00000  Uiso   1.00
H1228  H     0.05718   0.97047   0.43419   0.00000  Uiso   1.00
N1229  N     0.16665   0.83332   0.61907   0.00000  Uiso   1.00
N1230  N     0.09067   0.78631   0.37457   0.00000  Uiso   1.00
N1231  N     0.16668   0.83334   0.38093   0.00000  Uiso   1.00
N1232  N     0.13819   0.70355   0.41867   0.00000  Uiso   1.00
N1233  N     0.15986   0.95991   0.58511   0.00000  Uiso   1.00
N1234  N     0.09258   0.95584   0.43565   0.00000  Uiso   1.00
N1235  N     0.20835   0.70979   0.57797   0.00000  Uiso   1.00
N1236  N     0.22722   0.89302   0.38512   0.00000  Uiso   1.00
N1237  N     0.08818   0.79007   0.61064   0.00000  Uiso   1.00
N1238  N     0.24201   0.88069   0.62498   0.00000  Uiso   1.00
O1239  O     0.16666   0.77225   0.53821   0.00000  Uiso   1.00
O1240  O     0.16667   0.89442   0.46179   0.00000  Uiso   1.00
O1241  O     0.16666   0.77226   0.46176   0.00000  Uiso   1.00
O1242  O     0.16667   0.89441   0.53824   0.00000  Uiso   1.00
O1243  O     0.09058   0.83333   0.52928   0.00000  Uiso   1.00
O1244  O     0.24275   0.83334   0.47072   0.00000  Uiso   1.00
O1245  O     0.09058   0.83334   0.45284   0.00000  Uiso   1.00
O1246  O     0.24275   0.83333   0.54716   0.00000  Uiso   1.00
Zn1247 Zn    0.16667   0.83333   0.55104   0.00000  Uiso   1.00
Zn1248 Zn    0.16667   0.83334   0.44896   0.00000  Uiso   1.00
Br1249 Br    0.34367   0.90746   0.51208   0.00000  Uiso   1.00
Br1250 Br    0.66528   0.76272   0.49935   0.00000  Uiso   1.00
C1251  C     0.50201   0.75316   0.49964   0.00000  Uiso   1.00
C1252  C     0.51336   0.68836   0.54064   0.00000  Uiso   1.00
C1253  C     0.48587   0.95685   0.50310   0.00000  Uiso   1.00
C1254  C     0.50102   0.70815   0.49957   0.00000  Uiso   1.00
C1255  C     0.53388   0.85937   0.36010   0.00000  Uiso   1.00
C1256  C     0.46291   0.81013   0.63898   0.00000  Uiso   1.00
C1257  C     0.53612   0.85725   0.64569   0.00000  Uiso   1.00
C1258  C     0.46319   0.80973   0.35393   0.00000  Uiso   1.00
C1259  C     0.51917   0.70580   0.39517   0.00000  Uiso   1.00
C1260  C     0.51143   0.97783   0.62853   0.00000  Uiso   1.00
C1261  C     0.43955   0.93972   0.39268   0.00000  Uiso   1.00
C1262  C     0.49463   0.91288   0.50062   0.00000  Uiso   1.00
C1263  C     0.59823   0.71473   0.57810   0.00000  Uiso   1.00
C1264  C     0.61261   0.88658   0.40496   0.00000  Uiso   1.00
C1265  C     0.41467   0.74539   0.61070   0.00000  Uiso   1.00
C1266  C     0.62712   0.86337   0.62725   0.00000  Uiso   1.00
C1267  C     0.37169   0.80251   0.37106   0.00000  Uiso   1.00
C1268  C     0.40210   0.83881   0.49042   0.00000  Uiso   1.00
C1269  C     0.59894   0.83053   0.50990   0.00000  Uiso   1.00
C1270  C     0.34994   0.85001   0.49323   0.00000  Uiso   1.00
C1271  C     0.65204   0.82086   0.50864   0.00000  Uiso   1.00
C1272  C     0.47860   0.68514   0.46122   0.00000  Uiso   1.00
C1273  C     0.50003   0.97961   0.54342   0.00000  Uiso   1.00
C1274  C     0.46667   0.97636   0.46468   0.00000  Uiso   1.00
H1275  H     0.43939   0.69206   0.39842   0.00000  Uiso   1.00
H1276  H     0.41950   0.95687   0.36504   0.00000  Uiso   1.00
H1277  H     0.42671   0.90649   0.38867   0.00000  Uiso   1.00
H1278  H     0.48239   0.94260   0.39035   0.00000  Uiso   1.00
H1279  H     0.52286   0.72975   0.59827   0.00000  Uiso   1.00
H1280  H     0.61329   0.69715   0.54952   0.00000  Uiso   1.00
H1281  H     0.60937   0.74818   0.57668   0.00000  Uiso   1.00
H1282  H     0.61680   0.70306   0.60980   0.00000  Uiso   1.00
H1283  H     0.55832   0.92130   0.37037   0.00000  Uiso   1.00
H1284  H     0.64225   0.90663   0.38974   0.00000  Uiso   1.00
H1285  H     0.62315   0.85357   0.40233   0.00000  Uiso   1.00
H1286  H     0.53159   0.67417   0.38637   0.00000  Uiso   1.00
H1287  H     0.61283   0.89699   0.44012   0.00000  Uiso   1.00
H1288  H     0.38762   0.80635   0.60561   0.00000  Uiso   1.00
H1289  H     0.41520   0.73249   0.57591   0.00000  Uiso   1.00
H1290  H     0.37621   0.73656   0.62343   0.00000  Uiso   1.00
H1291  H     0.44629   0.73153   0.63201   0.00000  Uiso   1.00
H1292  H     0.57688   0.91204   0.63237   0.00000  Uiso   1.00
H1293  H     0.65034   0.87341   0.65855   0.00000  Uiso   1.00
H1294  H     0.64901   0.87489   0.59928   0.00000  Uiso   1.00
H1295  H     0.62427   0.82892   0.62458   0.00000  Uiso   1.00
H1296  H     0.42337   0.75507   0.36698   0.00000  Uiso   1.00
H1297  H     0.55188   0.72217   0.41624   0.00000  Uiso   1.00
H1298  H     0.34929   0.79039   0.39854   0.00000  Uiso   1.00
H1299  H     0.34994   0.79215   0.33894   0.00000  Uiso   1.00
H1300  H     0.37373   0.83691   0.37405   0.00000  Uiso   1.00
H1301  H     0.51209   0.72322   0.36404   0.00000  Uiso   1.00
H1302  H     0.45739   0.94387   0.58542   0.00000  Uiso   1.00
H1303  H     0.48887   0.67200   0.63629   0.00000  Uiso   1.00
H1304  H     0.55448   0.98473   0.63072   0.00000  Uiso   1.00
H1305  H     0.50400   0.95484   0.65397   0.00000  Uiso   1.00
H1306  H     0.39052   0.97047   0.43419   0.00000  Uiso   1.00
N1307  N     0.49999   0.83332   0.61907   0.00000  Uiso   1.00
N1308  N     0.42400   0.78631   0.37457   0.00000  Uiso   1.00
N1309  N     0.50001   0.83334   0.38093   0.00000  Uiso   1.00
N1310  N     0.47153   0.70355   0.41867   0.00000  Uiso   1.00
N1311  N     0.49320   0.95991   0.58511   0.00000  Uiso   1.00
N1312  N     0.42591   0.95584   0.43565   0.00000  Uiso   1.00
N1313  N     0.54169   0.70979   0.57797   0.00000  Uiso   1.00
N1314  N     0.56055   0.89302   0.38512   0.00000  Uiso   1.00
N1315  N     0.42151   0.79007   0.61064   0.00000  Uiso   1.00
N1316  N     0.57534   0.88069   0.62498   0.00000  Uiso   1.00
O1317  O     0.50000   0.77225   0.53821   0.00000  Uiso   1.00
O1318  O     0.50000   0.89442   0.46179   0.00000  Uiso   1.00
O1319  O     0.50000   0.77226   0.46176   0.00000  Uiso   1.00
O1320  O     0.50000   0.89441   0.53824   0.00000  Uiso   1.00
O1321  O     0.42392   0.83333   0.52928   0.00000  Uiso   1.00
O1322  O     0.57608   0.83334   0.47072   0.00000  Uiso   1.00
O1323  O     0.42392   0.83334   0.45284   0.00000  Uiso   1.00
O1324  O     0.57608   0.83333   0.54716   0.00000  Uiso   1.00
Zn1325 Zn    0.50000   0.83333   0.55104   0.00000  Uiso   1.00
Zn1326 Zn    0.50000   0.83334   0.44896   0.00000  Uiso   1.00
Br1327 Br    0.67700   0.90746   0.51208   0.00000  Uiso   1.00
Br1328 Br    0.99862   0.76272   0.49935   0.00000  Uiso   1.00
C1329  C     0.83534   0.75316   0.49964   0.00000  Uiso   1.00
C1330  C     0.84669   0.68836   0.54064   0.00000  Uiso   1.00
C1331  C     0.81921   0.95685   0.50310   0.00000  Uiso   1.00
C1332  C     0.83435   0.70815   0.49957   0.00000  Uiso   1.00
C1333  C     0.86722   0.85937   0.36010   0.00000  Uiso   1.00
C1334  C     0.79624   0.81013   0.63898   0.00000  Uiso   1.00
C1335  C     0.86946   0.85725   0.64569   0.00000  Uiso   1.00
C1336  C     0.79652   0.80973   0.35393   0.00000  Uiso   1.00
C1337  C     0.85250   0.70580   0.39517   0.00000  Uiso   1.00
C1338  C     0.84476   0.97783   0.62853   0.00000  Uiso   1.00
C1339  C     0.77289   0.93972   0.39268   0.00000  Uiso   1.00
C1340  C     0.82796   0.91288   0.50062   0.00000  Uiso   1.00
C1341  C     0.93157   0.71473   0.57810   0.00000  Uiso   1.00
C1342  C     0.94594   0.88658   0.40496   0.00000  Uiso   1.00
C1343  C     0.74800   0.74539   0.61070   0.00000  Uiso   1.00
C1344  C     0.96046   0.86337   0.62725   0.00000  Uiso   1.00
C1345  C     0.70502   0.80251   0.37106   0.00000  Uiso   1.00
C1346  C     0.73543   0.83881   0.49042   0.00000  Uiso   1.00
C1347  C     0.93227   0.83053   0.50990   0.00000  Uiso   1.00
C1348  C     0.68328   0.85001   0.49323   0.00000  Uiso   1.00
C1349  C     0.98537   0.82086   0.50864   0.00000  Uiso   1.00
C1350  C     0.81194   0.68514   0.46122   0.00000  Uiso   1.00
C1351  C     0.83336   0.97961   0.54342   0.00000  Uiso   1.00
C1352  C     0.80000   0.97636   0.46468   0.00000  Uiso   1.00
H1353  H     0.77272   0.69206   0.39842   0.00000  Uiso   1.00
H1354  H     0.75283   0.95687   0.36504   0.00000  Uiso   1.00
H1355  H     0.76004   0.90649   0.38867   0.00000  Uiso   1.00
H1356  H     0.81572   0.94260   0.39035   0.00000  Uiso   1.00
H1357  H     0.85619   0.72975   0.59827   0.00000  Uiso   1.00
H1358  H     0.94663   0.69715   0.54952   0.00000  Uiso   1.00
H1359  H     0.94270   0.74818   0.57668   0.00000  Uiso   1.00
H1360  H     0.95013   0.70306   0.60980   0.00000  Uiso   1.00
H1361  H     0.89166   0.92130   0.37037   0.00000  Uiso   1.00
H1362  H     0.97558   0.90663   0.38974   0.00000  Uiso   1.00
H1363  H     0.95649   0.85357   0.40233   0.00000  Uiso   1.00
H1364  H     0.86493   0.67417   0.38637   0.00000  Uiso   1.00
H1365  H     0.94616   0.89699   0.44012   0.00000  Uiso   1.00
H1366  H     0.72096   0.80635   0.60561   0.00000  Uiso   1.00
H1367  H     0.74853   0.73249   0.57591   0.00000  Uiso   1.00
H1368  H     0.70955   0.73656   0.62343   0.00000  Uiso   1.00
H1369  H     0.77962   0.73153   0.63201   0.00000  Uiso   1.00
H1370  H     0.91022   0.91204   0.63237   0.00000  Uiso   1.00
H1371  H     0.98367   0.87341   0.65855   0.00000  Uiso   1.00
H1372  H     0.98235   0.87489   0.59928   0.00000  Uiso   1.00
H1373  H     0.95760   0.82892   0.62458   0.00000  Uiso   1.00
H1374  H     0.75671   0.75507   0.36698   0.00000  Uiso   1.00
H1375  H     0.88522   0.72217   0.41624   0.00000  Uiso   1.00
H1376  H     0.68263   0.79039   0.39854   0.00000  Uiso   1.00
H1377  H     0.68328   0.79215   0.33894   0.00000  Uiso   1.00
H1378  H     0.70706   0.83691   0.37405   0.00000  Uiso   1.00
H1379  H     0.84542   0.72322   0.36404   0.00000  Uiso   1.00
H1380  H     0.79073   0.94387   0.58542   0.00000  Uiso   1.00
H1381  H     0.82220   0.67200   0.63629   0.00000  Uiso   1.00
H1382  H     0.88782   0.98473   0.63072   0.00000  Uiso   1.00
H1383  H     0.83733   0.95484   0.65397   0.00000  Uiso   1.00
H1384  H     0.72385   0.97047   0.43419   0.00000  Uiso   1.00
N1385  N     0.83332   0.83332   0.61907   0.00000  Uiso   1.00
N1386  N     0.75733   0.78631   0.37457   0.00000  Uiso   1.00
N1387  N     0.83335   0.83334   0.38093   0.00000  Uiso   1.00
N1388  N     0.80486   0.70355   0.41867   0.00000  Uiso   1.00
N1389  N     0.82653   0.95991   0.58511   0.00000  Uiso   1.00
N1390  N     0.75925   0.95584   0.43565   0.00000  Uiso   1.00
N1391  N     0.87502   0.70979   0.57797   0.00000  Uiso   1.00
N1392  N     0.89389   0.89302   0.38512   0.00000  Uiso   1.00
N1393  N     0.75484   0.79007   0.61064   0.00000  Uiso   1.00
N1394  N     0.90868   0.88069   0.62498   0.00000  Uiso   1.00
O1395  O     0.83333   0.77225   0.53821   0.00000  Uiso   1.00
O1396  O     0.83334   0.89442   0.46179   0.00000  Uiso   1.00
O1397  O     0.83333   0.77226   0.46176   0.00000  Uiso   1.00
O1398  O     0.83334   0.89441   0.53824   0.00000  Uiso   1.00
O1399  O     0.75725   0.83333   0.52928   0.00000  Uiso   1.00
O1400  O     0.90942   0.83334   0.47072   0.00000  Uiso   1.00
O1401  O     0.75725   0.83334   0.45284   0.00000  Uiso   1.00
O1402  O     0.90942   0.83333   0.54716   0.00000  Uiso   1.00
Zn1403 Zn    0.83333   0.83333   0.55104   0.00000  Uiso   1.00
Zn1404 Zn    0.83333   0.83334   0.44896   0.00000  Uiso   1.00
Br1405 Br    0.01034   0.24079   0.84541   0.00000  Uiso   1.00
Br1406 Br    0.33195   0.09605   0.83269   0.00000  Uiso   1.00
C1407  C     0.16867   0.08649   0.83297   0.00000  Uiso   1.00
C1408  C     0.18002   0.02169   0.87397   0.00000  Uiso   1.00
C1409  C     0.15254   0.29018   0.83643   0.00000  Uiso   1.00
C1410  C     0.16769   0.04148   0.83290   0.00000  Uiso   1.00
C1411  C     0.20055   0.19270   0.69343   0.00000  Uiso   1.00
C1412  C     0.12958   0.14346   0.97231   0.00000  Uiso   1.00
C1413  C     0.20279   0.19058   0.97903   0.00000  Uiso   1.00
C1414  C     0.12986   0.14306   0.68727   0.00000  Uiso   1.00
C1415  C     0.18584   0.03913   0.72851   0.00000  Uiso   1.00
C1416  C     0.17810   0.31116   0.96186   0.00000  Uiso   1.00
C1417  C     0.10622   0.27305   0.72601   0.00000  Uiso   1.00
C1418  C     0.16129   0.24621   0.83396   0.00000  Uiso   1.00
C1419  C     0.26490   0.04806   0.91143   0.00000  Uiso   1.00
C1420  C     0.27927   0.21991   0.73829   0.00000  Uiso   1.00
C1421  C     0.08133   0.07872   0.94403   0.00000  Uiso   1.00
C1422  C     0.29379   0.19670   0.96058   0.00000  Uiso   1.00
C1423  C     0.03836   0.13584   0.70440   0.00000  Uiso   1.00
C1424  C     0.06877   0.17215   0.82376   0.00000  Uiso   1.00
C1425  C     0.26561   0.16386   0.84324   0.00000  Uiso   1.00
C1426  C     0.01661   0.18334   0.82657   0.00000  Uiso   1.00
C1427  C     0.31870   0.15419   0.84197   0.00000  Uiso   1.00
C1428  C     0.14527   0.01847   0.79456   0.00000  Uiso   1.00
C1429  C     0.16670   0.31294   0.87675   0.00000  Uiso   1.00
C1430  C     0.13334   0.30969   0.79801   0.00000  Uiso   1.00
H1431  H     0.10605   0.02539   0.73175   0.00000  Uiso   1.00
H1432  H     0.08617   0.29020   0.69837   0.00000  Uiso   1.00
H1433  H     0.09338   0.23983   0.72201   0.00000  Uiso   1.00
H1434  H     0.14905   0.27594   0.72368   0.00000  Uiso   1.00
H1435  H     0.18953   0.06308   0.93161   0.00000  Uiso   1.00
H1436  H     0.27996   0.03049   0.88285   0.00000  Uiso   1.00
H1437  H     0.27604   0.08151   0.91002   0.00000  Uiso   1.00
H1438  H     0.28347   0.03639   0.94313   0.00000  Uiso   1.00
H1439  H     0.22499   0.25463   0.70370   0.00000  Uiso   1.00
H1440  H     0.30892   0.23997   0.72307   0.00000  Uiso   1.00
H1441  H     0.28982   0.18690   0.73566   0.00000  Uiso   1.00
H1442  H     0.19826   0.00750   0.71971   0.00000  Uiso   1.00
H1443  H     0.27949   0.23033   0.77345   0.00000  Uiso   1.00
H1444  H     0.05429   0.13968   0.93894   0.00000  Uiso   1.00
H1445  H     0.08187   0.06582   0.90924   0.00000  Uiso   1.00
H1446  H     0.04288   0.06989   0.95676   0.00000  Uiso   1.00
H1447  H     0.11296   0.06486   0.96535   0.00000  Uiso   1.00
H1448  H     0.24355   0.24537   0.96570   0.00000  Uiso   1.00
H1449  H     0.31700   0.20675   0.99189   0.00000  Uiso   1.00
H1450  H     0.31568   0.20823   0.93261   0.00000  Uiso   1.00
H1451  H     0.29093   0.16225   0.95791   0.00000  Uiso   1.00
H1452  H     0.09004   0.08841   0.70031   0.00000  Uiso   1.00
H1453  H     0.21855   0.05550   0.74957   0.00000  Uiso   1.00
H1454  H     0.01596   0.12372   0.73187   0.00000  Uiso   1.00
H1455  H     0.01661   0.12548   0.67227   0.00000  Uiso   1.00
H1456  H     0.04039   0.17024   0.70738   0.00000  Uiso   1.00
H1457  H     0.17875   0.05655   0.69738   0.00000  Uiso   1.00
H1458  H     0.12406   0.27720   0.91875   0.00000  Uiso   1.00
H1459  H     0.15553   0.00534   0.96962   0.00000  Uiso   1.00
H1460  H     0.22115   0.31807   0.96405   0.00000  Uiso   1.00
H1461  H     0.17067   0.28818   0.98730   0.00000  Uiso   1.00
H1462  H     0.05718   0.30380   0.76752   0.00000  Uiso   1.00
N1463  N     0.16665   0.16666   0.95240   0.00000  Uiso   1.00
N1464  N     0.09067   0.11964   0.70791   0.00000  Uiso   1.00
N1465  N     0.16668   0.16668   0.71427   0.00000  Uiso   1.00
N1466  N     0.13819   0.03688   0.75201   0.00000  Uiso   1.00
N1467  N     0.15986   0.29324   0.91844   0.00000  Uiso   1.00
N1468  N     0.09258   0.28917   0.76899   0.00000  Uiso   1.00
N1469  N     0.20835   0.04312   0.91130   0.00000  Uiso   1.00
N1470  N     0.22722   0.22635   0.71845   0.00000  Uiso   1.00
N1471  N     0.08818   0.12341   0.94397   0.00000  Uiso   1.00
N1472  N     0.24201   0.21402   0.95831   0.00000  Uiso   1.00
O1473  O     0.16666   0.10558   0.87154   0.00000  Uiso   1.00
O1474  O     0.16667   0.22775   0.79513   0.00000  Uiso   1.00
O1475  O     0.16666   0.10559   0.79510   0.00000  Uiso   1.00
O1476  O     0.16667   0.22774   0.87157   0.00000  Uiso   1.00
O1477  O     0.09058   0.16666   0.86261   0.00000  Uiso   1.00
O1478  O     0.24275   0.16667   0.80405   0.00000  Uiso   1.00
O1479  O     0.09058   0.16667   0.78617   0.00000  Uiso   1.00
O1480  O     0.24275   0.16666   0.88050   0.00000  Uiso   1.00
Zn1481 Zn    0.16667   0.16666   0.88437   0.00000  Uiso   1.00
Zn1482 Zn    0.16667   0.16667   0.78229   0.00000  Uiso   1.00
Br1483 Br    0.34367   0.24079   0.84541   0.00000  Uiso   1.00
Br1484 Br    0.66528   0.09605   0.83269   0.00000  Uiso   1.00
C1485  C     0.50201   0.08649   0.83297   0.00000  Uiso   1.00
C1486  C     0.51336   0.02169   0.87397   0.00000  Uiso   1.00
C1487  C     0.48587   0.29018   0.83643   0.00000  Uiso   1.00
C1488  C     0.50102   0.04148   0.83290   0.00000  Uiso   1.00
C1489  C     0.53388   0.19270   0.69343   0.00000  Uiso   1.00
C1490  C     0.46291   0.14346   0.97231   0.00000  Uiso   1.00
C1491  C     0.53612   0.19058   0.97903   0.00000  Uiso   1.00
C1492  C     0.46319   0.14306   0.68727   0.00000  Uiso   1.00
C1493  C     0.51917   0.03913   0.72851   0.00000  Uiso   1.00
C1494  C     0.51143   0.31116   0.96186   0.00000  Uiso   1.00
C1495  C     0.43955   0.27305   0.72601   0.00000  Uiso   1.00
C1496  C     0.49463   0.24621   0.83396   0.00000  Uiso   1.00
C1497  C     0.59823   0.04806   0.91143   0.00000  Uiso   1.00
C1498  C     0.61261   0.21991   0.73829   0.00000  Uiso   1.00
C1499  C     0.41467   0.07872   0.94403   0.00000  Uiso   1.00
C1500  C     0.62712   0.19670   0.96058   0.00000  Uiso   1.00
C1501  C     0.37169   0.13584   0.70440   0.00000  Uiso   1.00
C1502  C     0.40210   0.17215   0.82376   0.00000  Uiso   1.00
C1503  C     0.59894   0.16386   0.84324   0.00000  Uiso   1.00
C1504  C     0.34994   0.18334   0.82657   0.00000  Uiso   1.00
C1505  C     0.65204   0.15419   0.84197   0.00000  Uiso   1.00
C1506  C     0.47860   0.01847   0.79456   0.00000  Uiso   1.00
C1507  C     0.50003   0.31294   0.87675   0.00000  Uiso   1.00
C1508  C     0.46667   0.30969   0.79801   0.00000  Uiso   1.00
H1509  H     0.43939   0.02539   0.73175   0.00000  Uiso   1.00
H1510  H     0.41950   0.29020   0.69837   0.00000  Uiso   1.00
H1511  H     0.42671   0.23983   0.72201   0.00000  Uiso   1.00
H1512  H     0.48239   0.27594   0.72368   0.00000  Uiso   1.00
H1513  H     0.52286   0.06308   0.93161   0.00000  Uiso   1.00
H1514  H     0.61329   0.03049   0.88285   0.00000  Uiso   1.00
H1515  H     0.60937   0.08151   0.91002   0.00000  Uiso   1.00
H1516  H     0.61680   0.03639   0.94313   0.00000  Uiso   1.00
H1517  H     0.55832   0.25463   0.70370   0.00000  Uiso   1.00
H1518  H     0.64225   0.23997   0.72307   0.00000  Uiso   1.00
H1519  H     0.62315   0.18690   0.73566   0.00000  Uiso   1.00
H1520  H     0.53159   0.00750   0.71971   0.00000  Uiso   1.00
H1521  H     0.61283   0.23033   0.77345   0.00000  Uiso   1.00
H1522  H     0.38762   0.13968   0.93894   0.00000  Uiso   1.00
H1523  H     0.41520   0.06582   0.90924   0.00000  Uiso   1.00
H1524  H     0.37621   0.06989   0.95676   0.00000  Uiso   1.00
H1525  H     0.44629   0.06486   0.96535   0.00000  Uiso   1.00
H1526  H     0.57688   0.24537   0.96570   0.00000  Uiso   1.00
H1527  H     0.65034   0.20675   0.99189   0.00000  Uiso   1.00
H1528  H     0.64901   0.20823   0.93261   0.00000  Uiso   1.00
H1529  H     0.62427   0.16225   0.95791   0.00000  Uiso   1.00
H1530  H     0.42337   0.08841   0.70031   0.00000  Uiso   1.00
H1531  H     0.55188   0.05550   0.74957   0.00000  Uiso   1.00
H1532  H     0.34929   0.12372   0.73187   0.00000  Uiso   1.00
H1533  H     0.34994   0.12548   0.67227   0.00000  Uiso   1.00
H1534  H     0.37373   0.17024   0.70738   0.00000  Uiso   1.00
H1535  H     0.51209   0.05655   0.69738   0.00000  Uiso   1.00
H1536  H     0.45739   0.27720   0.91875   0.00000  Uiso   1.00
H1537  H     0.48887   0.00534   0.96962   0.00000  Uiso   1.00
H1538  H     0.55448   0.31807   0.96405   0.00000  Uiso   1.00
H1539  H     0.50400   0.28818   0.98730   0.00000  Uiso   1.00
H1540  H     0.39052   0.30380   0.76752   0.00000  Uiso   1.00
N1541  N     0.49999   0.16666   0.95240   0.00000  Uiso   1.00
N1542  N     0.42400   0.11964   0.70791   0.00000  Uiso   1.00
N1543  N     0.50001   0.16668   0.71427   0.00000  Uiso   1.00
N1544  N     0.47153   0.03688   0.75201   0.00000  Uiso   1.00
N1545  N     0.49320   0.29324   0.91844   0.00000  Uiso   1.00
N1546  N     0.42591   0.28917   0.76899   0.00000  Uiso   1.00
N1547  N     0.54169   0.04312   0.91130   0.00000  Uiso   1.00
N1548  N     0.56055   0.22635   0.71845   0.00000  Uiso   1.00
N1549  N     0.42151   0.12341   0.94397   0.00000  Uiso   1.00
N1550  N     0.57534   0.21402   0.95831   0.00000  Uiso   1.00
O1551  O     0.50000   0.10558   0.87154   0.00000  Uiso   1.00
O1552  O     0.50000   0.22775   0.79513   0.00000  Uiso   1.00
O1553  O     0.50000   0.10559   0.79510   0.00000  Uiso   1.00
O1554  O     0.50000   0.22774   0.87157   0.00000  Uiso   1.00
O1555  O     0.42392   0.16666   0.86261   0.00000  Uiso   1.00
O1556  O     0.57608   0.16667   0.80405   0.00000  Uiso   1.00
O1557  O     0.42392   0.16667   0.78617   0.00000  Uiso   1.00
O1558  O     0.57608   0.16666   0.88050   0.00000  Uiso   1.00
Zn1559 Zn    0.50000   0.16666   0.88437   0.00000  Uiso   1.00
Zn1560 Zn    0.50000   0.16667   0.78229   0.00000  Uiso   1.00
Br1561 Br    0.67700   0.24079   0.84541   0.00000  Uiso   1.00
Br1562 Br    0.99862   0.09605   0.83269   0.00000  Uiso   1.00
C1563  C     0.83534   0.08649   0.83297   0.00000  Uiso   1.00
C1564  C     0.84669   0.02169   0.87397   0.00000  Uiso   1.00
C1565  C     0.81921   0.29018   0.83643   0.00000  Uiso   1.00
C1566  C     0.83435   0.04148   0.83290   0.00000  Uiso   1.00
C1567  C     0.86722   0.19270   0.69343   0.00000  Uiso   1.00
C1568  C     0.79624   0.14346   0.97231   0.00000  Uiso   1.00
C1569  C     0.86946   0.19058   0.97903   0.00000  Uiso   1.00
C1570  C     0.79652   0.14306   0.68727   0.00000  Uiso   1.00
C1571  C     0.85250   0.03913   0.72851   0.00000  Uiso   1.00
C1572  C     0.84476   0.31116   0.96186   0.00000  Uiso   1.00
C1573  C     0.77289   0.27305   0.72601   0.00000  Uiso   1.00
C1574  C     0.82796   0.24621   0.83396   0.00000  Uiso   1.00
C1575  C     0.93157   0.04806   0.91143   0.00000  Uiso   1.00
C1576  C     0.94594   0.21991   0.73829   0.00000  Uiso   1.00
C1577  C     0.74800   0.07872   0.94403   0.00000  Uiso   1.00
C1578  C     0.96046   0.19670   0.96058   0.00000  Uiso   1.00
C1579  C     0.70502   0.13584   0.70440   0.00000  Uiso   1.00
C1580  C     0.73543   0.17215   0.82376   0.00000  Uiso   1.00
C1581  C     0.93227   0.16386   0.84324   0.00000  Uiso   1.00
C1582  C     0.68328   0.18334   0.82657   0.00000  Uiso   1.00
C1583  C     0.98537   0.15419   0.84197   0.00000  Uiso   1.00
C1584  C     0.81194   0.01847   0.79456   0.00000  Uiso   1.00
C1585  C     0.83336   0.31294   0.87675   0.00000  Uiso   1.00
C1586  C     0.80000   0.30969   0.79801   0.00000  Uiso   1.00
H1587  H     0.77272   0.02539   0.73175   0.00000  Uiso   1.00
H1588  H     0.75283   0.29020   0.69837   0.00000  Uiso   1.00
H1589  H     0.76004   0.23983   0.72201   0.00000  Uiso   1.00
H1590  H     0.81572   0.27594   0.72368   0.00000  Uiso   1.00
H1591  H     0.85619   0.06308   0.93161   0.00000  Uiso   1.00
H1592  H     0.94663   0.03049   0.88285   0.00000  Uiso   1.00
H1593  H     0.94270   0.08151   0.91002   0.00000  Uiso   1.00
H1594  H     0.95013   0.03639   0.94313   0.00000  Uiso   1.00
H1595  H     0.89166   0.25463   0.70370   0.00000  Uiso   1.00
H1596  H     0.97558   0.23997   0.72307   0.00000  Uiso   1.00
H1597  H     0.95649   0.18690   0.73566   0.00000  Uiso   1.00
H1598  H     0.86493   0.00750   0.71971   0.00000  Uiso   1.00
H1599  H     0.94616   0.23033   0.77345   0.00000  Uiso   1.00
H1600  H     0.72096   0.13968   0.93894   0.00000  Uiso   1.00
H1601  H     0.74853   0.06582   0.90924   0.00000  Uiso   1.00
H1602  H     0.70955   0.06989   0.95676   0.00000  Uiso   1.00
H1603  H     0.77962   0.06486   0.96535   0.00000  Uiso   1.00
H1604  H     0.91022   0.24537   0.96570   0.00000  Uiso   1.00
H1605  H     0.98367   0.20675   0.99189   0.00000  Uiso   1.00
H1606  H     0.98235   0.20823   0.93261   0.00000  Uiso   1.00
H1607  H     0.95760   0.16225   0.95791   0.00000  Uiso   1.00
H1608  H     0.75671   0.08841   0.70031   0.00000  Uiso   1.00
H1609  H     0.88522   0.05550   0.74957   0.00000  Uiso   1.00
H1610  H     0.68263   0.12372   0.73187   0.00000  Uiso   1.00
H1611  H     0.68328   0.12548   0.67227   0.00000  Uiso   1.00
H1612  H     0.70706   0.17024   0.70738   0.00000  Uiso   1.00
H1613  H     0.84542   0.05655   0.69738   0.00000  Uiso   1.00
H1614  H     0.79073   0.27720   0.91875   0.00000  Uiso   1.00
H1615  H     0.82220   0.00534   0.96962   0.00000  Uiso   1.00
H1616  H     0.88782   0.31807   0.96405   0.00000  Uiso   1.00
H1617  H     0.83733   0.28818   0.98730   0.00000  Uiso   1.00
H1618  H     0.72385   0.30380   0.76752   0.00000  Uiso   1.00
N1619  N     0.83332   0.16666   0.95240   0.00000  Uiso   1.00
N1620  N     0.75733   0.11964   0.70791   0.00000  Uiso   1.00
N1621  N     0.83335   0.16668   0.71427   0.00000  Uiso   1.00
N1622  N     0.80486   0.03688   0.75201   0.00000  Uiso   1.00
N1623  N     0.82653   0.29324   0.91844   0.00000  Uiso   1.00
N1624  N     0.75925   0.28917   0.76899   0.00000  Uiso   1.00
N1625  N     0.87502   0.04312   0.91130   0.00000  Uiso   1.00
N1626  N     0.89389   0.22635   0.71845   0.00000  Uiso   1.00
N1627  N     0.75484   0.12341   0.94397   0.00000  Uiso   1.00
N1628  N     0.90868   0.21402   0.95831   0.00000  Uiso   1.00
O1629  O     0.83333   0.10558   0.87154   0.00000  Uiso   1.00
O1630  O     0.83334   0.22775   0.79513   0.00000  Uiso   1.00
O1631  O     0.83333   0.10559   0.79510   0.00000  Uiso   1.00
O1632  O     0.83334   0.22774   0.87157   0.00000  Uiso   1.00
O1633  O     0.75725   0.16666   0.86261   0.00000  Uiso   1.00
O1634  O     0.90942   0.16667   0.80405   0.00000  Uiso   1.00
O1635  O     0.75725   0.16667   0.78617   0.00000  Uiso   1.00
O1636  O     0.90942   0.16666   0.88050   0.00000  Uiso   1.00
Zn1637 Zn    0.83333   0.16666   0.88437   0.00000  Uiso   1.00
Zn1638 Zn    0.83333   0.16667   0.78229   0.00000  Uiso   1.00
Br1639 Br    0.01034   0.57413   0.84541   0.00000  Uiso   1.00
Br1640 Br    0.33195   0.42938   0.83269   0.00000  Uiso   1.00
C1641  C     0.16867   0.41982   0.83297   0.00000  Uiso   1.00
C1642  C     0.18002   0.35503   0.87397   0.00000  Uiso   1.00
C1643  C     0.15254   0.62351   0.83643   0.00000  Uiso   1.00
C1644  C     0.16769   0.37481   0.83290   0.00000  Uiso   1.00
C1645  C     0.20055   0.52604   0.69343   0.00000  Uiso   1.00
C1646  C     0.12958   0.47679   0.97231   0.00000  Uiso   1.00
C1647  C     0.20279   0.52391   0.97903   0.00000  Uiso   1.00
C1648  C     0.12986   0.47640   0.68727   0.00000  Uiso   1.00
C1649  C     0.18584   0.37247   0.72851   0.00000  Uiso   1.00
C1650  C     0.17810   0.64450   0.96186   0.00000  Uiso   1.00
C1651  C     0.10622   0.60638   0.72601   0.00000  Uiso   1.00
C1652  C     0.16129   0.57954   0.83396   0.00000  Uiso   1.00
C1653  C     0.26490   0.38139   0.91143   0.00000  Uiso   1.00
C1654  C     0.27927   0.55325   0.73829   0.00000  Uiso   1.00
C1655  C     0.08133   0.41205   0.94403   0.00000  Uiso   1.00
C1656  C     0.29379   0.53003   0.96058   0.00000  Uiso   1.00
C1657  C     0.03836   0.46917   0.70440   0.00000  Uiso   1.00
C1658  C     0.06877   0.50548   0.82376   0.00000  Uiso   1.00
C1659  C     0.26561   0.49719   0.84324   0.00000  Uiso   1.00
C1660  C     0.01661   0.51667   0.82657   0.00000  Uiso   1.00
C1661  C     0.31870   0.48752   0.84197   0.00000  Uiso   1.00
C1662  C     0.14527   0.35181   0.79456   0.00000  Uiso   1.00
C1663  C     0.16670   0.64628   0.87675   0.00000  Uiso   1.00
C1664  C     0.13334   0.64302   0.79801   0.00000  Uiso   1.00
H1665  H     0.10605   0.35872   0.73175   0.00000  Uiso   1.00
H1666  H     0.08617   0.62354   0.69837   0.00000  Uiso   1.00
H1667  H     0.09338   0.57316   0.72201   0.00000  Uiso   1.00
H1668  H     0.14905   0.60927   0.72368   0.00000  Uiso   1.00
H1669  H     0.18953   0.39641   0.93161   0.00000  Uiso   1.00
H1670  H     0.27996   0.36382   0.88285   0.00000  Uiso   1.00
H1671  H     0.27604   0.41484   0.91002   0.00000  Uiso   1.00
H1672  H     0.28347   0.36972   0.94313   0.00000  Uiso   1.00
H1673  H     0.22499   0.58797   0.70370   0.00000  Uiso   1.00
H1674  H     0.30892   0.57330   0.72307   0.00000  Uiso   1.00
H1675  H     0.28982   0.52023   0.73566   0.00000  Uiso   1.00
H1676  H     0.19826   0.34084   0.71971   0.00000  Uiso   1.00
H1677  H     0.27949   0.56366   0.77345   0.00000  Uiso   1.00
H1678  H     0.05429   0.47301   0.93894   0.00000  Uiso   1.00
H1679  H     0.08187   0.39916   0.90924   0.00000  Uiso   1.00
H1680  H     0.04288   0.40323   0.95676   0.00000  Uiso   1.00
H1681  H     0.11296   0.39819   0.96535   0.00000  Uiso   1.00
H1682  H     0.24355   0.57870   0.96570   0.00000  Uiso   1.00
H1683  H     0.31700   0.54008   0.99189   0.00000  Uiso   1.00
H1684  H     0.31568   0.54156   0.93261   0.00000  Uiso   1.00
H1685  H     0.29093   0.49559   0.95791   0.00000  Uiso   1.00
H1686  H     0.09004   0.42174   0.70031   0.00000  Uiso   1.00
H1687  H     0.21855   0.38883   0.74957   0.00000  Uiso   1.00
H1688  H     0.01596   0.45705   0.73187   0.00000  Uiso   1.00
H1689  H     0.01661   0.45882   0.67227   0.00000  Uiso   1.00
H1690  H     0.04039   0.50358   0.70738   0.00000  Uiso   1.00
H1691  H     0.17875   0.38989   0.69738   0.00000  Uiso   1.00
H1692  H     0.12406   0.61053   0.91875   0.00000  Uiso   1.00
H1693  H     0.15553   0.33867   0.96962   0.00000  Uiso   1.00
H1694  H     0.22115   0.65140   0.96405   0.00000  Uiso   1.00
H1695  H     0.17067   0.62151   0.98730   0.00000  Uiso   1.00
H1696  H     0.05718   0.63714   0.76752   0.00000  Uiso   1.00
N1697  N     0.16665   0.49999   0.95240   0.00000  Uiso   1.00
N1698  N     0.09067   0.45297   0.70791   0.00000  Uiso   1.00
N1699  N     0.16668   0.50001   0.71427   0.00000  Uiso   1.00
N1700  N     0.13819   0.37021   0.75201   0.00000  Uiso   1.00
N1701  N     0.15986   0.62658   0.91844   0.00000  Uiso   1.00
N1702  N     0.09258   0.62251   0.76899   0.00000  Uiso   1.00
N1703  N     0.20835   0.37646   0.91130   0.00000  Uiso   1.00
N1704  N     0.22722   0.55969   0.71845   0.00000  Uiso   1.00
N1705  N     0.08818   0.45674   0.94397   0.00000  Uiso   1.00
N1706  N     0.24201   0.54735   0.95831   0.00000  Uiso   1.00
O1707  O     0.16666   0.43892   0.87154   0.00000  Uiso   1.00
O1708  O     0.16667   0.56108   0.79513   0.00000  Uiso   1.00
O1709  O     0.16666   0.43893   0.79510   0.00000  Uiso   1.00
O1710  O     0.16667   0.56107   0.87157   0.00000  Uiso   1.00
O1711  O     0.09058   0.50000   0.86261   0.00000  Uiso   1.00
O1712  O     0.24275   0.50000   0.80405   0.00000  Uiso   1.00
O1713  O     0.09058   0.50000   0.78617   0.00000  Uiso   1.00
O1714  O     0.24275   0.50000   0.88050   0.00000  Uiso   1.00
Zn1715 Zn    0.16667   0.49999   0.88437   0.00000  Uiso   1.00
Zn1716 Zn    0.16667   0.50001   0.78229   0.00000  Uiso   1.00
Br1717 Br    0.34367   0.57413   0.84541   0.00000  Uiso   1.00
Br1718 Br    0.66528   0.42938   0.83269   0.00000  Uiso   1.00
C1719  C     0.50201   0.41982   0.83297   0.00000  Uiso   1.00
C1720  C     0.51336   0.35503   0.87397   0.00000  Uiso   1.00
C1721  C     0.48587   0.62351   0.83643   0.00000  Uiso   1.00
C1722  C     0.50102   0.37481   0.83290   0.00000  Uiso   1.00
C1723  C     0.53388   0.52604   0.69343   0.00000  Uiso   1.00
C1724  C     0.46291   0.47679   0.97231   0.00000  Uiso   1.00
C1725  C     0.53612   0.52391   0.97903   0.00000  Uiso   1.00
C1726  C     0.46319   0.47640   0.68727   0.00000  Uiso   1.00
C1727  C     0.51917   0.37247   0.72851   0.00000  Uiso   1.00
C1728  C     0.51143   0.64450   0.96186   0.00000  Uiso   1.00
C1729  C     0.43955   0.60638   0.72601   0.00000  Uiso   1.00
C1730  C     0.49463   0.57954   0.83396   0.00000  Uiso   1.00
C1731  C     0.59823   0.38139   0.91143   0.00000  Uiso   1.00
C1732  C     0.61261   0.55325   0.73829   0.00000  Uiso   1.00
C1733  C     0.41467   0.41205   0.94403   0.00000  Uiso   1.00
C1734  C     0.62712   0.53003   0.96058   0.00000  Uiso   1.00
C1735  C     0.37169   0.46917   0.70440   0.00000  Uiso   1.00
C1736  C     0.40210   0.50548   0.82376   0.00000  Uiso   1.00
C1737  C     0.59894   0.49719   0.84324   0.00000  Uiso   1.00
C1738  C     0.34994   0.51667   0.82657   0.00000  Uiso   1.00
C1739  C     0.65204   0.48752   0.84197   0.00000  Uiso   1.00
C1740  C     0.47860   0.35181   0.79456   0.00000  Uiso   1.00
C1741  C     0.50003   0.64628   0.87675   0.00000  Uiso   1.00
C1742  C     0.46667   0.64302   0.79801   0.00000  Uiso   1.00
H1743  H     0.43939   0.35872   0.73175   0.00000  Uiso   1.00
H1744  H     0.41950   0.62354   0.69837   0.00000  Uiso   1.00
H1745  H     0.42671   0.57316   0.72201   0.00000  Uiso   1.00
H1746  H     0.48239   0.60927   0.72368   0.00000  Uiso   1.00
H1747  H     0.52286   0.39641   0.93161   0.00000  Uiso   1.00
H1748  H     0.61329   0.36382   0.88285   0.00000  Uiso   1.00
H1749  H     0.60937   0.41484   0.91002   0.00000  Uiso   1.00
H1750  H     0.61680   0.36972   0.94313   0.00000  Uiso   1.00
H1751  H     0.55832   0.58797   0.70370   0.00000  Uiso   1.00
H1752  H     0.64225   0.57330   0.72307   0.00000  Uiso   1.00
H1753  H     0.62315   0.52023   0.73566   0.00000  Uiso   1.00
H1754  H     0.53159   0.34084   0.71971   0.00000  Uiso   1.00
H1755  H     0.61283   0.56366   0.77345   0.00000  Uiso   1.00
H1756  H     0.38762   0.47301   0.93894   0.00000  Uiso   1.00
H1757  H     0.41520   0.39916   0.90924   0.00000  Uiso   1.00
H1758  H     0.37621   0.40323   0.95676   0.00000  Uiso   1.00
H1759  H     0.44629   0.39819   0.96535   0.00000  Uiso   1.00
H1760  H     0.57688   0.57870   0.96570   0.00000  Uiso   1.00
H1761  H     0.65034   0.54008   0.99189   0.00000  Uiso   1.00
H1762  H     0.64901   0.54156   0.93261   0.00000  Uiso   1.00
H1763  H     0.62427   0.49559   0.95791   0.00000  Uiso   1.00
H1764  H     0.42337   0.42174   0.70031   0.00000  Uiso   1.00
H1765  H     0.55188   0.38883   0.74957   0.00000  Uiso   1.00
H1766  H     0.34929   0.45705   0.73187   0.00000  Uiso   1.00
H1767  H     0.34994   0.45882   0.67227   0.00000  Uiso   1.00
H1768  H     0.37373   0.50358   0.70738   0.00000  Uiso   1.00
H1769  H     0.51209   0.38989   0.69738   0.00000  Uiso   1.00
H1770  H     0.45739   0.61053   0.91875   0.00000  Uiso   1.00
H1771  H     0.48887   0.33867   0.96962   0.00000  Uiso   1.00
H1772  H     0.55448   0.65140   0.96405   0.00000  Uiso   1.00
H1773  H     0.50400   0.62151   0.98730   0.00000  Uiso   1.00
H1774  H     0.39052   0.63714   0.76752   0.00000  Uiso   1.00
N1775  N     0.49999   0.49999   0.95240   0.00000  Uiso   1.00
N1776  N     0.42400   0.45297   0.70791   0.00000  Uiso   1.00
N1777  N     0.50001   0.50001   0.71427   0.00000  Uiso   1.00
N1778  N     0.47153   0.37021   0.75201   0.00000  Uiso   1.00
N1779  N     0.49320   0.62658   0.91844   0.00000  Uiso   1.00
N1780  N     0.42591   0.62251   0.76899   0.00000  Uiso   1.00
N1781  N     0.54169   0.37646   0.91130   0.00000  Uiso   1.00
N1782  N     0.56055   0.55969   0.71845   0.00000  Uiso   1.00
N1783  N     0.42151   0.45674   0.94397   0.00000  Uiso   1.00
N1784  N     0.57534   0.54735   0.95831   0.00000  Uiso   1.00
O1785  O     0.50000   0.43892   0.87154   0.00000  Uiso   1.00
O1786  O     0.50000   0.56108   0.79513   0.00000  Uiso   1.00
O1787  O     0.50000   0.43893   0.79510   0.00000  Uiso   1.00
O1788  O     0.50000   0.56107   0.87157   0.00000  Uiso   1.00
O1789  O     0.42392   0.50000   0.86261   0.00000  Uiso   1.00
O1790  O     0.57608   0.50000   0.80405   0.00000  Uiso   1.00
O1791  O     0.42392   0.50000   0.78617   0.00000  Uiso   1.00
O1792  O     0.57608   0.50000   0.88050   0.00000  Uiso   1.00
Zn1793 Zn    0.50000   0.49999   0.88437   0.00000  Uiso   1.00
Zn1794 Zn    0.50000   0.50001   0.78229   0.00000  Uiso   1.00
Br1795 Br    0.67700   0.57413   0.84541   0.00000  Uiso   1.00
Br1796 Br    0.99862   0.42938   0.83269   0.00000  Uiso   1.00
C1797  C     0.83534   0.41982   0.83297   0.00000  Uiso   1.00
C1798  C     0.84669   0.35503   0.87397   0.00000  Uiso   1.00
C1799  C     0.81921   0.62351   0.83643   0.00000  Uiso   1.00
C1800  C     0.83435   0.37481   0.83290   0.00000  Uiso   1.00
C1801  C     0.86722   0.52604   0.69343   0.00000  Uiso   1.00
C1802  C     0.79624   0.47679   0.97231   0.00000  Uiso   1.00
C1803  C     0.86946   0.52391   0.97903   0.00000  Uiso   1.00
C1804  C     0.79652   0.47640   0.68727   0.00000  Uiso   1.00
C1805  C     0.85250   0.37247   0.72851   0.00000  Uiso   1.00
C1806  C     0.84476   0.64450   0.96186   0.00000  Uiso   1.00
C1807  C     0.77289   0.60638   0.72601   0.00000  Uiso   1.00
C1808  C     0.82796   0.57954   0.83396   0.00000  Uiso   1.00
C1809  C     0.93157   0.38139   0.91143   0.00000  Uiso   1.00
C1810  C     0.94594   0.55325   0.73829   0.00000  Uiso   1.00
C1811  C     0.74800   0.41205   0.94403   0.00000  Uiso   1.00
C1812  C     0.96046   0.53003   0.96058   0.00000  Uiso   1.00
C1813  C     0.70502   0.46917   0.70440   0.00000  Uiso   1.00
C1814  C     0.73543   0.50548   0.82376   0.00000  Uiso   1.00
C1815  C     0.93227   0.49719   0.84324   0.00000  Uiso   1.00
C1816  C     0.68328   0.51667   0.82657   0.00000  Uiso   1.00
C1817  C     0.98537   0.48752   0.84197   0.00000  Uiso   1.00
C1818  C     0.81194   0.35181   0.79456   0.00000  Uiso   1.00
C1819  C     0.83336   0.64628   0.87675   0.00000  Uiso   1.00
C1820  C     0.80000   0.64302   0.79801   0.00000  Uiso   1.00
H1821  H     0.77272   0.35872   0.73175   0.00000  Uiso   1.00
H1822  H     0.75283   0.62354   0.69837   0.00000  Uiso   1.00
H1823  H     0.76004   0.57316   0.72201   0.00000  Uiso   1.00
H1824  H     0.81572   0.60927   0.72368   0.00000  Uiso   1.00
H1825  H     0.85619   0.39641   0.93161   0.00000  Uiso   1.00
H1826  H     0.94663   0.36382   0.88285   0.00000  Uiso   1.00
H1827  H     0.94270   0.41484   0.91002   0.00000  Uiso   1.00
H1828  H     0.95013   0.36972   0.94313   0.00000  Uiso   1.00
H1829  H     0.89166   0.58797   0.70370   0.00000  Uiso   1.00
H1830  H     0.97558   0.57330   0.72307   0.00000  Uiso   1.00
H1831  H     0.95649   0.52023   0.73566   0.00000  Uiso   1.00
H1832  H     0.86493   0.34084   0.71971   0.00000  Uiso   1.00
H1833  H     0.94616   0.56366   0.77345   0.00000  Uiso   1.00
H1834  H     0.72096   0.47301   0.93894   0.00000  Uiso   1.00
H1835  H     0.74853   0.39916   0.90924   0.00000  Uiso   1.00
H1836  H     0.70955   0.40323   0.95676   0.00000  Uiso   1.00
H1837  H     0.77962   0.39819   0.96535   0.00000  Uiso   1.00
H1838  H     0.91022   0.57870   0.96570   0.00000  Uiso   1.00
H1839  H     0.98367   0.54008   0.99189   0.00000  Uiso   1.00
H1840  H     0.98235   0.54156   0.93261   0.00000  Uiso   1.00
H1841  H     0.95760   0.49559   0.95791   0.00000  Uiso   1.00
H1842  H     0.75671   0.42174   0.70031   0.00000  Uiso   1.00
H1843  H     0.88522   0.38883   0.74957   0.00000  Uiso   1.00
H1844  H     0.68263   0.45705   0.73187   0.00000  Uiso   1.00
H1845  H     0.68328   0.45882   0.67227   0.00000  Uiso   1.00
H1846  H     0.70706   0.50358   0.70738   0.00000  Uiso   1.00
H1847  H     0.84542   0.38989   0.69738   0.00000  Uiso   1.00
H1848  H     0.79073   0.61053   0.91875   0.00000  Uiso   1.00
H1849  H     0.82220   0.33867   0.96962   0.00000  Uiso   1.00
H1850  H     0.88782   0.65140   0.96405   0.00000  Uiso   1.00
H1851  H     0.83733   0.62151   0.98730   0.00000  Uiso   1.00
H1852  H     0.72385   0.63714   0.76752   0.00000  Uiso   1.00
N1853  N     0.83332   0.49999   0.95240   0.00000  Uiso   1.00
N1854  N     0.75733   0.45297   0.70791   0.00000  Uiso   1.00
N1855  N     0.83335   0.50001   0.71427   0.00000  Uiso   1.00
N1856  N     0.80486   0.37021   0.75201   0.00000  Uiso   1.00
N1857  N     0.82653   0.62658   0.91844   0.00000  Uiso   1.00
N1858  N     0.75925   0.62251   0.76899   0.00000  Uiso   1.00
N1859  N     0.87502   0.37646   0.91130   0.00000  Uiso   1.00
N1860  N     0.89389   0.55969   0.71845   0.00000  Uiso   1.00
N1861  N     0.75484   0.45674   0.94397   0.00000  Uiso   1.00
N1862  N     0.90868   0.54735   0.95831   0.00000  Uiso   1.00
O1863  O     0.83333   0.43892   0.87154   0.00000  Uiso   1.00
O1864  O     0.83334   0.56108   0.79513   0.00000  Uiso   1.00
O1865  O     0.83333   0.43893   0.79510   0.00000  Uiso   1.00
O1866  O     0.83334   0.56107   0.87157   0.00000  Uiso   1.00
O1867  O     0.75725   0.50000   0.86261   0.00000  Uiso   1.00
O1868  O     0.90942   0.50000   0.80405   0.00000  Uiso   1.00
O1869  O     0.75725   0.50000   0.78617   0.00000  Uiso   1.00
O1870  O     0.90942   0.50000   0.88050   0.00000  Uiso   1.00
Zn1871 Zn    0.83333   0.49999   0.88437   0.00000  Uiso   1.00
Zn1872 Zn    0.83333   0.50001   0.78229   0.00000  Uiso   1.00
Br1873 Br    0.01034   0.90746   0.84541   0.00000  Uiso   1.00
Br1874 Br    0.33195   0.76272   0.83269   0.00000  Uiso   1.00
C1875  C     0.16867   0.75316   0.83297   0.00000  Uiso   1.00
C1876  C     0.18002   0.68836   0.87397   0.00000  Uiso   1.00
C1877  C     0.15254   0.95685   0.83643   0.00000  Uiso   1.00
C1878  C     0.16769   0.70815   0.83290   0.00000  Uiso   1.00
C1879  C     0.20055   0.85937   0.69343   0.00000  Uiso   1.00
C1880  C     0.12958   0.81013   0.97231   0.00000  Uiso   1.00
C1881  C     0.20279   0.85725   0.97903   0.00000  Uiso   1.00
C1882  C     0.12986   0.80973   0.68727   0.00000  Uiso   1.00
C1883  C     0.18584   0.70580   0.72851   0.00000  Uiso   1.00
C1884  C     0.17810   0.97783   0.96186   0.00000  Uiso   1.00
C1885  C     0.10622   0.93972   0.72601   0.00000  Uiso   1.00
C1886  C     0.16129   0.91288   0.83396   0.00000  Uiso   1.00
C1887  C     0.26490   0.71473   0.91143   0.00000  Uiso   1.00
C1888  C     0.27927   0.88658   0.73829   0.00000  Uiso   1.00
C1889  C     0.08133   0.74539   0.94403   0.00000  Uiso   1.00
C1890  C     0.29379   0.86337   0.96058   0.00000  Uiso   1.00
C1891  C     0.03836   0.80251   0.70440   0.00000  Uiso   1.00
C1892  C     0.06877   0.83881   0.82376   0.00000  Uiso   1.00
C1893  C     0.26561   0.83053   0.84324   0.00000  Uiso   1.00
C1894  C     0.01661   0.85001   0.82657   0.00000  Uiso   1.00
C1895  C     0.31870   0.82086   0.84197   0.00000  Uiso   1.00
C1896  C     0.14527   0.68514   0.79456   0.00000  Uiso   1.00
C1897  C     0.16670   0.97961   0.87675   0.00000  Uiso   1.00
C1898  C     0.13334   0.97636   0.79801   0.00000  Uiso   1.00
H1899  H     0.10605   0.69206   0.73175   0.00000  Uiso   1.00
H1900  H     0.08617   0.95687   0.69837   0.00000  Uiso   1.00
H1901  H     0.09338   0.90649   0.72201   0.00000  Uiso   1.00
H1902  H     0.14905   0.94260   0.72368   0.00000  Uiso   1.00
H1903  H     0.18953   0.72975   0.93161   0.00000  Uiso   1.00
H1904  H     0.27996   0.69715   0.88285   0.00000  Uiso   1.00
H1905  H     0.27604   0.74818   0.91002   0.00000  Uiso   1.00
H1906  H     0.28347   0.70306   0.94313   0.00000  Uiso   1.00
H1907  H     0.22499   0.92130   0.70370   0.00000  Uiso   1.00
H1908  H     0.30892   0.90663   0.72307   0.00000  Uiso   1.00
H1909  H     0.28982   0.85357   0.73566   0.00000  Uiso   1.00
H1910  H     0.19826   0.67417   0.71971   0.00000  Uiso   1.00
H1911  H     0.27949   0.89699   0.77345   0.00000  Uiso   1.00
H1912  H     0.05429   0.80635   0.93894   0.00000  Uiso   1.00
H1913  H     0.08187   0.73249   0.90924   0.00000  Uiso   1.00
H1914  H     0.04288   0.73656   0.95676   0.00000  Uiso   1.00
H1915  H     0.11296   0.73153   0.96535   0.00000  Uiso   1.00
H1916  H     0.24355   0.91204   0.96570   0.00000  Uiso   1.00
H1917  H     0.31700   0.87341   0.99189   0.00000  Uiso   1.00
H1918  H     0.31568   0.87489   0.93261   0.00000  Uiso   1.00
H1919  H     0.29093   0.82892   0.95791   0.00000  Uiso   1.00
H1920  H     0.09004   0.75507   0.70031   0.00000  Uiso   1.00
H1921  H     0.21855   0.72217   0.74957   0.00000  Uiso   1.00
H1922  H     0.01596   0.79039   0.73187   0.00000  Uiso   1.00
H1923  H     0.01661   0.79215   0.67227   0.00000  Uiso   1.00
H1924  H     0.04039   0.83691   0.70738   0.00000  Uiso   1.00
H1925  H     0.17875   0.72322   0.69738   0.00000  Uiso   1.00
H1926  H     0.12406   0.94387   0.91875   0.00000  Uiso   1.00
H1927  H     0.15553   0.67200   0.96962   0.00000  Uiso   1.00
H1928  H     0.22115   0.98473   0.96405   0.00000  Uiso   1.00
H1929  H     0.17067   0.95484   0.98730   0.00000  Uiso   1.00
H1930  H     0.05718   0.97047   0.76752   0.00000  Uiso   1.00
N1931  N     0.16665   0.83332   0.95240   0.00000  Uiso   1.00
N1932  N     0.09067   0.78631   0.70791   0.00000  Uiso   1.00
N1933  N     0.16668   0.83334   0.71427   0.00000  Uiso   1.00
N1934  N     0.13819   0.70355   0.75201   0.00000  Uiso   1.00
N1935  N     0.15986   0.95991   0.91844   0.00000  Uiso   1.00
N1936  N     0.09258   0.95584   0.76899   0.00000  Uiso   1.00
N1937  N     0.20835   0.70979   0.91130   0.00000  Uiso   1.00
N1938  N     0.22722   0.89302   0.71845   0.00000  Uiso   1.00
N1939  N     0.08818   0.79007   0.94397   0.00000  Uiso   1.00
N1940  N     0.24201   0.88069   0.95831   0.00000  Uiso   1.00
O1941  O     0.16666   0.77225   0.87154   0.00000  Uiso   1.00
O1942  O     0.16667   0.89442   0.79513   0.00000  Uiso   1.00
O1943  O     0.16666   0.77226   0.79510   0.00000  Uiso   1.00
O1944  O     0.16667   0.89441   0.87157   0.00000  Uiso   1.00
O1945  O     0.09058   0.83333   0.86261   0.00000  Uiso   1.00
O1946  O     0.24275   0.83334   0.80405   0.00000  Uiso   1.00
O1947  O     0.09058   0.83334   0.78617   0.00000  Uiso   1.00
O1948  O     0.24275   0.83333   0.88050   0.00000  Uiso   1.00
Zn1949 Zn    0.16667   0.83333   0.88437   0.00000  Uiso   1.00
Zn1950 Zn    0.16667   0.83334   0.78229   0.00000  Uiso   1.00
Br1951 Br    0.34367   0.90746   0.84541   0.00000  Uiso   1.00
Br1952 Br    0.66528   0.76272   0.83269   0.00000  Uiso   1.00
C1953  C     0.50201   0.75316   0.83297   0.00000  Uiso   1.00
C1954  C     0.51336   0.68836   0.87397   0.00000  Uiso   1.00
C1955  C     0.48587   0.95685   0.83643   0.00000  Uiso   1.00
C1956  C     0.50102   0.70815   0.83290   0.00000  Uiso   1.00
C1957  C     0.53388   0.85937   0.69343   0.00000  Uiso   1.00
C1958  C     0.46291   0.81013   0.97231   0.00000  Uiso   1.00
C1959  C     0.53612   0.85725   0.97903   0.00000  Uiso   1.00
C1960  C     0.46319   0.80973   0.68727   0.00000  Uiso   1.00
C1961  C     0.51917   0.70580   0.72851   0.00000  Uiso   1.00
C1962  C     0.51143   0.97783   0.96186   0.00000  Uiso   1.00
C1963  C     0.43955   0.93972   0.72601   0.00000  Uiso   1.00
C1964  C     0.49463   0.91288   0.83396   0.00000  Uiso   1.00
C1965  C     0.59823   0.71473   0.91143   0.00000  Uiso   1.00
C1966  C     0.61261   0.88658   0.73829   0.00000  Uiso   1.00
C1967  C     0.41467   0.74539   0.94403   0.00000  Uiso   1.00
C1968  C     0.62712   0.86337   0.96058   0.00000  Uiso   1.00
C1969  C     0.37169   0.80251   0.70440   0.00000  Uiso   1.00
C1970  C     0.40210   0.83881   0.82376   0.00000  Uiso   1.00
C1971  C     0.59894   0.83053   0.84324   0.00000  Uiso   1.00
C1972  C     0.34994   0.85001   0.82657   0.00000  Uiso   1.00
C1973  C     0.65204   0.82086   0.84197   0.00000  Uiso   1.00
C1974  C     0.47860   0.68514   0.79456   0.00000  Uiso   1.00
C1975  C     0.50003   0.97961   0.87675   0.00000  Uiso   1.00
C1976  C     0.46667   0.97636   0.79801   0.00000  Uiso   1.00
H1977  H     0.43939   0.69206   0.73175   0.00000  Uiso   1.00
H1978  H     0.41950   0.95687   0.69837   0.00000  Uiso   1.00
H1979  H     0.42671   0.90649   0.72201   0.00000  Uiso   1.00
H1980  H     0.48239   0.94260   0.72368   0.00000  Uiso   1.00
H1981  H     0.52286   0.72975   0.93161   0.00000  Uiso   1.00
H1982  H     0.61329   0.69715   0.88285   0.00000  Uiso   1.00
H1983  H     0.60937   0.74818   0.91002   0.00000  Uiso   1.00
H1984  H     0.61680   0.70306   0.94313   0.00000  Uiso   1.00
H1985  H     0.55832   0.92130   0.70370   0.00000  Uiso   1.00
H1986  H     0.64225   0.90663   0.72307   0.00000  Uiso   1.00
H1987  H     0.62315   0.85357   0.73566   0.00000  Uiso   1.00
H1988  H     0.53159   0.67417   0.71971   0.00000  Uiso   1.00
H1989  H     0.61283   0.89699   0.77345   0.00000  Uiso   1.00
H1990  H     0.38762   0.80635   0.93894   0.00000  Uiso   1.00
H1991  H     0.41520   0.73249   0.90924   0.00000  Uiso   1.00
H1992  H     0.37621   0.73656   0.95676   0.00000  Uiso   1.00
H1993  H     0.44629   0.73153   0.96535   0.00000  Uiso   1.00
H1994  H     0.57688   0.91204   0.96570   0.00000  Uiso   1.00
H1995  H     0.65034   0.87341   0.99189   0.00000  Uiso   1.00
H1996  H     0.64901   0.87489   0.93261   0.00000  Uiso   1.00
H1997  H     0.62427   0.82892   0.95791   0.00000  Uiso   1.00
H1998  H     0.42337   0.75507   0.70031   0.00000  Uiso   1.00
H1999  H     0.55188   0.72217   0.74957   0.00000  Uiso   1.00
H2000  H     0.34929   0.79039   0.73187   0.00000  Uiso   1.00
H2001  H     0.34994   0.79215   0.67227   0.00000  Uiso   1.00
H2002  H     0.37373   0.83691   0.70738   0.00000  Uiso   1.00
H2003  H     0.51209   0.72322   0.69738   0.00000  Uiso   1.00
H2004  H     0.45739   0.94387   0.91875   0.00000  Uiso   1.00
H2005  H     0.48887   0.67200   0.96962   0.00000  Uiso   1.00
H2006  H     0.55448   0.98473   0.96405   0.00000  Uiso   1.00
H2007  H     0.50400   0.95484   0.98730   0.00000  Uiso   1.00
H2008  H     0.39052   0.97047   0.76752   0.00000  Uiso   1.00
N2009  N     0.49999   0.83332   0.95240   0.00000  Uiso   1.00
N2010  N     0.42400   0.78631   0.70791   0.00000  Uiso   1.00
N2011  N     0.50001   0.83334   0.71427   0.00000  Uiso   1.00
N2012  N     0.47153   0.70355   0.75201   0.00000  Uiso   1.00
N2013  N     0.49320   0.95991   0.91844   0.00000  Uiso   1.00
N2014  N     0.42591   0.95584   0.76899   0.00000  Uiso   1.00
N2015  N     0.54169   0.70979   0.91130   0.00000  Uiso   1.00
N2016  N     0.56055   0.89302   0.71845   0.00000  Uiso   1.00
N2017  N     0.42151   0.79007   0.94397   0.00000  Uiso   1.00
N2018  N     0.57534   0.88069   0.95831   0.00000  Uiso   1.00
O2019  O     0.50000   0.77225   0.87154   0.00000  Uiso   1.00
O2020  O     0.50000   0.89442   0.79513   0.00000  Uiso   1.00
O2021  O     0.50000   0.77226   0.79510   0.00000  Uiso   1.00
O2022  O     0.50000   0.89441   0.87157   0.00000  Uiso   1.00
O2023  O     0.42392   0.83333   0.86261   0.00000  Uiso   1.00
O2024  O     0.57608   0.83334   0.80405   0.00000  Uiso   1.00
O2025  O     0.42392   0.83334   0.78617   0.00000  Uiso   1.00
O2026  O     0.57608   0.83333   0.88050   0.00000  Uiso   1.00
Zn2027 Zn    0.50000   0.83333   0.88437   0.00000  Uiso   1.00
Zn2028 Zn    0.50000   0.83334   0.78229   0.00000  Uiso   1.00
Br2029 Br    0.67700   0.90746   0.84541   0.00000  Uiso   1.00
Br2030 Br    0.99862   0.76272   0.83269   0.00000  Uiso   1.00
C2031  C     0.83534   0.75316   0.83297   0.00000  Uiso   1.00
C2032  C     0.84669   0.68836   0.87397   0.00000  Uiso   1.00
C2033  C     0.81921   0.95685   0.83643   0.00000  Uiso   1.00
C2034  C     0.83435   0.70815   0.83290   0.00000  Uiso   1.00
C2035  C     0.86722   0.85937   0.69343   0.00000  Uiso   1.00
C2036  C     0.79624   0.81013   0.97231   0.00000  Uiso   1.00
C2037  C     0.86946   0.85725   0.97903   0.00000  Uiso   1.00
C2038  C     0.79652   0.80973   0.68727   0.00000  Uiso   1.00
C2039  C     0.85250   0.70580   0.72851   0.00000  Uiso   1.00
C2040  C     0.84476   0.97783   0.96186   0.00000  Uiso   1.00
C2041  C     0.77289   0.93972   0.72601   0.00000  Uiso   1.00
C2042  C     0.82796   0.91288   0.83396   0.00000  Uiso   1.00
C2043  C     0.93157   0.71473   0.91143   0.00000  Uiso   1.00
C2044  C     0.94594   0.88658   0.73829   0.00000  Uiso   1.00
C2045  C     0.74800   0.74539   0.94403   0.00000  Uiso   1.00
C2046  C     0.96046   0.86337   0.96058   0.00000  Uiso   1.00
C2047  C     0.70502   0.80251   0.70440   0.00000  Uiso   1.00
C2048  C     0.73543   0.83881   0.82376   0.00000  Uiso   1.00
C2049  C     0.93227   0.83053   0.84324   0.00000  Uiso   1.00
C2050  C     0.68328   0.85001   0.82657   0.00000  Uiso   1.00
C2051  C     0.98537   0.82086   0.84197   0.00000  Uiso   1.00
C2052  C     0.81194   0.68514   0.79456   0.00000  Uiso   1.00
C2053  C     0.83336   0.97961   0.87675   0.00000  Uiso   1.00
C2054  C     0.80000   0.97636   0.79801   0.00000  Uiso   1.00
H2055  H     0.77272   0.69206   0.73175   0.00000  Uiso   1.00
H2056  H     0.75283   0.95687   0.69837   0.00000  Uiso   1.00
H2057  H     0.76004   0.90649   0.72201   0.00000  Uiso   1.00
H2058  H     0.81572   0.94260   0.72368   0.00000  Uiso   1.00
H2059  H     0.85619   0.72975   0.93161   0.00000  Uiso   1.00
H2060  H     0.94663   0.69715   0.88285   0.00000  Uiso   1.00
H2061  H     0.94270   0.74818   0.91002   0.00000  Uiso   1.00
H2062  H     0.95013   0.70306   0.94313   0.00000  Uiso   1.00
H2063  H     0.89166   0.92130   0.70370   0.00000  Uiso   1.00
H2064  H     0.97558   0.90663   0.72307   0.00000  Uiso   1.00
H2065  H     0.95649   0.85357   0.73566   0.00000  Uiso   1.00
H2066  H     0.86493   0.67417   0.71971   0.00000  Uiso   1.00
H2067  H     0.94616   0.89699   0.77345   0.00000  Uiso   1.00
H2068  H     0.72096   0.80635   0.93894   0.00000  Uiso   1.00
H2069  H     0.74853   0.73249   0.90924   0.00000  Uiso   1.00
H2070  H     0.70955   0.73656   0.95676   0.00000  Uiso   1.00
H2071  H     0.77962   0.73153   0.96535   0.00000  Uiso   1.00
H2072  H     0.91022   0.91204   0.96570   0.00000  Uiso   1.00
H2073  H     0.98367   0.87341   0.99189   0.00000  Uiso   1.00
H2074  H     0.98235   0.87489   0.93261   0.00000  Uiso   1.00
H2075  H     0.95760   0.82892   0.95791   0.00000  Uiso   1.00
H2076  H     0.75671   0.75507   0.70031   0.00000  Uiso   1.00
H2077  H     0.88522   0.72217   0.74957   0.00000  Uiso   1.00
H2078  H     0.68263   0.79039   0.73187   0.00000  Uiso   1.00
H2079  H     0.68328   0.79215   0.67227   0.00000  Uiso   1.00
H2080  H     0.70706   0.83691   0.70738   0.00000  Uiso   1.00
H2081  H     0.84542   0.72322   0.69738   0.00000  Uiso   1.00
H2082  H     0.79073   0.94387   0.91875   0.00000  Uiso   1.00
H2083  H     0.82220   0.67200   0.96962   0.00000  Uiso   1.00
H2084  H     0.88782   0.98473   0.96405   0.00000  Uiso   1.00
H2085  H     0.83733   0.95484   0.98730   0.00000  Uiso   1.00
H2086  H     0.72385   0.97047   0.76752   0.00000  Uiso   1.00
N2087  N     0.83332   0.83332   0.95240   0.00000  Uiso   1.00
N2088  N     0.75733   0.78631   0.70791   0.00000  Uiso   1.00
N2089  N     0.83335   0.83334   0.71427   0.00000  Uiso   1.00
N2090  N     0.80486   0.70355   0.75201   0.00000  Uiso   1.00
N2091  N     0.82653   0.95991   0.91844   0.00000  Uiso   1.00
N2092  N     0.75925   0.95584   0.76899   0.00000  Uiso   1.00
N2093  N     0.87502   0.70979   0.91130   0.00000  Uiso   1.00
N2094  N     0.89389   0.89302   0.71845   0.00000  Uiso   1.00
N2095  N     0.75484   0.79007   0.94397   0.00000  Uiso   1.00
N2096  N     0.90868   0.88069   0.95831   0.00000  Uiso   1.00
O2097  O     0.83333   0.77225   0.87154   0.00000  Uiso   1.00
O2098  O     0.83334   0.89442   0.79513   0.00000  Uiso   1.00
O2099  O     0.83333   0.77226   0.79510   0.00000  Uiso   1.00
O2100  O     0.83334   0.89441   0.87157   0.00000  Uiso   1.00
O2101  O     0.75725   0.83333   0.86261   0.00000  Uiso   1.00
O2102  O     0.90942   0.83334   0.80405   0.00000  Uiso   1.00
O2103  O     0.75725   0.83334   0.78617   0.00000  Uiso   1.00
O2104  O     0.90942   0.83333   0.88050   0.00000  Uiso   1.00
Zn2105 Zn    0.83333   0.83333   0.88437   0.00000  Uiso   1.00
Zn2106 Zn    0.83333   0.83334   0.78229   0.00000  Uiso   1.00
loop_
_geom_bond_atom_site_label_1
_geom_bond_atom_site_label_2
_geom_bond_distance
_geom_bond_site_symmetry_2
_ccdc_geom_bond_type
Br1    C22     1.936   .     S
Br2    C23     1.934   .     S
C3     O71     1.305   .     A
C3     O69     1.295   .     A
C3     C6      1.452   .     S
C4     N65     1.425   .     S
C4     C6      1.421   .     A
C4     C493    1.394   1_545 S
C5     C14     1.445   .     S
C5     C25     1.406   .     A
C5     C26     1.392   .     A
C6     C24     1.415   .     A
C7     N66     1.419   .     S
C7     N61     1.379   .     A
C7     C1413   1.432   1_554 S
C8     N59     1.368   .     A
C8     N67     1.422   .     S
C8     C712    1.444   .     S
C9     N68     1.423   .     S
C9     N59     1.367   .     A
C9     C709    1.432   .     S
C10    N61     1.379   .     A
C10    N60     1.421   .     S
C10    C1412   1.444   1_554 S
C11    H38     1.109   .     S
C11    H49     1.111   .     S
C11    H53     1.109   .     S
C11    N62     1.450   .     S
C12    H56     1.107   .     S
C12    H57     1.101   .     S
C12    N63     1.440   .     S
C12    H289    1.103   .     S
C13    H28     1.111   .     S
C13    N64     1.443   .     S
C13    H29     1.109   .     S
C13    H30     1.099   .     S
C14    O70     1.307   .     A
C14    O72     1.290   .     A
C15    H34     1.109   .     S
C15    H32     1.112   .     S
C15    H33     1.109   .     S
C15    N65     1.443   .     S
C16    H37     1.110   .     S
C16    H36     1.110   .     S
C16    H39     1.093   .     S
C16    N66     1.435   .     S
C17    H43     1.104   .     S
C17    H41     1.109   .     S
C17    N67     1.446   .     S
C17    H42     1.109   .     S
C18    H47     1.111   .     S
C18    H46     1.107   .     S
C18    N68     1.449   .     S
C18    H45     1.100   .     S
C19    H52     1.110   .     S
C19    H51     1.106   .     S
C19    N60     1.447   .     S
C19    H50     1.110   .     S
C20    O73     1.268   .     A
C20    O75     1.302   .     A
C20    C22     1.398   .     S
C21    O76     1.299   .     A
C21    C23     1.402   .     S
C21    O74     1.274   .     A
C22    C179    1.327   1_455 S
C23    C100    1.327   .     S
C24    N62     1.423   .     S
C24    C494    1.391   1_545 S
C25    N63     1.437   .     S
C25    C238    1.394   .     S
C26    N64     1.428   .     S
C26    C258    1.391   .     S
H27    N62     1.029   .     S
H31    N65     1.028   .     S
H35    N66     1.028   .     S
H40    N67     1.030   .     S
H44    N68     1.027   .     S
H48    N60     1.025   .     S
H54    N63     1.033   .     S
H55    C480    1.103   1_545 S
H58    N64     1.032   .     S
N59    Zn77    2.034   .     S
N61    Zn78    2.034   .     S
O69    Zn77    1.996   .     S
O70    Zn78    1.996   .     S
O71    Zn78    2.020   .     S
O72    Zn77    2.020   .     S
O73    Zn77    1.995   .     S
O74    Zn78    1.995   .     S
O75    Zn78    1.951   .     S
O76    Zn77    1.951   .     S
Br79   C100    1.936   .     S
Br80   C101    1.934   .     S
C81    O149    1.305   .     A
C81    O147    1.295   .     A
C81    C84     1.452   .     S
C82    N143    1.425   .     S
C82    C84     1.421   .     A
C82    C571    1.394   1_545 S
C83    C92     1.445   .     S
C83    C103    1.406   .     A
C83    C104    1.392   .     A
C84    C102    1.415   .     A
C85    N144    1.419   .     S
C85    N139    1.379   .     A
C85    C1491   1.432   1_554 S
C86    N137    1.368   .     A
C86    N145    1.422   .     S
C86    C790    1.444   .     S
C87    N146    1.423   .     S
C87    N137    1.367   .     A
C87    C787    1.432   .     S
C88    N139    1.379   .     A
C88    N138    1.421   .     S
C88    C1490   1.444   1_554 S
C89    H116    1.109   .     S
C89    H127    1.111   .     S
C89    H131    1.109   .     S
C89    N140    1.450   .     S
C90    H134    1.107   .     S
C90    H135    1.101   .     S
C90    N141    1.440   .     S
C90    H367    1.103   .     S
C91    H106    1.111   .     S
C91    N142    1.443   .     S
C91    H107    1.109   .     S
C91    H108    1.099   .     S
C92    O148    1.307   .     A
C92    O150    1.290   .     A
C93    H112    1.109   .     S
C93    H110    1.112   .     S
C93    H111    1.109   .     S
C93    N143    1.443   .     S
C94    H115    1.110   .     S
C94    H114    1.110   .     S
C94    H117    1.093   .     S
C94    N144    1.435   .     S
C95    H121    1.104   .     S
C95    H119    1.109   .     S
C95    N145    1.446   .     S
C95    H120    1.109   .     S
C96    H125    1.111   .     S
C96    H124    1.107   .     S
C96    N146    1.449   .     S
C96    H123    1.100   .     S
C97    H130    1.110   .     S
C97    H129    1.106   .     S
C97    N138    1.447   .     S
C97    H128    1.110   .     S
C98    O151    1.268   .     A
C98    O153    1.302   .     A
C98    C100    1.398   .     S
C99    O154    1.299   .     A
C99    C101    1.402   .     S
C99    O152    1.274   .     A
C101   C178    1.327   .     S
C102   N140    1.423   .     S
C102   C572    1.391   1_545 S
C103   N141    1.437   .     S
C103   C316    1.394   .     S
C104   N142    1.428   .     S
C104   C336    1.391   .     S
H105   N140    1.029   .     S
H109   N143    1.028   .     S
H113   N144    1.028   .     S
H118   N145    1.030   .     S
H122   N146    1.027   .     S
H126   N138    1.025   .     S
H132   N141    1.033   .     S
H133   C558    1.103   1_545 S
H136   N142    1.032   .     S
N137   Zn155   2.034   .     S
N139   Zn156   2.034   .     S
O147   Zn155   1.996   .     S
O148   Zn156   1.996   .     S
O149   Zn156   2.020   .     S
O150   Zn155   2.020   .     S
O151   Zn155   1.995   .     S
O152   Zn156   1.995   .     S
O153   Zn156   1.951   .     S
O154   Zn155   1.951   .     S
Br157  C178    1.936   .     S
Br158  C179    1.934   .     S
C159   O227    1.305   .     A
C159   O225    1.295   .     A
C159   C162    1.452   .     S
C160   N221    1.425   .     S
C160   C162    1.421   .     A
C160   C649    1.394   1_545 S
C161   C170    1.445   .     S
C161   C181    1.406   .     A
C161   C182    1.392   .     A
C162   C180    1.415   .     A
C163   N222    1.419   .     S
C163   N217    1.379   .     A
C163   C1569   1.432   1_554 S
C164   N215    1.368   .     A
C164   N223    1.422   .     S
C164   C868    1.444   .     S
C165   N224    1.423   .     S
C165   N215    1.367   .     A
C165   C865    1.432   .     S
C166   N217    1.379   .     A
C166   N216    1.421   .     S
C166   C1568   1.444   1_554 S
C167   H194    1.109   .     S
C167   H205    1.111   .     S
C167   H209    1.109   .     S
C167   N218    1.450   .     S
C168   H212    1.107   .     S
C168   H213    1.101   .     S
C168   N219    1.440   .     S
C168   H445    1.103   .     S
C169   H184    1.111   .     S
C169   N220    1.443   .     S
C169   H185    1.109   .     S
C169   H186    1.099   .     S
C170   O226    1.307   .     A
C170   O228    1.290   .     A
C171   H190    1.109   .     S
C171   H188    1.112   .     S
C171   H189    1.109   .     S
C171   N221    1.443   .     S
C172   H193    1.110   .     S
C172   H192    1.110   .     S
C172   H195    1.093   .     S
C172   N222    1.435   .     S
C173   H199    1.104   .     S
C173   H197    1.109   .     S
C173   N223    1.446   .     S
C173   H198    1.109   .     S
C174   H203    1.111   .     S
C174   H202    1.107   .     S
C174   N224    1.449   .     S
C174   H201    1.100   .     S
C175   H208    1.110   .     S
C175   H207    1.106   .     S
C175   N216    1.447   .     S
C175   H206    1.110   .     S
C176   O229    1.268   .     A
C176   O231    1.302   .     A
C176   C178    1.398   .     S
C177   O232    1.299   .     A
C177   C179    1.402   .     S
C177   O230    1.274   .     A
C179   C22     1.327   1_655 S
C180   N218    1.423   .     S
C180   C650    1.391   1_545 S
C181   N219    1.437   .     S
C181   C394    1.394   .     S
C182   N220    1.428   .     S
C182   C414    1.391   .     S
H183   N218    1.029   .     S
H187   N221    1.028   .     S
H191   N222    1.028   .     S
H196   N223    1.030   .     S
H200   N224    1.027   .     S
H204   N216    1.025   .     S
H210   N219    1.033   .     S
H211   C636    1.103   1_545 S
H214   N220    1.032   .     S
N215   Zn233   2.034   .     S
N217   Zn234   2.034   .     S
O225   Zn233   1.996   .     S
O226   Zn234   1.996   .     S
O227   Zn234   2.020   .     S
O228   Zn233   2.020   .     S
O229   Zn233   1.995   .     S
O230   Zn234   1.995   .     S
O231   Zn234   1.951   .     S
O232   Zn233   1.951   .     S
Br235  C256    1.936   .     S
Br236  C257    1.934   .     S
C237   O305    1.305   .     A
C237   O303    1.295   .     A
C237   C240    1.452   .     S
C238   N299    1.425   .     S
C238   C240    1.421   .     A
C239   C248    1.445   .     S
C239   C259    1.406   .     A
C239   C260    1.392   .     A
C240   C258    1.415   .     A
C241   N300    1.419   .     S
C241   N295    1.379   .     A
C241   C1647   1.432   1_554 S
C242   N293    1.368   .     A
C242   N301    1.422   .     S
C242   C946    1.444   .     S
C243   N302    1.423   .     S
C243   N293    1.367   .     A
C243   C943    1.432   .     S
C244   N295    1.379   .     A
C244   N294    1.421   .     S
C244   C1646   1.444   1_554 S
C245   H272    1.109   .     S
C245   H283    1.111   .     S
C245   H287    1.109   .     S
C245   N296    1.450   .     S
C246   H290    1.107   .     S
C246   H291    1.101   .     S
C246   N297    1.440   .     S
C246   H523    1.103   .     S
C247   H262    1.111   .     S
C247   N298    1.443   .     S
C247   H263    1.109   .     S
C247   H264    1.099   .     S
C248   O304    1.307   .     A
C248   O306    1.290   .     A
C249   H268    1.109   .     S
C249   H266    1.112   .     S
C249   H267    1.109   .     S
C249   N299    1.443   .     S
C250   H271    1.110   .     S
C250   H270    1.110   .     S
C250   H273    1.093   .     S
C250   N300    1.435   .     S
C251   H277    1.104   .     S
C251   H275    1.109   .     S
C251   N301    1.446   .     S
C251   H276    1.109   .     S
C252   H281    1.111   .     S
C252   H280    1.107   .     S
C252   N302    1.449   .     S
C252   H279    1.100   .     S
C253   H286    1.110   .     S
C253   H285    1.106   .     S
C253   N294    1.447   .     S
C253   H284    1.110   .     S
C254   O307    1.268   .     A
C254   O309    1.302   .     A
C254   C256    1.398   .     S
C255   O310    1.299   .     A
C255   C257    1.402   .     S
C255   O308    1.274   .     A
C256   C413    1.327   1_455 S
C257   C334    1.327   .     S
C258   N296    1.423   .     S
C259   N297    1.437   .     S
C259   C472    1.394   .     S
C260   N298    1.428   .     S
C260   C492    1.391   .     S
H261   N296    1.029   .     S
H265   N299    1.028   .     S
H269   N300    1.028   .     S
H274   N301    1.030   .     S
H278   N302    1.027   .     S
H282   N294    1.025   .     S
H288   N297    1.033   .     S
H292   N298    1.032   .     S
N293   Zn311   2.034   .     S
N295   Zn312   2.034   .     S
O303   Zn311   1.996   .     S
O304   Zn312   1.996   .     S
O305   Zn312   2.020   .     S
O306   Zn311   2.020   .     S
O307   Zn311   1.995   .     S
O308   Zn312   1.995   .     S
O309   Zn312   1.951   .     S
O310   Zn311   1.951   .     S
Br313  C334    1.936   .     S
Br314  C335    1.934   .     S
C315   O383    1.305   .     A
C315   O381    1.295   .     A
C315   C318    1.452   .     S
C316   N377    1.425   .     S
C316   C318    1.421   .     A
C317   C326    1.445   .     S
C317   C337    1.406   .     A
C317   C338    1.392   .     A
C318   C336    1.415   .     A
C319   N378    1.419   .     S
C319   N373    1.379   .     A
C319   C1725   1.432   1_554 S
C320   N371    1.368   .     A
C320   N379    1.422   .     S
C320   C1024   1.444   .     S
C321   N380    1.423   .     S
C321   N371    1.367   .     A
C321   C1021   1.432   .     S
C322   N373    1.379   .     A
C322   N372    1.421   .     S
C322   C1724   1.444   1_554 S
C323   H350    1.109   .     S
C323   H361    1.111   .     S
C323   H365    1.109   .     S
C323   N374    1.450   .     S
C324   H368    1.107   .     S
C324   H369    1.101   .     S
C324   N375    1.440   .     S
C324   H601    1.103   .     S
C325   H340    1.111   .     S
C325   N376    1.443   .     S
C325   H341    1.109   .     S
C325   H342    1.099   .     S
C326   O382    1.307   .     A
C326   O384    1.290   .     A
C327   H346    1.109   .     S
C327   H344    1.112   .     S
C327   H345    1.109   .     S
C327   N377    1.443   .     S
C328   H349    1.110   .     S
C328   H348    1.110   .     S
C328   H351    1.093   .     S
C328   N378    1.435   .     S
C329   H355    1.104   .     S
C329   H353    1.109   .     S
C329   N379    1.446   .     S
C329   H354    1.109   .     S
C330   H359    1.111   .     S
C330   H358    1.107   .     S
C330   N380    1.449   .     S
C330   H357    1.100   .     S
C331   H364    1.110   .     S
C331   H363    1.106   .     S
C331   N372    1.447   .     S
C331   H362    1.110   .     S
C332   O385    1.268   .     A
C332   O387    1.302   .     A
C332   C334    1.398   .     S
C333   O388    1.299   .     A
C333   C335    1.402   .     S
C333   O386    1.274   .     A
C335   C412    1.327   .     S
C336   N374    1.423   .     S
C337   N375    1.437   .     S
C337   C550    1.394   .     S
C338   N376    1.428   .     S
C338   C570    1.391   .     S
H339   N374    1.029   .     S
H343   N377    1.028   .     S
H347   N378    1.028   .     S
H352   N379    1.030   .     S
H356   N380    1.027   .     S
H360   N372    1.025   .     S
H366   N375    1.033   .     S
H370   N376    1.032   .     S
N371   Zn389   2.034   .     S
N373   Zn390   2.034   .     S
O381   Zn389   1.996   .     S
O382   Zn390   1.996   .     S
O383   Zn390   2.020   .     S
O384   Zn389   2.020   .     S
O385   Zn389   1.995   .     S
O386   Zn390   1.995   .     S
O387   Zn390   1.951   .     S
O388   Zn389   1.951   .     S
Br391  C412    1.936   .     S
Br392  C413    1.934   .     S
C393   O461    1.305   .     A
C393   O459    1.295   .     A
C393   C396    1.452   .     S
C394   N455    1.425   .     S
C394   C396    1.421   .     A
C395   C404    1.445   .     S
C395   C415    1.406   .     A
C395   C416    1.392   .     A
C396   C414    1.415   .     A
C397   N456    1.419   .     S
C397   N451    1.379   .     A
C397   C1803   1.432   1_554 S
C398   N449    1.368   .     A
C398   N457    1.422   .     S
C398   C1102   1.444   .     S
C399   N458    1.423   .     S
C399   N449    1.367   .     A
C399   C1099   1.432   .     S
C400   N451    1.379   .     A
C400   N450    1.421   .     S
C400   C1802   1.444   1_554 S
C401   H428    1.109   .     S
C401   H439    1.111   .     S
C401   H443    1.109   .     S
C401   N452    1.450   .     S
C402   H446    1.107   .     S
C402   H447    1.101   .     S
C402   N453    1.440   .     S
C402   H679    1.103   .     S
C403   H418    1.111   .     S
C403   N454    1.443   .     S
C403   H419    1.109   .     S
C403   H420    1.099   .     S
C404   O460    1.307   .     A
C404   O462    1.290   .     A
C405   H424    1.109   .     S
C405   H422    1.112   .     S
C405   H423    1.109   .     S
C405   N455    1.443   .     S
C406   H427    1.110   .     S
C406   H426    1.110   .     S
C406   H429    1.093   .     S
C406   N456    1.435   .     S
C407   H433    1.104   .     S
C407   H431    1.109   .     S
C407   N457    1.446   .     S
C407   H432    1.109   .     S
C408   H437    1.111   .     S
C408   H436    1.107   .     S
C408   N458    1.449   .     S
C408   H435    1.100   .     S
C409   H442    1.110   .     S
C409   H441    1.106   .     S
C409   N450    1.447   .     S
C409   H440    1.110   .     S
C410   O463    1.268   .     A
C410   O465    1.302   .     A
C410   C412    1.398   .     S
C411   O466    1.299   .     A
C411   C413    1.402   .     S
C411   O464    1.274   .     A
C413   C256    1.327   1_655 S
C414   N452    1.423   .     S
C415   N453    1.437   .     S
C415   C628    1.394   .     S
C416   N454    1.428   .     S
C416   C648    1.391   .     S
H417   N452    1.029   .     S
H421   N455    1.028   .     S
H425   N456    1.028   .     S
H430   N457    1.030   .     S
H434   N458    1.027   .     S
H438   N450    1.025   .     S
H444   N453    1.033   .     S
H448   N454    1.032   .     S
N449   Zn467   2.034   .     S
N451   Zn468   2.034   .     S
O459   Zn467   1.996   .     S
O460   Zn468   1.996   .     S
O461   Zn468   2.020   .     S
O462   Zn467   2.020   .     S
O463   Zn467   1.995   .     S
O464   Zn468   1.995   .     S
O465   Zn468   1.951   .     S
O466   Zn467   1.951   .     S
Br469  C490    1.936   .     S
Br470  C491    1.934   .     S
C471   O539    1.305   .     A
C471   O537    1.295   .     A
C471   C474    1.452   .     S
C472   N533    1.425   .     S
C472   C474    1.421   .     A
C473   C482    1.445   .     S
C473   C493    1.406   .     A
C473   C494    1.392   .     A
C474   C492    1.415   .     A
C475   N534    1.419   .     S
C475   N529    1.379   .     A
C475   C1881   1.432   1_554 S
C476   N527    1.368   .     A
C476   N535    1.422   .     S
C476   C1180   1.444   .     S
C477   N536    1.423   .     S
C477   N527    1.367   .     A
C477   C1177   1.432   .     S
C478   N529    1.379   .     A
C478   N528    1.421   .     S
C478   C1880   1.444   1_554 S
C479   H506    1.109   .     S
C479   H517    1.111   .     S
C479   H521    1.109   .     S
C479   N530    1.450   .     S
C480   H524    1.107   .     S
C480   H525    1.101   .     S
C480   N531    1.440   .     S
C480   H55     1.103   1_565 S
C481   H496    1.111   .     S
C481   N532    1.443   .     S
C481   H497    1.109   .     S
C481   H498    1.099   .     S
C482   O538    1.307   .     A
C482   O540    1.290   .     A
C483   H502    1.109   .     S
C483   H500    1.112   .     S
C483   H501    1.109   .     S
C483   N533    1.443   .     S
C484   H505    1.110   .     S
C484   H504    1.110   .     S
C484   H507    1.093   .     S
C484   N534    1.435   .     S
C485   H511    1.104   .     S
C485   H509    1.109   .     S
C485   N535    1.446   .     S
C485   H510    1.109   .     S
C486   H515    1.111   .     S
C486   H514    1.107   .     S
C486   N536    1.449   .     S
C486   H513    1.100   .     S
C487   H520    1.110   .     S
C487   H519    1.106   .     S
C487   N528    1.447   .     S
C487   H518    1.110   .     S
C488   O541    1.268   .     A
C488   O543    1.302   .     A
C488   C490    1.398   .     S
C489   O544    1.299   .     A
C489   C491    1.402   .     S
C489   O542    1.274   .     A
C490   C647    1.327   1_455 S
C491   C568    1.327   .     S
C492   N530    1.423   .     S
C493   N531    1.437   .     S
C493   C4      1.394   1_565 S
C494   N532    1.428   .     S
C494   C24     1.391   1_565 S
H495   N530    1.029   .     S
H499   N533    1.028   .     S
H503   N534    1.028   .     S
H508   N535    1.030   .     S
H512   N536    1.027   .     S
H516   N528    1.025   .     S
H522   N531    1.033   .     S
H526   N532    1.032   .     S
N527   Zn545   2.034   .     S
N529   Zn546   2.034   .     S
O537   Zn545   1.996   .     S
O538   Zn546   1.996   .     S
O539   Zn546   2.020   .     S
O540   Zn545   2.020   .     S
O541   Zn545   1.995   .     S
O542   Zn546   1.995   .     S
O543   Zn546   1.951   .     S
O544   Zn545   1.951   .     S
Br547  C568    1.936   .     S
Br548  C569    1.934   .     S
C549   O617    1.305   .     A
C549   O615    1.295   .     A
C549   C552    1.452   .     S
C550   N611    1.425   .     S
C550   C552    1.421   .     A
C551   C560    1.445   .     S
C551   C571    1.406   .     A
C551   C572    1.392   .     A
C552   C570    1.415   .     A
C553   N612    1.419   .     S
C553   N607    1.379   .     A
C553   C1959   1.432   1_554 S
C554   N605    1.368   .     A
C554   N613    1.422   .     S
C554   C1258   1.444   .     S
C555   N614    1.423   .     S
C555   N605    1.367   .     A
C555   C1255   1.432   .     S
C556   N607    1.379   .     A
C556   N606    1.421   .     S
C556   C1958   1.444   1_554 S
C557   H584    1.109   .     S
C557   H595    1.111   .     S
C557   H599    1.109   .     S
C557   N608    1.450   .     S
C558   H602    1.107   .     S
C558   H603    1.101   .     S
C558   N609    1.440   .     S
C558   H133    1.103   1_565 S
C559   H574    1.111   .     S
C559   N610    1.443   .     S
C559   H575    1.109   .     S
C559   H576    1.099   .     S
C560   O616    1.307   .     A
C560   O618    1.290   .     A
C561   H580    1.109   .     S
C561   H578    1.112   .     S
C561   H579    1.109   .     S
C561   N611    1.443   .     S
C562   H583    1.110   .     S
C562   H582    1.110   .     S
C562   H585    1.093   .     S
C562   N612    1.435   .     S
C563   H589    1.104   .     S
C563   H587    1.109   .     S
C563   N613    1.446   .     S
C563   H588    1.109   .     S
C564   H593    1.111   .     S
C564   H592    1.107   .     S
C564   N614    1.449   .     S
C564   H591    1.100   .     S
C565   H598    1.110   .     S
C565   H597    1.106   .     S
C565   N606    1.447   .     S
C565   H596    1.110   .     S
C566   O619    1.268   .     A
C566   O621    1.302   .     A
C566   C568    1.398   .     S
C567   O622    1.299   .     A
C567   C569    1.402   .     S
C567   O620    1.274   .     A
C569   C646    1.327   .     S
C570   N608    1.423   .     S
C571   N609    1.437   .     S
C571   C82     1.394   1_565 S
C572   N610    1.428   .     S
C572   C102    1.391   1_565 S
H573   N608    1.029   .     S
H577   N611    1.028   .     S
H581   N612    1.028   .     S
H586   N613    1.030   .     S
H590   N614    1.027   .     S
H594   N606    1.025   .     S
H600   N609    1.033   .     S
H604   N610    1.032   .     S
N605   Zn623   2.034   .     S
N607   Zn624   2.034   .     S
O615   Zn623   1.996   .     S
O616   Zn624   1.996   .     S
O617   Zn624   2.020   .     S
O618   Zn623   2.020   .     S
O619   Zn623   1.995   .     S
O620   Zn624   1.995   .     S
O621   Zn624   1.951   .     S
O622   Zn623   1.951   .     S
Br625  C646    1.936   .     S
Br626  C647    1.934   .     S
C627   O695    1.305   .     A
C627   O693    1.295   .     A
C627   C630    1.452   .     S
C628   N689    1.425   .     S
C628   C630    1.421   .     A
C629   C638    1.445   .     S
C629   C649    1.406   .     A
C629   C650    1.392   .     A
C630   C648    1.415   .     A
C631   N690    1.419   .     S
C631   N685    1.379   .     A
C631   C2037   1.432   1_554 S
C632   N683    1.368   .     A
C632   N691    1.422   .     S
C632   C1336   1.444   .     S
C633   N692    1.423   .     S
C633   N683    1.367   .     A
C633   C1333   1.432   .     S
C634   N685    1.379   .     A
C634   N684    1.421   .     S
C634   C2036   1.444   1_554 S
C635   H662    1.109   .     S
C635   H673    1.111   .     S
C635   H677    1.109   .     S
C635   N686    1.450   .     S
C636   H680    1.107   .     S
C636   H681    1.101   .     S
C636   N687    1.440   .     S
C636   H211    1.103   1_565 S
C637   H652    1.111   .     S
C637   N688    1.443   .     S
C637   H653    1.109   .     S
C637   H654    1.099   .     S
C638   O694    1.307   .     A
C638   O696    1.290   .     A
C639   H658    1.109   .     S
C639   H656    1.112   .     S
C639   H657    1.109   .     S
C639   N689    1.443   .     S
C640   H661    1.110   .     S
C640   H660    1.110   .     S
C640   H663    1.093   .     S
C640   N690    1.435   .     S
C641   H667    1.104   .     S
C641   H665    1.109   .     S
C641   N691    1.446   .     S
C641   H666    1.109   .     S
C642   H671    1.111   .     S
C642   H670    1.107   .     S
C642   N692    1.449   .     S
C642   H669    1.100   .     S
C643   H676    1.110   .     S
C643   H675    1.106   .     S
C643   N684    1.447   .     S
C643   H674    1.110   .     S
C644   O697    1.268   .     A
C644   O699    1.302   .     A
C644   C646    1.398   .     S
C645   O700    1.299   .     A
C645   C647    1.402   .     S
C645   O698    1.274   .     A
C647   C490    1.327   1_655 S
C648   N686    1.423   .     S
C649   N687    1.437   .     S
C649   C160    1.394   1_565 S
C650   N688    1.428   .     S
C650   C180    1.391   1_565 S
H651   N686    1.029   .     S
H655   N689    1.028   .     S
H659   N690    1.028   .     S
H664   N691    1.030   .     S
H668   N692    1.027   .     S
H672   N684    1.025   .     S
H678   N687    1.033   .     S
H682   N688    1.032   .     S
N683   Zn701   2.034   .     S
N685   Zn702   2.034   .     S
O693   Zn701   1.996   .     S
O694   Zn702   1.996   .     S
O695   Zn702   2.020   .     S
O696   Zn701   2.020   .     S
O697   Zn701   1.995   .     S
O698   Zn702   1.995   .     S
O699   Zn702   1.951   .     S
O700   Zn701   1.951   .     S
Br703  C724    1.936   .     S
Br704  C725    1.934   .     S
C705   O773    1.305   .     A
C705   O771    1.295   .     A
C705   C708    1.452   .     S
C706   N767    1.425   .     S
C706   C708    1.421   .     A
C706   C1195   1.394   1_545 S
C707   C716    1.445   .     S
C707   C727    1.406   .     A
C707   C728    1.392   .     A
C708   C726    1.415   .     A
C709   N768    1.419   .     S
C709   N763    1.379   .     A
C710   N761    1.368   .     A
C710   N769    1.422   .     S
C710   C1414   1.444   .     S
C711   N770    1.423   .     S
C711   N761    1.367   .     A
C711   C1411   1.432   .     S
C712   N763    1.379   .     A
C712   N762    1.421   .     S
C713   H740    1.109   .     S
C713   H751    1.111   .     S
C713   H755    1.109   .     S
C713   N764    1.450   .     S
C714   H758    1.107   .     S
C714   H759    1.101   .     S
C714   N765    1.440   .     S
C714   H991    1.103   .     S
C715   H730    1.111   .     S
C715   N766    1.443   .     S
C715   H731    1.109   .     S
C715   H732    1.099   .     S
C716   O772    1.307   .     A
C716   O774    1.290   .     A
C717   H736    1.109   .     S
C717   H734    1.112   .     S
C717   H735    1.109   .     S
C717   N767    1.443   .     S
C718   H739    1.110   .     S
C718   H738    1.110   .     S
C718   H741    1.093   .     S
C718   N768    1.435   .     S
C719   H745    1.104   .     S
C719   H743    1.109   .     S
C719   N769    1.446   .     S
C719   H744    1.109   .     S
C720   H749    1.111   .     S
C720   H748    1.107   .     S
C720   N770    1.449   .     S
C720   H747    1.100   .     S
C721   H754    1.110   .     S
C721   H753    1.106   .     S
C721   N762    1.447   .     S
C721   H752    1.110   .     S
C722   O775    1.268   .     A
C722   O777    1.302   .     A
C722   C724    1.398   .     S
C723   O778    1.299   .     A
C723   C725    1.402   .     S
C723   O776    1.274   .     A
C724   C881    1.327   1_455 S
C725   C802    1.327   .     S
C726   N764    1.423   .     S
C726   C1196   1.391   1_545 S
C727   N765    1.437   .     S
C727   C940    1.394   .     S
C728   N766    1.428   .     S
C728   C960    1.391   .     S
H729   N764    1.029   .     S
H733   N767    1.028   .     S
H737   N768    1.028   .     S
H742   N769    1.030   .     S
H746   N770    1.027   .     S
H750   N762    1.025   .     S
H756   N765    1.033   .     S
H757   C1182   1.103   1_545 S
H760   N766    1.032   .     S
N761   Zn779   2.034   .     S
N763   Zn780   2.034   .     S
O771   Zn779   1.996   .     S
O772   Zn780   1.996   .     S
O773   Zn780   2.020   .     S
O774   Zn779   2.020   .     S
O775   Zn779   1.995   .     S
O776   Zn780   1.995   .     S
O777   Zn780   1.951   .     S
O778   Zn779   1.951   .     S
Br781  C802    1.936   .     S
Br782  C803    1.934   .     S
C783   O851    1.305   .     A
C783   O849    1.295   .     A
C783   C786    1.452   .     S
C784   N845    1.425   .     S
C784   C786    1.421   .     A
C784   C1273   1.394   1_545 S
C785   C794    1.445   .     S
C785   C805    1.406   .     A
C785   C806    1.392   .     A
C786   C804    1.415   .     A
C787   N846    1.419   .     S
C787   N841    1.379   .     A
C788   N839    1.368   .     A
C788   N847    1.422   .     S
C788   C1492   1.444   .     S
C789   N848    1.423   .     S
C789   N839    1.367   .     A
C789   C1489   1.432   .     S
C790   N841    1.379   .     A
C790   N840    1.421   .     S
C791   H818    1.109   .     S
C791   H829    1.111   .     S
C791   H833    1.109   .     S
C791   N842    1.450   .     S
C792   H836    1.107   .     S
C792   H837    1.101   .     S
C792   N843    1.440   .     S
C792   H1069   1.103   .     S
C793   H808    1.111   .     S
C793   N844    1.443   .     S
C793   H809    1.109   .     S
C793   H810    1.099   .     S
C794   O850    1.307   .     A
C794   O852    1.290   .     A
C795   H814    1.109   .     S
C795   H812    1.112   .     S
C795   H813    1.109   .     S
C795   N845    1.443   .     S
C796   H817    1.110   .     S
C796   H816    1.110   .     S
C796   H819    1.093   .     S
C796   N846    1.435   .     S
C797   H823    1.104   .     S
C797   H821    1.109   .     S
C797   N847    1.446   .     S
C797   H822    1.109   .     S
C798   H827    1.111   .     S
C798   H826    1.107   .     S
C798   N848    1.449   .     S
C798   H825    1.100   .     S
C799   H832    1.110   .     S
C799   H831    1.106   .     S
C799   N840    1.447   .     S
C799   H830    1.110   .     S
C800   O853    1.268   .     A
C800   O855    1.302   .     A
C800   C802    1.398   .     S
C801   O856    1.299   .     A
C801   C803    1.402   .     S
C801   O854    1.274   .     A
C803   C880    1.327   .     S
C804   N842    1.423   .     S
C804   C1274   1.391   1_545 S
C805   N843    1.437   .     S
C805   C1018   1.394   .     S
C806   N844    1.428   .     S
C806   C1038   1.391   .     S
H807   N842    1.029   .     S
H811   N845    1.028   .     S
H815   N846    1.028   .     S
H820   N847    1.030   .     S
H824   N848    1.027   .     S
H828   N840    1.025   .     S
H834   N843    1.033   .     S
H835   C1260   1.103   1_545 S
H838   N844    1.032   .     S
N839   Zn857   2.034   .     S
N841   Zn858   2.034   .     S
O849   Zn857   1.996   .     S
O850   Zn858   1.996   .     S
O851   Zn858   2.020   .     S
O852   Zn857   2.020   .     S
O853   Zn857   1.995   .     S
O854   Zn858   1.995   .     S
O855   Zn858   1.951   .     S
O856   Zn857   1.951   .     S
Br859  C880    1.936   .     S
Br860  C881    1.934   .     S
C861   O929    1.305   .     A
C861   O927    1.295   .     A
C861   C864    1.452   .     S
C862   N923    1.425   .     S
C862   C864    1.421   .     A
C862   C1351   1.394   1_545 S
C863   C872    1.445   .     S
C863   C883    1.406   .     A
C863   C884    1.392   .     A
C864   C882    1.415   .     A
C865   N924    1.419   .     S
C865   N919    1.379   .     A
C866   N917    1.368   .     A
C866   N925    1.422   .     S
C866   C1570   1.444   .     S
C867   N926    1.423   .     S
C867   N917    1.367   .     A
C867   C1567   1.432   .     S
C868   N919    1.379   .     A
C868   N918    1.421   .     S
C869   H896    1.109   .     S
C869   H907    1.111   .     S
C869   H911    1.109   .     S
C869   N920    1.450   .     S
C870   H914    1.107   .     S
C870   H915    1.101   .     S
C870   N921    1.440   .     S
C870   H1147   1.103   .     S
C871   H886    1.111   .     S
C871   N922    1.443   .     S
C871   H887    1.109   .     S
C871   H888    1.099   .     S
C872   O928    1.307   .     A
C872   O930    1.290   .     A
C873   H892    1.109   .     S
C873   H890    1.112   .     S
C873   H891    1.109   .     S
C873   N923    1.443   .     S
C874   H895    1.110   .     S
C874   H894    1.110   .     S
C874   H897    1.093   .     S
C874   N924    1.435   .     S
C875   H901    1.104   .     S
C875   H899    1.109   .     S
C875   N925    1.446   .     S
C875   H900    1.109   .     S
C876   H905    1.111   .     S
C876   H904    1.107   .     S
C876   N926    1.449   .     S
C876   H903    1.100   .     S
C877   H910    1.110   .     S
C877   H909    1.106   .     S
C877   N918    1.447   .     S
C877   H908    1.110   .     S
C878   O931    1.268   .     A
C878   O933    1.302   .     A
C878   C880    1.398   .     S
C879   O934    1.299   .     A
C879   C881    1.402   .     S
C879   O932    1.274   .     A
C881   C724    1.327   1_655 S
C882   N920    1.423   .     S
C882   C1352   1.391   1_545 S
C883   N921    1.437   .     S
C883   C1096   1.394   .     S
C884   N922    1.428   .     S
C884   C1116   1.391   .     S
H885   N920    1.029   .     S
H889   N923    1.028   .     S
H893   N924    1.028   .     S
H898   N925    1.030   .     S
H902   N926    1.027   .     S
H906   N918    1.025   .     S
H912   N921    1.033   .     S
H913   C1338   1.103   1_545 S
H916   N922    1.032   .     S
N917   Zn935   2.034   .     S
N919   Zn936   2.034   .     S
O927   Zn935   1.996   .     S
O928   Zn936   1.996   .     S
O929   Zn936   2.020   .     S
O930   Zn935   2.020   .     S
O931   Zn935   1.995   .     S
O932   Zn936   1.995   .     S
O933   Zn936   1.951   .     S
O934   Zn935   1.951   .     S
Br937  C958    1.936   .     S
Br938  C959    1.934   .     S
C939   O1007   1.305   .     A
C939   O1005   1.295   .     A
C939   C942    1.452   .     S
C940   N1001   1.425   .     S
C940   C942    1.421   .     A
C941   C950    1.445   .     S
C941   C961    1.406   .     A
C941   C962    1.392   .     A
C942   C960    1.415   .     A
C943   N1002   1.419   .     S
C943   N997    1.379   .     A
C944   N995    1.368   .     A
C944   N1003   1.422   .     S
C944   C1648   1.444   .     S
C945   N1004   1.423   .     S
C945   N995    1.367   .     A
C945   C1645   1.432   .     S
C946   N997    1.379   .     A
C946   N996    1.421   .     S
C947   H974    1.109   .     S
C947   H985    1.111   .     S
C947   H989    1.109   .     S
C947   N998    1.450   .     S
C948   H992    1.107   .     S
C948   H993    1.101   .     S
C948   N999    1.440   .     S
C948   H1225   1.103   .     S
C949   H964    1.111   .     S
C949   N1000   1.443   .     S
C949   H965    1.109   .     S
C949   H966    1.099   .     S
C950   O1006   1.307   .     A
C950   O1008   1.290   .     A
C951   H970    1.109   .     S
C951   H968    1.112   .     S
C951   H969    1.109   .     S
C951   N1001   1.443   .     S
C952   H973    1.110   .     S
C952   H972    1.110   .     S
C952   H975    1.093   .     S
C952   N1002   1.435   .     S
C953   H979    1.104   .     S
C953   H977    1.109   .     S
C953   N1003   1.446   .     S
C953   H978    1.109   .     S
C954   H983    1.111   .     S
C954   H982    1.107   .     S
C954   N1004   1.449   .     S
C954   H981    1.100   .     S
C955   H988    1.110   .     S
C955   H987    1.106   .     S
C955   N996    1.447   .     S
C955   H986    1.110   .     S
C956   O1009   1.268   .     A
C956   O1011   1.302   .     A
C956   C958    1.398   .     S
C957   O1012   1.299   .     A
C957   C959    1.402   .     S
C957   O1010   1.274   .     A
C958   C1115   1.327   1_455 S
C959   C1036   1.327   .     S
C960   N998    1.423   .     S
C961   N999    1.437   .     S
C961   C1174   1.394   .     S
C962   N1000   1.428   .     S
C962   C1194   1.391   .     S
H963   N998    1.029   .     S
H967   N1001   1.028   .     S
H971   N1002   1.028   .     S
H976   N1003   1.030   .     S
H980   N1004   1.027   .     S
H984   N996    1.025   .     S
H990   N999    1.033   .     S
H994   N1000   1.032   .     S
N995   Zn1013  2.034   .     S
N997   Zn1014  2.034   .     S
O1005  Zn1013  1.996   .     S
O1006  Zn1014  1.996   .     S
O1007  Zn1014  2.020   .     S
O1008  Zn1013  2.020   .     S
O1009  Zn1013  1.995   .     S
O1010  Zn1014  1.995   .     S
O1011  Zn1014  1.951   .     S
O1012  Zn1013  1.951   .     S
Br1015 C1036   1.936   .     S
Br1016 C1037   1.934   .     S
C1017  O1085   1.305   .     A
C1017  O1083   1.295   .     A
C1017  C1020   1.452   .     S
C1018  N1079   1.425   .     S
C1018  C1020   1.421   .     A
C1019  C1028   1.445   .     S
C1019  C1039   1.406   .     A
C1019  C1040   1.392   .     A
C1020  C1038   1.415   .     A
C1021  N1080   1.419   .     S
C1021  N1075   1.379   .     A
C1022  N1073   1.368   .     A
C1022  N1081   1.422   .     S
C1022  C1726   1.444   .     S
C1023  N1082   1.423   .     S
C1023  N1073   1.367   .     A
C1023  C1723   1.432   .     S
C1024  N1075   1.379   .     A
C1024  N1074   1.421   .     S
C1025  H1052   1.109   .     S
C1025  H1063   1.111   .     S
C1025  H1067   1.109   .     S
C1025  N1076   1.450   .     S
C1026  H1070   1.107   .     S
C1026  H1071   1.101   .     S
C1026  N1077   1.440   .     S
C1026  H1303   1.103   .     S
C1027  H1042   1.111   .     S
C1027  N1078   1.443   .     S
C1027  H1043   1.109   .     S
C1027  H1044   1.099   .     S
C1028  O1084   1.307   .     A
C1028  O1086   1.290   .     A
C1029  H1048   1.109   .     S
C1029  H1046   1.112   .     S
C1029  H1047   1.109   .     S
C1029  N1079   1.443   .     S
C1030  H1051   1.110   .     S
C1030  H1050   1.110   .     S
C1030  H1053   1.093   .     S
C1030  N1080   1.435   .     S
C1031  H1057   1.104   .     S
C1031  H1055   1.109   .     S
C1031  N1081   1.446   .     S
C1031  H1056   1.109   .     S
C1032  H1061   1.111   .     S
C1032  H1060   1.107   .     S
C1032  N1082   1.449   .     S
C1032  H1059   1.100   .     S
C1033  H1066   1.110   .     S
C1033  H1065   1.106   .     S
C1033  N1074   1.447   .     S
C1033  H1064   1.110   .     S
C1034  O1087   1.268   .     A
C1034  O1089   1.302   .     A
C1034  C1036   1.398   .     S
C1035  O1090   1.299   .     A
C1035  C1037   1.402   .     S
C1035  O1088   1.274   .     A
C1037  C1114   1.327   .     S
C1038  N1076   1.423   .     S
C1039  N1077   1.437   .     S
C1039  C1252   1.394   .     S
C1040  N1078   1.428   .     S
C1040  C1272   1.391   .     S
H1041  N1076   1.029   .     S
H1045  N1079   1.028   .     S
H1049  N1080   1.028   .     S
H1054  N1081   1.030   .     S
H1058  N1082   1.027   .     S
H1062  N1074   1.025   .     S
H1068  N1077   1.033   .     S
H1072  N1078   1.032   .     S
N1073  Zn1091  2.034   .     S
N1075  Zn1092  2.034   .     S
O1083  Zn1091  1.996   .     S
O1084  Zn1092  1.996   .     S
O1085  Zn1092  2.020   .     S
O1086  Zn1091  2.020   .     S
O1087  Zn1091  1.995   .     S
O1088  Zn1092  1.995   .     S
O1089  Zn1092  1.951   .     S
O1090  Zn1091  1.951   .     S
Br1093 C1114   1.936   .     S
Br1094 C1115   1.934   .     S
C1095  O1163   1.305   .     A
C1095  O1161   1.295   .     A
C1095  C1098   1.452   .     S
C1096  N1157   1.425   .     S
C1096  C1098   1.421   .     A
C1097  C1106   1.445   .     S
C1097  C1117   1.406   .     A
C1097  C1118   1.392   .     A
C1098  C1116   1.415   .     A
C1099  N1158   1.419   .     S
C1099  N1153   1.379   .     A
C1100  N1151   1.368   .     A
C1100  N1159   1.422   .     S
C1100  C1804   1.444   .     S
C1101  N1160   1.423   .     S
C1101  N1151   1.367   .     A
C1101  C1801   1.432   .     S
C1102  N1153   1.379   .     A
C1102  N1152   1.421   .     S
C1103  H1130   1.109   .     S
C1103  H1141   1.111   .     S
C1103  H1145   1.109   .     S
C1103  N1154   1.450   .     S
C1104  H1148   1.107   .     S
C1104  H1149   1.101   .     S
C1104  N1155   1.440   .     S
C1104  H1381   1.103   .     S
C1105  H1120   1.111   .     S
C1105  N1156   1.443   .     S
C1105  H1121   1.109   .     S
C1105  H1122   1.099   .     S
C1106  O1162   1.307   .     A
C1106  O1164   1.290   .     A
C1107  H1126   1.109   .     S
C1107  H1124   1.112   .     S
C1107  H1125   1.109   .     S
C1107  N1157   1.443   .     S
C1108  H1129   1.110   .     S
C1108  H1128   1.110   .     S
C1108  H1131   1.093   .     S
C1108  N1158   1.435   .     S
C1109  H1135   1.104   .     S
C1109  H1133   1.109   .     S
C1109  N1159   1.446   .     S
C1109  H1134   1.109   .     S
C1110  H1139   1.111   .     S
C1110  H1138   1.107   .     S
C1110  N1160   1.449   .     S
C1110  H1137   1.100   .     S
C1111  H1144   1.110   .     S
C1111  H1143   1.106   .     S
C1111  N1152   1.447   .     S
C1111  H1142   1.110   .     S
C1112  O1165   1.268   .     A
C1112  O1167   1.302   .     A
C1112  C1114   1.398   .     S
C1113  O1168   1.299   .     A
C1113  C1115   1.402   .     S
C1113  O1166   1.274   .     A
C1115  C958    1.327   1_655 S
C1116  N1154   1.423   .     S
C1117  N1155   1.437   .     S
C1117  C1330   1.394   .     S
C1118  N1156   1.428   .     S
C1118  C1350   1.391   .     S
H1119  N1154   1.029   .     S
H1123  N1157   1.028   .     S
H1127  N1158   1.028   .     S
H1132  N1159   1.030   .     S
H1136  N1160   1.027   .     S
H1140  N1152   1.025   .     S
H1146  N1155   1.033   .     S
H1150  N1156   1.032   .     S
N1151  Zn1169  2.034   .     S
N1153  Zn1170  2.034   .     S
O1161  Zn1169  1.996   .     S
O1162  Zn1170  1.996   .     S
O1163  Zn1170  2.020   .     S
O1164  Zn1169  2.020   .     S
O1165  Zn1169  1.995   .     S
O1166  Zn1170  1.995   .     S
O1167  Zn1170  1.951   .     S
O1168  Zn1169  1.951   .     S
Br1171 C1192   1.936   .     S
Br1172 C1193   1.934   .     S
C1173  O1241   1.305   .     A
C1173  O1239   1.295   .     A
C1173  C1176   1.452   .     S
C1174  N1235   1.425   .     S
C1174  C1176   1.421   .     A
C1175  C1184   1.445   .     S
C1175  C1195   1.406   .     A
C1175  C1196   1.392   .     A
C1176  C1194   1.415   .     A
C1177  N1236   1.419   .     S
C1177  N1231   1.379   .     A
C1178  N1229   1.368   .     A
C1178  N1237   1.422   .     S
C1178  C1882   1.444   .     S
C1179  N1238   1.423   .     S
C1179  N1229   1.367   .     A
C1179  C1879   1.432   .     S
C1180  N1231   1.379   .     A
C1180  N1230   1.421   .     S
C1181  H1208   1.109   .     S
C1181  H1219   1.111   .     S
C1181  H1223   1.109   .     S
C1181  N1232   1.450   .     S
C1182  H1226   1.107   .     S
C1182  H1227   1.101   .     S
C1182  N1233   1.440   .     S
C1182  H757    1.103   1_565 S
C1183  H1198   1.111   .     S
C1183  N1234   1.443   .     S
C1183  H1199   1.109   .     S
C1183  H1200   1.099   .     S
C1184  O1240   1.307   .     A
C1184  O1242   1.290   .     A
C1185  H1204   1.109   .     S
C1185  H1202   1.112   .     S
C1185  H1203   1.109   .     S
C1185  N1235   1.443   .     S
C1186  H1207   1.110   .     S
C1186  H1206   1.110   .     S
C1186  H1209   1.093   .     S
C1186  N1236   1.435   .     S
C1187  H1213   1.104   .     S
C1187  H1211   1.109   .     S
C1187  N1237   1.446   .     S
C1187  H1212   1.109   .     S
C1188  H1217   1.111   .     S
C1188  H1216   1.107   .     S
C1188  N1238   1.449   .     S
C1188  H1215   1.100   .     S
C1189  H1222   1.110   .     S
C1189  H1221   1.106   .     S
C1189  N1230   1.447   .     S
C1189  H1220   1.110   .     S
C1190  O1243   1.268   .     A
C1190  O1245   1.302   .     A
C1190  C1192   1.398   .     S
C1191  O1246   1.299   .     A
C1191  C1193   1.402   .     S
C1191  O1244   1.274   .     A
C1192  C1349   1.327   1_455 S
C1193  C1270   1.327   .     S
C1194  N1232   1.423   .     S
C1195  N1233   1.437   .     S
C1195  C706    1.394   1_565 S
C1196  N1234   1.428   .     S
C1196  C726    1.391   1_565 S
H1197  N1232   1.029   .     S
H1201  N1235   1.028   .     S
H1205  N1236   1.028   .     S
H1210  N1237   1.030   .     S
H1214  N1238   1.027   .     S
H1218  N1230   1.025   .     S
H1224  N1233   1.033   .     S
H1228  N1234   1.032   .     S
N1229  Zn1247  2.034   .     S
N1231  Zn1248  2.034   .     S
O1239  Zn1247  1.996   .     S
O1240  Zn1248  1.996   .     S
O1241  Zn1248  2.020   .     S
O1242  Zn1247  2.020   .     S
O1243  Zn1247  1.995   .     S
O1244  Zn1248  1.995   .     S
O1245  Zn1248  1.951   .     S
O1246  Zn1247  1.951   .     S
Br1249 C1270   1.936   .     S
Br1250 C1271   1.934   .     S
C1251  O1319   1.305   .     A
C1251  O1317   1.295   .     A
C1251  C1254   1.452   .     S
C1252  N1313   1.425   .     S
C1252  C1254   1.421   .     A
C1253  C1262   1.445   .     S
C1253  C1273   1.406   .     A
C1253  C1274   1.392   .     A
C1254  C1272   1.415   .     A
C1255  N1314   1.419   .     S
C1255  N1309   1.379   .     A
C1256  N1307   1.368   .     A
C1256  N1315   1.422   .     S
C1256  C1960   1.444   .     S
C1257  N1316   1.423   .     S
C1257  N1307   1.367   .     A
C1257  C1957   1.432   .     S
C1258  N1309   1.379   .     A
C1258  N1308   1.421   .     S
C1259  H1286   1.109   .     S
C1259  H1297   1.111   .     S
C1259  H1301   1.109   .     S
C1259  N1310   1.450   .     S
C1260  H1304   1.107   .     S
C1260  H1305   1.101   .     S
C1260  N1311   1.440   .     S
C1260  H835    1.103   1_565 S
C1261  H1276   1.111   .     S
C1261  N1312   1.443   .     S
C1261  H1277   1.109   .     S
C1261  H1278   1.099   .     S
C1262  O1318   1.307   .     A
C1262  O1320   1.290   .     A
C1263  H1282   1.109   .     S
C1263  H1280   1.112   .     S
C1263  H1281   1.109   .     S
C1263  N1313   1.443   .     S
C1264  H1285   1.110   .     S
C1264  H1284   1.110   .     S
C1264  H1287   1.093   .     S
C1264  N1314   1.435   .     S
C1265  H1291   1.104   .     S
C1265  H1289   1.109   .     S
C1265  N1315   1.446   .     S
C1265  H1290   1.109   .     S
C1266  H1295   1.111   .     S
C1266  H1294   1.107   .     S
C1266  N1316   1.449   .     S
C1266  H1293   1.100   .     S
C1267  H1300   1.110   .     S
C1267  H1299   1.106   .     S
C1267  N1308   1.447   .     S
C1267  H1298   1.110   .     S
C1268  O1321   1.268   .     A
C1268  O1323   1.302   .     A
C1268  C1270   1.398   .     S
C1269  O1324   1.299   .     A
C1269  C1271   1.402   .     S
C1269  O1322   1.274   .     A
C1271  C1348   1.327   .     S
C1272  N1310   1.423   .     S
C1273  N1311   1.437   .     S
C1273  C784    1.394   1_565 S
C1274  N1312   1.428   .     S
C1274  C804    1.391   1_565 S
H1275  N1310   1.029   .     S
H1279  N1313   1.028   .     S
H1283  N1314   1.028   .     S
H1288  N1315   1.030   .     S
H1292  N1316   1.027   .     S
H1296  N1308   1.025   .     S
H1302  N1311   1.033   .     S
H1306  N1312   1.032   .     S
N1307  Zn1325  2.034   .     S
N1309  Zn1326  2.034   .     S
O1317  Zn1325  1.996   .     S
O1318  Zn1326  1.996   .     S
O1319  Zn1326  2.020   .     S
O1320  Zn1325  2.020   .     S
O1321  Zn1325  1.995   .     S
O1322  Zn1326  1.995   .     S
O1323  Zn1326  1.951   .     S
O1324  Zn1325  1.951   .     S
Br1327 C1348   1.936   .     S
Br1328 C1349   1.934   .     S
C1329  O1397   1.305   .     A
C1329  O1395   1.295   .     A
C1329  C1332   1.452   .     S
C1330  N1391   1.425   .     S
C1330  C1332   1.421   .     A
C1331  C1340   1.445   .     S
C1331  C1351   1.406   .     A
C1331  C1352   1.392   .     A
C1332  C1350   1.415   .     A
C1333  N1392   1.419   .     S
C1333  N1387   1.379   .     A
C1334  N1385   1.368   .     A
C1334  N1393   1.422   .     S
C1334  C2038   1.444   .     S
C1335  N1394   1.423   .     S
C1335  N1385   1.367   .     A
C1335  C2035   1.432   .     S
C1336  N1387   1.379   .     A
C1336  N1386   1.421   .     S
C1337  H1364   1.109   .     S
C1337  H1375   1.111   .     S
C1337  H1379   1.109   .     S
C1337  N1388   1.450   .     S
C1338  H1382   1.107   .     S
C1338  H1383   1.101   .     S
C1338  N1389   1.440   .     S
C1338  H913    1.103   1_565 S
C1339  H1354   1.111   .     S
C1339  N1390   1.443   .     S
C1339  H1355   1.109   .     S
C1339  H1356   1.099   .     S
C1340  O1396   1.307   .     A
C1340  O1398   1.290   .     A
C1341  H1360   1.109   .     S
C1341  H1358   1.112   .     S
C1341  H1359   1.109   .     S
C1341  N1391   1.443   .     S
C1342  H1363   1.110   .     S
C1342  H1362   1.110   .     S
C1342  H1365   1.093   .     S
C1342  N1392   1.435   .     S
C1343  H1369   1.104   .     S
C1343  H1367   1.109   .     S
C1343  N1393   1.446   .     S
C1343  H1368   1.109   .     S
C1344  H1373   1.111   .     S
C1344  H1372   1.107   .     S
C1344  N1394   1.449   .     S
C1344  H1371   1.100   .     S
C1345  H1378   1.110   .     S
C1345  H1377   1.106   .     S
C1345  N1386   1.447   .     S
C1345  H1376   1.110   .     S
C1346  O1399   1.268   .     A
C1346  O1401   1.302   .     A
C1346  C1348   1.398   .     S
C1347  O1402   1.299   .     A
C1347  C1349   1.402   .     S
C1347  O1400   1.274   .     A
C1349  C1192   1.327   1_655 S
C1350  N1388   1.423   .     S
C1351  N1389   1.437   .     S
C1351  C862    1.394   1_565 S
C1352  N1390   1.428   .     S
C1352  C882    1.391   1_565 S
H1353  N1388   1.029   .     S
H1357  N1391   1.028   .     S
H1361  N1392   1.028   .     S
H1366  N1393   1.030   .     S
H1370  N1394   1.027   .     S
H1374  N1386   1.025   .     S
H1380  N1389   1.033   .     S
H1384  N1390   1.032   .     S
N1385  Zn1403  2.034   .     S
N1387  Zn1404  2.034   .     S
O1395  Zn1403  1.996   .     S
O1396  Zn1404  1.996   .     S
O1397  Zn1404  2.020   .     S
O1398  Zn1403  2.020   .     S
O1399  Zn1403  1.995   .     S
O1400  Zn1404  1.995   .     S
O1401  Zn1404  1.951   .     S
O1402  Zn1403  1.951   .     S
Br1405 C1426   1.936   .     S
Br1406 C1427   1.934   .     S
C1407  O1475   1.305   .     A
C1407  O1473   1.295   .     A
C1407  C1410   1.452   .     S
C1408  N1469   1.425   .     S
C1408  C1410   1.421   .     A
C1408  C1897   1.394   1_545 S
C1409  C1418   1.445   .     S
C1409  C1429   1.406   .     A
C1409  C1430   1.392   .     A
C1410  C1428   1.415   .     A
C1411  N1470   1.419   .     S
C1411  N1465   1.379   .     A
C1412  N1463   1.368   .     A
C1412  N1471   1.422   .     S
C1412  C10     1.444   1_556 S
C1413  N1472   1.423   .     S
C1413  N1463   1.367   .     A
C1413  C7      1.432   1_556 S
C1414  N1465   1.379   .     A
C1414  N1464   1.421   .     S
C1415  H1442   1.109   .     S
C1415  H1453   1.111   .     S
C1415  H1457   1.109   .     S
C1415  N1466   1.450   .     S
C1416  H1460   1.107   .     S
C1416  H1461   1.101   .     S
C1416  N1467   1.440   .     S
C1416  H1693   1.103   .     S
C1417  H1432   1.111   .     S
C1417  N1468   1.443   .     S
C1417  H1433   1.109   .     S
C1417  H1434   1.099   .     S
C1418  O1474   1.307   .     A
C1418  O1476   1.290   .     A
C1419  H1438   1.109   .     S
C1419  H1436   1.112   .     S
C1419  H1437   1.109   .     S
C1419  N1469   1.443   .     S
C1420  H1441   1.110   .     S
C1420  H1440   1.110   .     S
C1420  H1443   1.093   .     S
C1420  N1470   1.435   .     S
C1421  H1447   1.104   .     S
C1421  H1445   1.109   .     S
C1421  N1471   1.446   .     S
C1421  H1446   1.109   .     S
C1422  H1451   1.111   .     S
C1422  H1450   1.107   .     S
C1422  N1472   1.449   .     S
C1422  H1449   1.100   .     S
C1423  H1456   1.110   .     S
C1423  H1455   1.106   .     S
C1423  N1464   1.447   .     S
C1423  H1454   1.110   .     S
C1424  O1477   1.268   .     A
C1424  O1479   1.302   .     A
C1424  C1426   1.398   .     S
C1425  O1480   1.299   .     A
C1425  C1427   1.402   .     S
C1425  O1478   1.274   .     A
C1426  C1583   1.327   1_455 S
C1427  C1504   1.327   .     S
C1428  N1466   1.423   .     S
C1428  C1898   1.391   1_545 S
C1429  N1467   1.437   .     S
C1429  C1642   1.394   .     S
C1430  N1468   1.428   .     S
C1430  C1662   1.391   .     S
H1431  N1466   1.029   .     S
H1435  N1469   1.028   .     S
H1439  N1470   1.028   .     S
H1444  N1471   1.030   .     S
H1448  N1472   1.027   .     S
H1452  N1464   1.025   .     S
H1458  N1467   1.033   .     S
H1459  C1884   1.103   1_545 S
H1462  N1468   1.032   .     S
N1463  Zn1481  2.034   .     S
N1465  Zn1482  2.034   .     S
O1473  Zn1481  1.996   .     S
O1474  Zn1482  1.996   .     S
O1475  Zn1482  2.020   .     S
O1476  Zn1481  2.020   .     S
O1477  Zn1481  1.995   .     S
O1478  Zn1482  1.995   .     S
O1479  Zn1482  1.951   .     S
O1480  Zn1481  1.951   .     S
Br1483 C1504   1.936   .     S
Br1484 C1505   1.934   .     S
C1485  O1553   1.305   .     A
C1485  O1551   1.295   .     A
C1485  C1488   1.452   .     S
C1486  N1547   1.425   .     S
C1486  C1488   1.421   .     A
C1486  C1975   1.394   1_545 S
C1487  C1496   1.445   .     S
C1487  C1507   1.406   .     A
C1487  C1508   1.392   .     A
C1488  C1506   1.415   .     A
C1489  N1548   1.419   .     S
C1489  N1543   1.379   .     A
C1490  N1541   1.368   .     A
C1490  N1549   1.422   .     S
C1490  C88     1.444   1_556 S
C1491  N1550   1.423   .     S
C1491  N1541   1.367   .     A
C1491  C85     1.432   1_556 S
C1492  N1543   1.379   .     A
C1492  N1542   1.421   .     S
C1493  H1520   1.109   .     S
C1493  H1531   1.111   .     S
C1493  H1535   1.109   .     S
C1493  N1544   1.450   .     S
C1494  H1538   1.107   .     S
C1494  H1539   1.101   .     S
C1494  N1545   1.440   .     S
C1494  H1771   1.103   .     S
C1495  H1510   1.111   .     S
C1495  N1546   1.443   .     S
C1495  H1511   1.109   .     S
C1495  H1512   1.099   .     S
C1496  O1552   1.307   .     A
C1496  O1554   1.290   .     A
C1497  H1516   1.109   .     S
C1497  H1514   1.112   .     S
C1497  H1515   1.109   .     S
C1497  N1547   1.443   .     S
C1498  H1519   1.110   .     S
C1498  H1518   1.110   .     S
C1498  H1521   1.093   .     S
C1498  N1548   1.435   .     S
C1499  H1525   1.104   .     S
C1499  H1523   1.109   .     S
C1499  N1549   1.446   .     S
C1499  H1524   1.109   .     S
C1500  H1529   1.111   .     S
C1500  H1528   1.107   .     S
C1500  N1550   1.449   .     S
C1500  H1527   1.100   .     S
C1501  H1534   1.110   .     S
C1501  H1533   1.106   .     S
C1501  N1542   1.447   .     S
C1501  H1532   1.110   .     S
C1502  O1555   1.268   .     A
C1502  O1557   1.302   .     A
C1502  C1504   1.398   .     S
C1503  O1558   1.299   .     A
C1503  C1505   1.402   .     S
C1503  O1556   1.274   .     A
C1505  C1582   1.327   .     S
C1506  N1544   1.423   .     S
C1506  C1976   1.391   1_545 S
C1507  N1545   1.437   .     S
C1507  C1720   1.394   .     S
C1508  N1546   1.428   .     S
C1508  C1740   1.391   .     S
H1509  N1544   1.029   .     S
H1513  N1547   1.028   .     S
H1517  N1548   1.028   .     S
H1522  N1549   1.030   .     S
H1526  N1550   1.027   .     S
H1530  N1542   1.025   .     S
H1536  N1545   1.033   .     S
H1537  C1962   1.103   1_545 S
H1540  N1546   1.032   .     S
N1541  Zn1559  2.034   .     S
N1543  Zn1560  2.034   .     S
O1551  Zn1559  1.996   .     S
O1552  Zn1560  1.996   .     S
O1553  Zn1560  2.020   .     S
O1554  Zn1559  2.020   .     S
O1555  Zn1559  1.995   .     S
O1556  Zn1560  1.995   .     S
O1557  Zn1560  1.951   .     S
O1558  Zn1559  1.951   .     S
Br1561 C1582   1.936   .     S
Br1562 C1583   1.934   .     S
C1563  O1631   1.305   .     A
C1563  O1629   1.295   .     A
C1563  C1566   1.452   .     S
C1564  N1625   1.425   .     S
C1564  C1566   1.421   .     A
C1564  C2053   1.394   1_545 S
C1565  C1574   1.445   .     S
C1565  C1585   1.406   .     A
C1565  C1586   1.392   .     A
C1566  C1584   1.415   .     A
C1567  N1626   1.419   .     S
C1567  N1621   1.379   .     A
C1568  N1619   1.368   .     A
C1568  N1627   1.422   .     S
C1568  C166    1.444   1_556 S
C1569  N1628   1.423   .     S
C1569  N1619   1.367   .     A
C1569  C163    1.432   1_556 S
C1570  N1621   1.379   .     A
C1570  N1620   1.421   .     S
C1571  H1598   1.109   .     S
C1571  H1609   1.111   .     S
C1571  H1613   1.109   .     S
C1571  N1622   1.450   .     S
C1572  H1616   1.107   .     S
C1572  H1617   1.101   .     S
C1572  N1623   1.440   .     S
C1572  H1849   1.103   .     S
C1573  H1588   1.111   .     S
C1573  N1624   1.443   .     S
C1573  H1589   1.109   .     S
C1573  H1590   1.099   .     S
C1574  O1630   1.307   .     A
C1574  O1632   1.290   .     A
C1575  H1594   1.109   .     S
C1575  H1592   1.112   .     S
C1575  H1593   1.109   .     S
C1575  N1625   1.443   .     S
C1576  H1597   1.110   .     S
C1576  H1596   1.110   .     S
C1576  H1599   1.093   .     S
C1576  N1626   1.435   .     S
C1577  H1603   1.104   .     S
C1577  H1601   1.109   .     S
C1577  N1627   1.446   .     S
C1577  H1602   1.109   .     S
C1578  H1607   1.111   .     S
C1578  H1606   1.107   .     S
C1578  N1628   1.449   .     S
C1578  H1605   1.100   .     S
C1579  H1612   1.110   .     S
C1579  H1611   1.106   .     S
C1579  N1620   1.447   .     S
C1579  H1610   1.110   .     S
C1580  O1633   1.268   .     A
C1580  O1635   1.302   .     A
C1580  C1582   1.398   .     S
C1581  O1636   1.299   .     A
C1581  C1583   1.402   .     S
C1581  O1634   1.274   .     A
C1583  C1426   1.327   1_655 S
C1584  N1622   1.423   .     S
C1584  C2054   1.391   1_545 S
C1585  N1623   1.437   .     S
C1585  C1798   1.394   .     S
C1586  N1624   1.428   .     S
C1586  C1818   1.391   .     S
H1587  N1622   1.029   .     S
H1591  N1625   1.028   .     S
H1595  N1626   1.028   .     S
H1600  N1627   1.030   .     S
H1604  N1628   1.027   .     S
H1608  N1620   1.025   .     S
H1614  N1623   1.033   .     S
H1615  C2040   1.103   1_545 S
H1618  N1624   1.032   .     S
N1619  Zn1637  2.034   .     S
N1621  Zn1638  2.034   .     S
O1629  Zn1637  1.996   .     S
O1630  Zn1638  1.996   .     S
O1631  Zn1638  2.020   .     S
O1632  Zn1637  2.020   .     S
O1633  Zn1637  1.995   .     S
O1634  Zn1638  1.995   .     S
O1635  Zn1638  1.951   .     S
O1636  Zn1637  1.951   .     S
Br1639 C1660   1.936   .     S
Br1640 C1661   1.934   .     S
C1641  O1709   1.305   .     A
C1641  O1707   1.295   .     A
C1641  C1644   1.452   .     S
C1642  N1703   1.425   .     S
C1642  C1644   1.421   .     A
C1643  C1652   1.445   .     S
C1643  C1663   1.406   .     A
C1643  C1664   1.392   .     A
C1644  C1662   1.415   .     A
C1645  N1704   1.419   .     S
C1645  N1699   1.379   .     A
C1646  N1697   1.368   .     A
C1646  N1705   1.422   .     S
C1646  C244    1.444   1_556 S
C1647  N1706   1.423   .     S
C1647  N1697   1.367   .     A
C1647  C241    1.432   1_556 S
C1648  N1699   1.379   .     A
C1648  N1698   1.421   .     S
C1649  H1676   1.109   .     S
C1649  H1687   1.111   .     S
C1649  H1691   1.109   .     S
C1649  N1700   1.450   .     S
C1650  H1694   1.107   .     S
C1650  H1695   1.101   .     S
C1650  N1701   1.440   .     S
C1650  H1927   1.103   .     S
C1651  H1666   1.111   .     S
C1651  N1702   1.443   .     S
C1651  H1667   1.109   .     S
C1651  H1668   1.099   .     S
C1652  O1708   1.307   .     A
C1652  O1710   1.290   .     A
C1653  H1672   1.109   .     S
C1653  H1670   1.112   .     S
C1653  H1671   1.109   .     S
C1653  N1703   1.443   .     S
C1654  H1675   1.110   .     S
C1654  H1674   1.110   .     S
C1654  H1677   1.093   .     S
C1654  N1704   1.435   .     S
C1655  H1681   1.104   .     S
C1655  H1679   1.109   .     S
C1655  N1705   1.446   .     S
C1655  H1680   1.109   .     S
C1656  H1685   1.111   .     S
C1656  H1684   1.107   .     S
C1656  N1706   1.449   .     S
C1656  H1683   1.100   .     S
C1657  H1690   1.110   .     S
C1657  H1689   1.106   .     S
C1657  N1698   1.447   .     S
C1657  H1688   1.110   .     S
C1658  O1711   1.268   .     A
C1658  O1713   1.302   .     A
C1658  C1660   1.398   .     S
C1659  O1714   1.299   .     A
C1659  C1661   1.402   .     S
C1659  O1712   1.274   .     A
C1660  C1817   1.327   1_455 S
C1661  C1738   1.327   .     S
C1662  N1700   1.423   .     S
C1663  N1701   1.437   .     S
C1663  C1876   1.394   .     S
C1664  N1702   1.428   .     S
C1664  C1896   1.391   .     S
H1665  N1700   1.029   .     S
H1669  N1703   1.028   .     S
H1673  N1704   1.028   .     S
H1678  N1705   1.030   .     S
H1682  N1706   1.027   .     S
H1686  N1698   1.025   .     S
H1692  N1701   1.033   .     S
H1696  N1702   1.032   .     S
N1697  Zn1715  2.034   .     S
N1699  Zn1716  2.034   .     S
O1707  Zn1715  1.996   .     S
O1708  Zn1716  1.996   .     S
O1709  Zn1716  2.020   .     S
O1710  Zn1715  2.020   .     S
O1711  Zn1715  1.995   .     S
O1712  Zn1716  1.995   .     S
O1713  Zn1716  1.951   .     S
O1714  Zn1715  1.951   .     S
Br1717 C1738   1.936   .     S
Br1718 C1739   1.934   .     S
C1719  O1787   1.305   .     A
C1719  O1785   1.295   .     A
C1719  C1722   1.452   .     S
C1720  N1781   1.425   .     S
C1720  C1722   1.421   .     A
C1721  C1730   1.445   .     S
C1721  C1741   1.406   .     A
C1721  C1742   1.392   .     A
C1722  C1740   1.415   .     A
C1723  N1782   1.419   .     S
C1723  N1777   1.379   .     A
C1724  N1775   1.368   .     A
C1724  N1783   1.422   .     S
C1724  C322    1.444   1_556 S
C1725  N1784   1.423   .     S
C1725  N1775   1.367   .     A
C1725  C319    1.432   1_556 S
C1726  N1777   1.379   .     A
C1726  N1776   1.421   .     S
C1727  H1754   1.109   .     S
C1727  H1765   1.111   .     S
C1727  H1769   1.109   .     S
C1727  N1778   1.450   .     S
C1728  H1772   1.107   .     S
C1728  H1773   1.101   .     S
C1728  N1779   1.440   .     S
C1728  H2005   1.103   .     S
C1729  H1744   1.111   .     S
C1729  N1780   1.443   .     S
C1729  H1745   1.109   .     S
C1729  H1746   1.099   .     S
C1730  O1786   1.307   .     A
C1730  O1788   1.290   .     A
C1731  H1750   1.109   .     S
C1731  H1748   1.112   .     S
C1731  H1749   1.109   .     S
C1731  N1781   1.443   .     S
C1732  H1753   1.110   .     S
C1732  H1752   1.110   .     S
C1732  H1755   1.093   .     S
C1732  N1782   1.435   .     S
C1733  H1759   1.104   .     S
C1733  H1757   1.109   .     S
C1733  N1783   1.446   .     S
C1733  H1758   1.109   .     S
C1734  H1763   1.111   .     S
C1734  H1762   1.107   .     S
C1734  N1784   1.449   .     S
C1734  H1761   1.100   .     S
C1735  H1768   1.110   .     S
C1735  H1767   1.106   .     S
C1735  N1776   1.447   .     S
C1735  H1766   1.110   .     S
C1736  O1789   1.268   .     A
C1736  O1791   1.302   .     A
C1736  C1738   1.398   .     S
C1737  O1792   1.299   .     A
C1737  C1739   1.402   .     S
C1737  O1790   1.274   .     A
C1739  C1816   1.327   .     S
C1740  N1778   1.423   .     S
C1741  N1779   1.437   .     S
C1741  C1954   1.394   .     S
C1742  N1780   1.428   .     S
C1742  C1974   1.391   .     S
H1743  N1778   1.029   .     S
H1747  N1781   1.028   .     S
H1751  N1782   1.028   .     S
H1756  N1783   1.030   .     S
H1760  N1784   1.027   .     S
H1764  N1776   1.025   .     S
H1770  N1779   1.033   .     S
H1774  N1780   1.032   .     S
N1775  Zn1793  2.034   .     S
N1777  Zn1794  2.034   .     S
O1785  Zn1793  1.996   .     S
O1786  Zn1794  1.996   .     S
O1787  Zn1794  2.020   .     S
O1788  Zn1793  2.020   .     S
O1789  Zn1793  1.995   .     S
O1790  Zn1794  1.995   .     S
O1791  Zn1794  1.951   .     S
O1792  Zn1793  1.951   .     S
Br1795 C1816   1.936   .     S
Br1796 C1817   1.934   .     S
C1797  O1865   1.305   .     A
C1797  O1863   1.295   .     A
C1797  C1800   1.452   .     S
C1798  N1859   1.425   .     S
C1798  C1800   1.421   .     A
C1799  C1808   1.445   .     S
C1799  C1819   1.406   .     A
C1799  C1820   1.392   .     A
C1800  C1818   1.415   .     A
C1801  N1860   1.419   .     S
C1801  N1855   1.379   .     A
C1802  N1853   1.368   .     A
C1802  N1861   1.422   .     S
C1802  C400    1.444   1_556 S
C1803  N1862   1.423   .     S
C1803  N1853   1.367   .     A
C1803  C397    1.432   1_556 S
C1804  N1855   1.379   .     A
C1804  N1854   1.421   .     S
C1805  H1832   1.109   .     S
C1805  H1843   1.111   .     S
C1805  H1847   1.109   .     S
C1805  N1856   1.450   .     S
C1806  H1850   1.107   .     S
C1806  H1851   1.101   .     S
C1806  N1857   1.440   .     S
C1806  H2083   1.103   .     S
C1807  H1822   1.111   .     S
C1807  N1858   1.443   .     S
C1807  H1823   1.109   .     S
C1807  H1824   1.099   .     S
C1808  O1864   1.307   .     A
C1808  O1866   1.290   .     A
C1809  H1828   1.109   .     S
C1809  H1826   1.112   .     S
C1809  H1827   1.109   .     S
C1809  N1859   1.443   .     S
C1810  H1831   1.110   .     S
C1810  H1830   1.110   .     S
C1810  H1833   1.093   .     S
C1810  N1860   1.435   .     S
C1811  H1837   1.104   .     S
C1811  H1835   1.109   .     S
C1811  N1861   1.446   .     S
C1811  H1836   1.109   .     S
C1812  H1841   1.111   .     S
C1812  H1840   1.107   .     S
C1812  N1862   1.449   .     S
C1812  H1839   1.100   .     S
C1813  H1846   1.110   .     S
C1813  H1845   1.106   .     S
C1813  N1854   1.447   .     S
C1813  H1844   1.110   .     S
C1814  O1867   1.268   .     A
C1814  O1869   1.302   .     A
C1814  C1816   1.398   .     S
C1815  O1870   1.299   .     A
C1815  C1817   1.402   .     S
C1815  O1868   1.274   .     A
C1817  C1660   1.327   1_655 S
C1818  N1856   1.423   .     S
C1819  N1857   1.437   .     S
C1819  C2032   1.394   .     S
C1820  N1858   1.428   .     S
C1820  C2052   1.391   .     S
H1821  N1856   1.029   .     S
H1825  N1859   1.028   .     S
H1829  N1860   1.028   .     S
H1834  N1861   1.030   .     S
H1838  N1862   1.027   .     S
H1842  N1854   1.025   .     S
H1848  N1857   1.033   .     S
H1852  N1858   1.032   .     S
N1853  Zn1871  2.034   .     S
N1855  Zn1872  2.034   .     S
O1863  Zn1871  1.996   .     S
O1864  Zn1872  1.996   .     S
O1865  Zn1872  2.020   .     S
O1866  Zn1871  2.020   .     S
O1867  Zn1871  1.995   .     S
O1868  Zn1872  1.995   .     S
O1869  Zn1872  1.951   .     S
O1870  Zn1871  1.951   .     S
Br1873 C1894   1.936   .     S
Br1874 C1895   1.934   .     S
C1875  O1943   1.305   .     A
C1875  O1941   1.295   .     A
C1875  C1878   1.452   .     S
C1876  N1937   1.425   .     S
C1876  C1878   1.421   .     A
C1877  C1886   1.445   .     S
C1877  C1897   1.406   .     A
C1877  C1898   1.392   .     A
C1878  C1896   1.415   .     A
C1879  N1938   1.419   .     S
C1879  N1933   1.379   .     A
C1880  N1931   1.368   .     A
C1880  N1939   1.422   .     S
C1880  C478    1.444   1_556 S
C1881  N1940   1.423   .     S
C1881  N1931   1.367   .     A
C1881  C475    1.432   1_556 S
C1882  N1933   1.379   .     A
C1882  N1932   1.421   .     S
C1883  H1910   1.109   .     S
C1883  H1921   1.111   .     S
C1883  H1925   1.109   .     S
C1883  N1934   1.450   .     S
C1884  H1928   1.107   .     S
C1884  H1929   1.101   .     S
C1884  N1935   1.440   .     S
C1884  H1459   1.103   1_565 S
C1885  H1900   1.111   .     S
C1885  N1936   1.443   .     S
C1885  H1901   1.109   .     S
C1885  H1902   1.099   .     S
C1886  O1942   1.307   .     A
C1886  O1944   1.290   .     A
C1887  H1906   1.109   .     S
C1887  H1904   1.112   .     S
C1887  H1905   1.109   .     S
C1887  N1937   1.443   .     S
C1888  H1909   1.110   .     S
C1888  H1908   1.110   .     S
C1888  H1911   1.093   .     S
C1888  N1938   1.435   .     S
C1889  H1915   1.104   .     S
C1889  H1913   1.109   .     S
C1889  N1939   1.446   .     S
C1889  H1914   1.109   .     S
C1890  H1919   1.111   .     S
C1890  H1918   1.107   .     S
C1890  N1940   1.449   .     S
C1890  H1917   1.100   .     S
C1891  H1924   1.110   .     S
C1891  H1923   1.106   .     S
C1891  N1932   1.447   .     S
C1891  H1922   1.110   .     S
C1892  O1945   1.268   .     A
C1892  O1947   1.302   .     A
C1892  C1894   1.398   .     S
C1893  O1948   1.299   .     A
C1893  C1895   1.402   .     S
C1893  O1946   1.274   .     A
C1894  C2051   1.327   1_455 S
C1895  C1972   1.327   .     S
C1896  N1934   1.423   .     S
C1897  N1935   1.437   .     S
C1897  C1408   1.394   1_565 S
C1898  N1936   1.428   .     S
C1898  C1428   1.391   1_565 S
H1899  N1934   1.029   .     S
H1903  N1937   1.028   .     S
H1907  N1938   1.028   .     S
H1912  N1939   1.030   .     S
H1916  N1940   1.027   .     S
H1920  N1932   1.025   .     S
H1926  N1935   1.033   .     S
H1930  N1936   1.032   .     S
N1931  Zn1949  2.034   .     S
N1933  Zn1950  2.034   .     S
O1941  Zn1949  1.996   .     S
O1942  Zn1950  1.996   .     S
O1943  Zn1950  2.020   .     S
O1944  Zn1949  2.020   .     S
O1945  Zn1949  1.995   .     S
O1946  Zn1950  1.995   .     S
O1947  Zn1950  1.951   .     S
O1948  Zn1949  1.951   .     S
Br1951 C1972   1.936   .     S
Br1952 C1973   1.934   .     S
C1953  O2021   1.305   .     A
C1953  O2019   1.295   .     A
C1953  C1956   1.452   .     S
C1954  N2015   1.425   .     S
C1954  C1956   1.421   .     A
C1955  C1964   1.445   .     S
C1955  C1975   1.406   .     A
C1955  C1976   1.392   .     A
C1956  C1974   1.415   .     A
C1957  N2016   1.419   .     S
C1957  N2011   1.379   .     A
C1958  N2009   1.368   .     A
C1958  N2017   1.422   .     S
C1958  C556    1.444   1_556 S
C1959  N2018   1.423   .     S
C1959  N2009   1.367   .     A
C1959  C553    1.432   1_556 S
C1960  N2011   1.379   .     A
C1960  N2010   1.421   .     S
C1961  H1988   1.109   .     S
C1961  H1999   1.111   .     S
C1961  H2003   1.109   .     S
C1961  N2012   1.450   .     S
C1962  H2006   1.107   .     S
C1962  H2007   1.101   .     S
C1962  N2013   1.440   .     S
C1962  H1537   1.103   1_565 S
C1963  H1978   1.111   .     S
C1963  N2014   1.443   .     S
C1963  H1979   1.109   .     S
C1963  H1980   1.099   .     S
C1964  O2020   1.307   .     A
C1964  O2022   1.290   .     A
C1965  H1984   1.109   .     S
C1965  H1982   1.112   .     S
C1965  H1983   1.109   .     S
C1965  N2015   1.443   .     S
C1966  H1987   1.110   .     S
C1966  H1986   1.110   .     S
C1966  H1989   1.093   .     S
C1966  N2016   1.435   .     S
C1967  H1993   1.104   .     S
C1967  H1991   1.109   .     S
C1967  N2017   1.446   .     S
C1967  H1992   1.109   .     S
C1968  H1997   1.111   .     S
C1968  H1996   1.107   .     S
C1968  N2018   1.449   .     S
C1968  H1995   1.100   .     S
C1969  H2002   1.110   .     S
C1969  H2001   1.106   .     S
C1969  N2010   1.447   .     S
C1969  H2000   1.110   .     S
C1970  O2023   1.268   .     A
C1970  O2025   1.302   .     A
C1970  C1972   1.398   .     S
C1971  O2026   1.299   .     A
C1971  C1973   1.402   .     S
C1971  O2024   1.274   .     A
C1973  C2050   1.327   .     S
C1974  N2012   1.423   .     S
C1975  N2013   1.437   .     S
C1975  C1486   1.394   1_565 S
C1976  N2014   1.428   .     S
C1976  C1506   1.391   1_565 S
H1977  N2012   1.029   .     S
H1981  N2015   1.028   .     S
H1985  N2016   1.028   .     S
H1990  N2017   1.030   .     S
H1994  N2018   1.027   .     S
H1998  N2010   1.025   .     S
H2004  N2013   1.033   .     S
H2008  N2014   1.032   .     S
N2009  Zn2027  2.034   .     S
N2011  Zn2028  2.034   .     S
O2019  Zn2027  1.996   .     S
O2020  Zn2028  1.996   .     S
O2021  Zn2028  2.020   .     S
O2022  Zn2027  2.020   .     S
O2023  Zn2027  1.995   .     S
O2024  Zn2028  1.995   .     S
O2025  Zn2028  1.951   .     S
O2026  Zn2027  1.951   .     S
Br2029 C2050   1.936   .     S
Br2030 C2051   1.934   .     S
C2031  O2099   1.305   .     A
C2031  O2097   1.295   .     A
C2031  C2034   1.452   .     S
C2032  N2093   1.425   .     S
C2032  C2034   1.421   .     A
C2033  C2042   1.445   .     S
C2033  C2053   1.406   .     A
C2033  C2054   1.392   .     A
C2034  C2052   1.415   .     A
C2035  N2094   1.419   .     S
C2035  N2089   1.379   .     A
C2036  N2087   1.368   .     A
C2036  N2095   1.422   .     S
C2036  C634    1.444   1_556 S
C2037  N2096   1.423   .     S
C2037  N2087   1.367   .     A
C2037  C631    1.432   1_556 S
C2038  N2089   1.379   .     A
C2038  N2088   1.421   .     S
C2039  H2066   1.109   .     S
C2039  H2077   1.111   .     S
C2039  H2081   1.109   .     S
C2039  N2090   1.450   .     S
C2040  H2084   1.107   .     S
C2040  H2085   1.101   .     S
C2040  N2091   1.440   .     S
C2040  H1615   1.103   1_565 S
C2041  H2056   1.111   .     S
C2041  N2092   1.443   .     S
C2041  H2057   1.109   .     S
C2041  H2058   1.099   .     S
C2042  O2098   1.307   .     A
C2042  O2100   1.290   .     A
C2043  H2062   1.109   .     S
C2043  H2060   1.112   .     S
C2043  H2061   1.109   .     S
C2043  N2093   1.443   .     S
C2044  H2065   1.110   .     S
C2044  H2064   1.110   .     S
C2044  H2067   1.093   .     S
C2044  N2094   1.435   .     S
C2045  H2071   1.104   .     S
C2045  H2069   1.109   .     S
C2045  N2095   1.446   .     S
C2045  H2070   1.109   .     S
C2046  H2075   1.111   .     S
C2046  H2074   1.107   .     S
C2046  N2096   1.449   .     S
C2046  H2073   1.100   .     S
C2047  H2080   1.110   .     S
C2047  H2079   1.106   .     S
C2047  N2088   1.447   .     S
C2047  H2078   1.110   .     S
C2048  O2101   1.268   .     A
C2048  O2103   1.302   .     A
C2048  C2050   1.398   .     S
C2049  O2104   1.299   .     A
C2049  C2051   1.402   .     S
C2049  O2102   1.274   .     A
C2051  C1894   1.327   1_655 S
C2052  N2090   1.423   .     S
C2053  N2091   1.437   .     S
C2053  C1564   1.394   1_565 S
C2054  N2092   1.428   .     S
C2054  C1584   1.391   1_565 S
H2055  N2090   1.029   .     S
H2059  N2093   1.028   .     S
H2063  N2094   1.028   .     S
H2068  N2095   1.030   .     S
H2072  N2096   1.027   .     S
H2076  N2088   1.025   .     S
H2082  N2091   1.033   .     S
H2086  N2092   1.032   .     S
N2087  Zn2105  2.034   .     S
N2089  Zn2106  2.034   .     S
O2097  Zn2105  1.996   .     S
O2098  Zn2106  1.996   .     S
O2099  Zn2106  2.020   .     S
O2100  Zn2105  2.020   .     S
O2101  Zn2105  1.995   .     S
O2102  Zn2106  1.995   .     S
O2103  Zn2106  1.951   .     S
O2104  Zn2105  1.951   .     S
