data_str_m2_o10_o16_pcu_sym.45
_audit_creation_date              2020-01-03
_audit_creation_method            'Materials Studio'
_symmetry_space_group_name_H-M    'P1'
_symmetry_Int_Tables_number       1
_symmetry_cell_setting            triclinic
loop_
_symmetry_equiv_pos_as_xyz
  x,y,z
_cell_length_a                    22.3955
_cell_length_b                    26.1042
_cell_length_c                    26.7492
_cell_angle_alpha                 94.3859
_cell_angle_beta                  77.5503
_cell_angle_gamma                 102.9032
loop_
_atom_site_label
_atom_site_type_symbol
_atom_site_fract_x
_atom_site_fract_y
_atom_site_fract_z
_atom_site_U_iso_or_equiv
_atom_site_adp_type
_atom_site_occupancy
C1     C     0.18205   0.26666   0.25068   0.00000  Uiso   1.00
C2     C     0.10973   0.16099   0.40377   0.00000  Uiso   1.00
C3     C     0.19089   0.32263   0.25087   0.00000  Uiso   1.00
C4     C     0.13259   0.16458   0.34739   0.00000  Uiso   1.00
C5     C     0.14513   0.01096   0.24399   0.00000  Uiso   1.00
C6     C     0.15217   0.06674   0.24737   0.00000  Uiso   1.00
C7     C     0.20047   0.17103   0.15300   0.00000  Uiso   1.00
C8     C     0.28275   0.23853   0.02977   0.00000  Uiso   1.00
C9     C     0.22041   0.18192   0.09816   0.00000  Uiso   1.00
C10    C     0.04948   0.13136   0.42417   0.00000  Uiso   1.00
C11    C     0.03376   0.11884   0.47595   0.00000  Uiso   1.00
C12    C     0.13728   0.16466   0.48812   0.00000  Uiso   1.00
C13    C     0.07789   0.13269   0.00682   0.00000  Uiso   1.00
C14    C     0.31159   0.29239   0.12607   0.00000  Uiso   1.00
C15    C     0.02077   0.31254   0.16377   0.00000  Uiso   1.00
C16    C     0.00216   0.24702   0.31925   0.00000  Uiso   1.00
C17    C     0.04253   0.26517   0.35909   0.00000  Uiso   1.00
C18    C     0.32581   0.06615   0.38156   0.00000  Uiso   1.00
C19    C     0.27126   0.05323   0.35415   0.00000  Uiso   1.00
C20    C     0.14986   0.18298   0.43761   0.00000  Uiso   1.00
C21    C     0.18347   0.18147   0.01853   0.00000  Uiso   1.00
C22    C     0.23693   0.22105   0.00038   0.00000  Uiso   1.00
C23    C     0.24257   0.24464   0.45411   0.00000  Uiso   1.00
C24    C     0.19969   0.22572   0.42311   0.00000  Uiso   1.00
C25    C     0.17764   0.16107   0.06680   0.00000  Uiso   1.00
C26    C     0.27397   0.22044   0.07936   0.00000  Uiso   1.00
Cu27   Cu    0.10710   0.16105   0.24435   0.00000  Uiso   1.00
Cu28   Cu    0.22623   0.17228   0.25564   0.00000  Uiso   1.00
H29    H     0.10193   0.32094   0.23558   0.00000  Uiso   1.00
H30    H     0.26263   0.29345   0.14576   0.00000  Uiso   1.00
H31    H     0.32607   0.31933   0.09328   0.00000  Uiso   1.00
H32    H     0.07033   0.31409   0.14465   0.00000  Uiso   1.00
H33    H     0.01540   0.01930   0.17823   0.00000  Uiso   1.00
H34    H     0.00826   0.28599   0.19660   0.00000  Uiso   1.00
H35    H     0.28906   0.25622   0.33324   0.00000  Uiso   1.00
H36    H     0.02388   0.26943   0.28403   0.00000  Uiso   1.00
H37    H     0.09208   0.26430   0.34259   0.00000  Uiso   1.00
H38    H     0.04005   0.30588   0.37255   0.00000  Uiso   1.00
H39    H     0.02654   0.23898   0.39229   0.00000  Uiso   1.00
H40    H     0.00222   0.13676   0.20327   0.00000  Uiso   1.00
H41    H     0.31339   0.04112   0.41573   0.00000  Uiso   1.00
H42    H     0.03448   0.05680   0.35492   0.00000  Uiso   1.00
H43    H     0.28295   0.07626   0.31885   0.00000  Uiso   1.00
H44    H     0.26140   0.01067   0.34367   0.00000  Uiso   1.00
H45    H     0.22878   0.06303   0.37950   0.00000  Uiso   1.00
H46    H     0.27972   0.27839   0.44231   0.00000  Uiso   1.00
H47    H     0.32419   0.26795   0.01512   0.00000  Uiso   1.00
H48    H     0.13882   0.12991   0.08190   0.00000  Uiso   1.00
H49    H     0.06263   0.12077   0.04604   0.00000  Uiso   1.00
H50    H     0.32037   0.09763   0.49226   0.00000  Uiso   1.00
H51    H     0.20306   0.24656   0.38898   0.00000  Uiso   1.00
H52    H     0.23530   0.01282   0.25722   0.00000  Uiso   1.00
N53    N     0.31574   0.18074   0.26416   0.00000  Uiso   1.00
N54    N     0.01759   0.15259   0.23584   0.00000  Uiso   1.00
O55    O     0.12797   0.23807   0.24633   0.00000  Uiso   1.00
O56    O     0.32952   0.19253   0.31063   0.00000  Uiso   1.00
O57    O     0.00357   0.12011   0.39531   0.00000  Uiso   1.00
O58    O     0.22858   0.24755   0.25586   0.00000  Uiso   1.00
O59    O     0.09181   0.15960   0.31839   0.00000  Uiso   1.00
O60    O     0.19242   0.16908   0.32793   0.00000  Uiso   1.00
O61    O     0.10476   0.08578   0.24413   0.00000  Uiso   1.00
O62    O     0.20536   0.09526   0.25367   0.00000  Uiso   1.00
O63    O     0.14092   0.16425   0.17207   0.00000  Uiso   1.00
O64    O     0.24152   0.17373   0.18160   0.00000  Uiso   1.00
O65    O     0.31725   0.24064   0.10957   0.00000  Uiso   1.00
C66    C     0.51538   0.26666   0.25068   0.00000  Uiso   1.00
C67    C     0.44306   0.16099   0.40377   0.00000  Uiso   1.00
C68    C     0.52422   0.32263   0.25087   0.00000  Uiso   1.00
C69    C     0.46593   0.16458   0.34739   0.00000  Uiso   1.00
C70    C     0.47846   0.01096   0.24399   0.00000  Uiso   1.00
C71    C     0.48550   0.06674   0.24737   0.00000  Uiso   1.00
C72    C     0.53380   0.17103   0.15300   0.00000  Uiso   1.00
C73    C     0.61609   0.23853   0.02977   0.00000  Uiso   1.00
C74    C     0.55374   0.18192   0.09816   0.00000  Uiso   1.00
C75    C     0.38282   0.13136   0.42417   0.00000  Uiso   1.00
C76    C     0.36710   0.11884   0.47595   0.00000  Uiso   1.00
C77    C     0.47062   0.16466   0.48812   0.00000  Uiso   1.00
C78    C     0.41122   0.13269   0.00682   0.00000  Uiso   1.00
C79    C     0.64493   0.29239   0.12607   0.00000  Uiso   1.00
C80    C     0.35410   0.31254   0.16377   0.00000  Uiso   1.00
C81    C     0.33550   0.24702   0.31925   0.00000  Uiso   1.00
C82    C     0.37587   0.26517   0.35909   0.00000  Uiso   1.00
C83    C     0.65914   0.06615   0.38156   0.00000  Uiso   1.00
C84    C     0.60460   0.05323   0.35415   0.00000  Uiso   1.00
C85    C     0.48320   0.18298   0.43761   0.00000  Uiso   1.00
C86    C     0.51680   0.18147   0.01853   0.00000  Uiso   1.00
C87    C     0.57026   0.22105   0.00038   0.00000  Uiso   1.00
C88    C     0.57591   0.24464   0.45411   0.00000  Uiso   1.00
C89    C     0.53303   0.22572   0.42311   0.00000  Uiso   1.00
C90    C     0.51097   0.16107   0.06680   0.00000  Uiso   1.00
C91    C     0.60730   0.22044   0.07936   0.00000  Uiso   1.00
Cu92   Cu    0.44043   0.16105   0.24435   0.00000  Uiso   1.00
Cu93   Cu    0.55957   0.17228   0.25564   0.00000  Uiso   1.00
H94    H     0.43526   0.32094   0.23558   0.00000  Uiso   1.00
H95    H     0.59597   0.29345   0.14576   0.00000  Uiso   1.00
H96    H     0.65940   0.31933   0.09328   0.00000  Uiso   1.00
H97    H     0.40367   0.31409   0.14465   0.00000  Uiso   1.00
H98    H     0.34873   0.01930   0.17823   0.00000  Uiso   1.00
H99    H     0.34159   0.28599   0.19660   0.00000  Uiso   1.00
H100   H     0.62240   0.25622   0.33324   0.00000  Uiso   1.00
H101   H     0.35721   0.26943   0.28403   0.00000  Uiso   1.00
H102   H     0.42541   0.26430   0.34259   0.00000  Uiso   1.00
H103   H     0.37339   0.30588   0.37255   0.00000  Uiso   1.00
H104   H     0.35987   0.23898   0.39229   0.00000  Uiso   1.00
H105   H     0.33556   0.13676   0.20327   0.00000  Uiso   1.00
H106   H     0.64673   0.04112   0.41573   0.00000  Uiso   1.00
H107   H     0.36781   0.05680   0.35492   0.00000  Uiso   1.00
H108   H     0.61628   0.07626   0.31885   0.00000  Uiso   1.00
H109   H     0.59474   0.01067   0.34367   0.00000  Uiso   1.00
H110   H     0.56212   0.06303   0.37950   0.00000  Uiso   1.00
H111   H     0.61305   0.27839   0.44231   0.00000  Uiso   1.00
H112   H     0.65752   0.26795   0.01512   0.00000  Uiso   1.00
H113   H     0.47215   0.12991   0.08190   0.00000  Uiso   1.00
H114   H     0.39597   0.12077   0.04604   0.00000  Uiso   1.00
H115   H     0.65370   0.09763   0.49226   0.00000  Uiso   1.00
H116   H     0.53639   0.24656   0.38898   0.00000  Uiso   1.00
H117   H     0.56863   0.01282   0.25722   0.00000  Uiso   1.00
N118   N     0.64908   0.18074   0.26416   0.00000  Uiso   1.00
N119   N     0.35092   0.15259   0.23584   0.00000  Uiso   1.00
O120   O     0.46131   0.23807   0.24633   0.00000  Uiso   1.00
O121   O     0.66285   0.19253   0.31063   0.00000  Uiso   1.00
O122   O     0.33691   0.12011   0.39531   0.00000  Uiso   1.00
O123   O     0.56191   0.24755   0.25586   0.00000  Uiso   1.00
O124   O     0.42515   0.15960   0.31839   0.00000  Uiso   1.00
O125   O     0.52575   0.16908   0.32793   0.00000  Uiso   1.00
O126   O     0.43809   0.08578   0.24413   0.00000  Uiso   1.00
O127   O     0.53869   0.09526   0.25367   0.00000  Uiso   1.00
O128   O     0.47425   0.16425   0.17207   0.00000  Uiso   1.00
O129   O     0.57485   0.17373   0.18160   0.00000  Uiso   1.00
O130   O     0.65059   0.24064   0.10957   0.00000  Uiso   1.00
C131   C     0.84872   0.26666   0.25068   0.00000  Uiso   1.00
C132   C     0.77640   0.16099   0.40377   0.00000  Uiso   1.00
C133   C     0.85756   0.32263   0.25087   0.00000  Uiso   1.00
C134   C     0.79926   0.16458   0.34739   0.00000  Uiso   1.00
C135   C     0.81180   0.01096   0.24399   0.00000  Uiso   1.00
C136   C     0.81884   0.06674   0.24737   0.00000  Uiso   1.00
C137   C     0.86713   0.17103   0.15300   0.00000  Uiso   1.00
C138   C     0.94942   0.23853   0.02977   0.00000  Uiso   1.00
C139   C     0.88708   0.18192   0.09816   0.00000  Uiso   1.00
C140   C     0.71615   0.13136   0.42417   0.00000  Uiso   1.00
C141   C     0.70043   0.11884   0.47595   0.00000  Uiso   1.00
C142   C     0.80395   0.16466   0.48812   0.00000  Uiso   1.00
C143   C     0.74456   0.13269   0.00682   0.00000  Uiso   1.00
C144   C     0.97826   0.29239   0.12607   0.00000  Uiso   1.00
C145   C     0.68744   0.31254   0.16377   0.00000  Uiso   1.00
C146   C     0.66883   0.24702   0.31925   0.00000  Uiso   1.00
C147   C     0.70920   0.26517   0.35909   0.00000  Uiso   1.00
C148   C     0.99248   0.06615   0.38156   0.00000  Uiso   1.00
C149   C     0.93793   0.05323   0.35415   0.00000  Uiso   1.00
C150   C     0.81653   0.18298   0.43761   0.00000  Uiso   1.00
C151   C     0.85014   0.18147   0.01853   0.00000  Uiso   1.00
C152   C     0.90359   0.22105   0.00038   0.00000  Uiso   1.00
C153   C     0.90924   0.24464   0.45411   0.00000  Uiso   1.00
C154   C     0.86636   0.22572   0.42311   0.00000  Uiso   1.00
C155   C     0.84431   0.16107   0.06680   0.00000  Uiso   1.00
C156   C     0.94063   0.22044   0.07936   0.00000  Uiso   1.00
Cu157  Cu    0.77377   0.16105   0.24435   0.00000  Uiso   1.00
Cu158  Cu    0.89290   0.17228   0.25564   0.00000  Uiso   1.00
H159   H     0.76859   0.32094   0.23558   0.00000  Uiso   1.00
H160   H     0.92930   0.29345   0.14576   0.00000  Uiso   1.00
H161   H     0.99274   0.31933   0.09328   0.00000  Uiso   1.00
H162   H     0.73700   0.31409   0.14465   0.00000  Uiso   1.00
H163   H     0.68207   0.01930   0.17823   0.00000  Uiso   1.00
H164   H     0.67493   0.28599   0.19660   0.00000  Uiso   1.00
H165   H     0.95573   0.25622   0.33324   0.00000  Uiso   1.00
H166   H     0.69055   0.26943   0.28403   0.00000  Uiso   1.00
H167   H     0.75875   0.26430   0.34259   0.00000  Uiso   1.00
H168   H     0.70672   0.30588   0.37255   0.00000  Uiso   1.00
H169   H     0.69320   0.23898   0.39229   0.00000  Uiso   1.00
H170   H     0.66889   0.13676   0.20327   0.00000  Uiso   1.00
H171   H     0.98006   0.04112   0.41573   0.00000  Uiso   1.00
H172   H     0.70115   0.05680   0.35492   0.00000  Uiso   1.00
H173   H     0.94962   0.07626   0.31885   0.00000  Uiso   1.00
H174   H     0.92807   0.01067   0.34367   0.00000  Uiso   1.00
H175   H     0.89545   0.06303   0.37950   0.00000  Uiso   1.00
H176   H     0.94638   0.27839   0.44231   0.00000  Uiso   1.00
H177   H     0.99086   0.26795   0.01512   0.00000  Uiso   1.00
H178   H     0.80549   0.12991   0.08190   0.00000  Uiso   1.00
H179   H     0.72930   0.12077   0.04604   0.00000  Uiso   1.00
H180   H     0.98704   0.09763   0.49226   0.00000  Uiso   1.00
H181   H     0.86973   0.24656   0.38898   0.00000  Uiso   1.00
H182   H     0.90196   0.01282   0.25722   0.00000  Uiso   1.00
N183   N     0.98241   0.18074   0.26416   0.00000  Uiso   1.00
N184   N     0.68426   0.15259   0.23584   0.00000  Uiso   1.00
O185   O     0.79464   0.23807   0.24633   0.00000  Uiso   1.00
O186   O     0.99619   0.19253   0.31063   0.00000  Uiso   1.00
O187   O     0.67024   0.12011   0.39531   0.00000  Uiso   1.00
O188   O     0.89524   0.24755   0.25586   0.00000  Uiso   1.00
O189   O     0.75848   0.15960   0.31839   0.00000  Uiso   1.00
O190   O     0.85908   0.16908   0.32793   0.00000  Uiso   1.00
O191   O     0.77142   0.08578   0.24413   0.00000  Uiso   1.00
O192   O     0.87203   0.09526   0.25367   0.00000  Uiso   1.00
O193   O     0.80758   0.16425   0.17207   0.00000  Uiso   1.00
O194   O     0.90819   0.17373   0.18160   0.00000  Uiso   1.00
O195   O     0.98392   0.24064   0.10957   0.00000  Uiso   1.00
C196   C     0.18205   0.60000   0.25068   0.00000  Uiso   1.00
C197   C     0.10973   0.49433   0.40377   0.00000  Uiso   1.00
C198   C     0.19089   0.65597   0.25087   0.00000  Uiso   1.00
C199   C     0.13259   0.49792   0.34739   0.00000  Uiso   1.00
C200   C     0.14513   0.34429   0.24399   0.00000  Uiso   1.00
C201   C     0.15217   0.40007   0.24737   0.00000  Uiso   1.00
C202   C     0.20047   0.50436   0.15300   0.00000  Uiso   1.00
C203   C     0.28275   0.57186   0.02977   0.00000  Uiso   1.00
C204   C     0.22041   0.51526   0.09816   0.00000  Uiso   1.00
C205   C     0.04948   0.46469   0.42417   0.00000  Uiso   1.00
C206   C     0.03376   0.45217   0.47595   0.00000  Uiso   1.00
C207   C     0.13728   0.49800   0.48812   0.00000  Uiso   1.00
C208   C     0.07789   0.46602   0.00682   0.00000  Uiso   1.00
C209   C     0.31159   0.62573   0.12607   0.00000  Uiso   1.00
C210   C     0.02077   0.64588   0.16377   0.00000  Uiso   1.00
C211   C     0.00216   0.58035   0.31925   0.00000  Uiso   1.00
C212   C     0.04253   0.59850   0.35909   0.00000  Uiso   1.00
C213   C     0.32581   0.39949   0.38156   0.00000  Uiso   1.00
C214   C     0.27126   0.38657   0.35415   0.00000  Uiso   1.00
C215   C     0.14986   0.51632   0.43761   0.00000  Uiso   1.00
C216   C     0.18347   0.51480   0.01853   0.00000  Uiso   1.00
C217   C     0.23693   0.55439   0.00038   0.00000  Uiso   1.00
C218   C     0.24257   0.57798   0.45411   0.00000  Uiso   1.00
C219   C     0.19969   0.55905   0.42311   0.00000  Uiso   1.00
C220   C     0.17764   0.49440   0.06680   0.00000  Uiso   1.00
C221   C     0.27397   0.55377   0.07936   0.00000  Uiso   1.00
Cu222  Cu    0.10710   0.49439   0.24435   0.00000  Uiso   1.00
Cu223  Cu    0.22623   0.50561   0.25564   0.00000  Uiso   1.00
H224   H     0.10193   0.65428   0.23558   0.00000  Uiso   1.00
H225   H     0.26263   0.62679   0.14576   0.00000  Uiso   1.00
H226   H     0.32607   0.65267   0.09328   0.00000  Uiso   1.00
H227   H     0.07033   0.64742   0.14465   0.00000  Uiso   1.00
H228   H     0.01540   0.35263   0.17823   0.00000  Uiso   1.00
H229   H     0.00826   0.61932   0.19660   0.00000  Uiso   1.00
H230   H     0.28906   0.58955   0.33324   0.00000  Uiso   1.00
H231   H     0.02388   0.60276   0.28403   0.00000  Uiso   1.00
H232   H     0.09208   0.59763   0.34259   0.00000  Uiso   1.00
H233   H     0.04005   0.63921   0.37255   0.00000  Uiso   1.00
H234   H     0.02654   0.57232   0.39229   0.00000  Uiso   1.00
H235   H     0.00222   0.47010   0.20327   0.00000  Uiso   1.00
H236   H     0.31339   0.37445   0.41573   0.00000  Uiso   1.00
H237   H     0.03448   0.39013   0.35492   0.00000  Uiso   1.00
H238   H     0.28295   0.40960   0.31885   0.00000  Uiso   1.00
H239   H     0.26140   0.34401   0.34367   0.00000  Uiso   1.00
H240   H     0.22878   0.39636   0.37950   0.00000  Uiso   1.00
H241   H     0.27972   0.61172   0.44231   0.00000  Uiso   1.00
H242   H     0.32419   0.60128   0.01512   0.00000  Uiso   1.00
H243   H     0.13882   0.46325   0.08190   0.00000  Uiso   1.00
H244   H     0.06263   0.45410   0.04604   0.00000  Uiso   1.00
H245   H     0.32037   0.43097   0.49226   0.00000  Uiso   1.00
H246   H     0.20306   0.57989   0.38898   0.00000  Uiso   1.00
H247   H     0.23530   0.34615   0.25722   0.00000  Uiso   1.00
N248   N     0.31574   0.51407   0.26416   0.00000  Uiso   1.00
N249   N     0.01759   0.48593   0.23584   0.00000  Uiso   1.00
O250   O     0.12797   0.57141   0.24633   0.00000  Uiso   1.00
O251   O     0.32952   0.52586   0.31063   0.00000  Uiso   1.00
O252   O     0.00357   0.45345   0.39531   0.00000  Uiso   1.00
O253   O     0.22858   0.58089   0.25586   0.00000  Uiso   1.00
O254   O     0.09181   0.49293   0.31839   0.00000  Uiso   1.00
O255   O     0.19242   0.50241   0.32793   0.00000  Uiso   1.00
O256   O     0.10476   0.41911   0.24413   0.00000  Uiso   1.00
O257   O     0.20536   0.42859   0.25367   0.00000  Uiso   1.00
O258   O     0.14092   0.49759   0.17207   0.00000  Uiso   1.00
O259   O     0.24152   0.50707   0.18160   0.00000  Uiso   1.00
O260   O     0.31725   0.57397   0.10957   0.00000  Uiso   1.00
C261   C     0.51538   0.60000   0.25068   0.00000  Uiso   1.00
C262   C     0.44306   0.49433   0.40377   0.00000  Uiso   1.00
C263   C     0.52422   0.65597   0.25087   0.00000  Uiso   1.00
C264   C     0.46593   0.49792   0.34739   0.00000  Uiso   1.00
C265   C     0.47846   0.34429   0.24399   0.00000  Uiso   1.00
C266   C     0.48550   0.40007   0.24737   0.00000  Uiso   1.00
C267   C     0.53380   0.50436   0.15300   0.00000  Uiso   1.00
C268   C     0.61609   0.57186   0.02977   0.00000  Uiso   1.00
C269   C     0.55374   0.51526   0.09816   0.00000  Uiso   1.00
C270   C     0.38282   0.46469   0.42417   0.00000  Uiso   1.00
C271   C     0.36710   0.45217   0.47595   0.00000  Uiso   1.00
C272   C     0.47062   0.49800   0.48812   0.00000  Uiso   1.00
C273   C     0.41122   0.46602   0.00682   0.00000  Uiso   1.00
C274   C     0.64493   0.62573   0.12607   0.00000  Uiso   1.00
C275   C     0.35410   0.64588   0.16377   0.00000  Uiso   1.00
C276   C     0.33550   0.58035   0.31925   0.00000  Uiso   1.00
C277   C     0.37587   0.59850   0.35909   0.00000  Uiso   1.00
C278   C     0.65914   0.39949   0.38156   0.00000  Uiso   1.00
C279   C     0.60460   0.38657   0.35415   0.00000  Uiso   1.00
C280   C     0.48320   0.51632   0.43761   0.00000  Uiso   1.00
C281   C     0.51680   0.51480   0.01853   0.00000  Uiso   1.00
C282   C     0.57026   0.55439   0.00038   0.00000  Uiso   1.00
C283   C     0.57591   0.57798   0.45411   0.00000  Uiso   1.00
C284   C     0.53303   0.55905   0.42311   0.00000  Uiso   1.00
C285   C     0.51097   0.49440   0.06680   0.00000  Uiso   1.00
C286   C     0.60730   0.55377   0.07936   0.00000  Uiso   1.00
Cu287  Cu    0.44043   0.49439   0.24435   0.00000  Uiso   1.00
Cu288  Cu    0.55957   0.50561   0.25564   0.00000  Uiso   1.00
H289   H     0.43526   0.65428   0.23558   0.00000  Uiso   1.00
H290   H     0.59597   0.62679   0.14576   0.00000  Uiso   1.00
H291   H     0.65940   0.65267   0.09328   0.00000  Uiso   1.00
H292   H     0.40367   0.64742   0.14465   0.00000  Uiso   1.00
H293   H     0.34873   0.35263   0.17823   0.00000  Uiso   1.00
H294   H     0.34159   0.61932   0.19660   0.00000  Uiso   1.00
H295   H     0.62240   0.58955   0.33324   0.00000  Uiso   1.00
H296   H     0.35721   0.60276   0.28403   0.00000  Uiso   1.00
H297   H     0.42541   0.59763   0.34259   0.00000  Uiso   1.00
H298   H     0.37339   0.63921   0.37255   0.00000  Uiso   1.00
H299   H     0.35987   0.57232   0.39229   0.00000  Uiso   1.00
H300   H     0.33556   0.47010   0.20327   0.00000  Uiso   1.00
H301   H     0.64673   0.37445   0.41573   0.00000  Uiso   1.00
H302   H     0.36781   0.39013   0.35492   0.00000  Uiso   1.00
H303   H     0.61628   0.40960   0.31885   0.00000  Uiso   1.00
H304   H     0.59474   0.34401   0.34367   0.00000  Uiso   1.00
H305   H     0.56212   0.39636   0.37950   0.00000  Uiso   1.00
H306   H     0.61305   0.61172   0.44231   0.00000  Uiso   1.00
H307   H     0.65752   0.60128   0.01512   0.00000  Uiso   1.00
H308   H     0.47215   0.46325   0.08190   0.00000  Uiso   1.00
H309   H     0.39597   0.45410   0.04604   0.00000  Uiso   1.00
H310   H     0.65370   0.43097   0.49226   0.00000  Uiso   1.00
H311   H     0.53639   0.57989   0.38898   0.00000  Uiso   1.00
H312   H     0.56863   0.34615   0.25722   0.00000  Uiso   1.00
N313   N     0.64908   0.51407   0.26416   0.00000  Uiso   1.00
N314   N     0.35092   0.48593   0.23584   0.00000  Uiso   1.00
O315   O     0.46131   0.57141   0.24633   0.00000  Uiso   1.00
O316   O     0.66285   0.52586   0.31063   0.00000  Uiso   1.00
O317   O     0.33691   0.45345   0.39531   0.00000  Uiso   1.00
O318   O     0.56191   0.58089   0.25586   0.00000  Uiso   1.00
O319   O     0.42515   0.49293   0.31839   0.00000  Uiso   1.00
O320   O     0.52575   0.50241   0.32793   0.00000  Uiso   1.00
O321   O     0.43809   0.41911   0.24413   0.00000  Uiso   1.00
O322   O     0.53869   0.42859   0.25367   0.00000  Uiso   1.00
O323   O     0.47425   0.49759   0.17207   0.00000  Uiso   1.00
O324   O     0.57485   0.50707   0.18160   0.00000  Uiso   1.00
O325   O     0.65059   0.57397   0.10957   0.00000  Uiso   1.00
C326   C     0.84872   0.60000   0.25068   0.00000  Uiso   1.00
C327   C     0.77640   0.49433   0.40377   0.00000  Uiso   1.00
C328   C     0.85756   0.65597   0.25087   0.00000  Uiso   1.00
C329   C     0.79926   0.49792   0.34739   0.00000  Uiso   1.00
C330   C     0.81180   0.34429   0.24399   0.00000  Uiso   1.00
C331   C     0.81884   0.40007   0.24737   0.00000  Uiso   1.00
C332   C     0.86713   0.50436   0.15300   0.00000  Uiso   1.00
C333   C     0.94942   0.57186   0.02977   0.00000  Uiso   1.00
C334   C     0.88708   0.51526   0.09816   0.00000  Uiso   1.00
C335   C     0.71615   0.46469   0.42417   0.00000  Uiso   1.00
C336   C     0.70043   0.45217   0.47595   0.00000  Uiso   1.00
C337   C     0.80395   0.49800   0.48812   0.00000  Uiso   1.00
C338   C     0.74456   0.46602   0.00682   0.00000  Uiso   1.00
C339   C     0.97826   0.62573   0.12607   0.00000  Uiso   1.00
C340   C     0.68744   0.64588   0.16377   0.00000  Uiso   1.00
C341   C     0.66883   0.58035   0.31925   0.00000  Uiso   1.00
C342   C     0.70920   0.59850   0.35909   0.00000  Uiso   1.00
C343   C     0.99248   0.39949   0.38156   0.00000  Uiso   1.00
C344   C     0.93793   0.38657   0.35415   0.00000  Uiso   1.00
C345   C     0.81653   0.51632   0.43761   0.00000  Uiso   1.00
C346   C     0.85014   0.51480   0.01853   0.00000  Uiso   1.00
C347   C     0.90359   0.55439   0.00038   0.00000  Uiso   1.00
C348   C     0.90924   0.57798   0.45411   0.00000  Uiso   1.00
C349   C     0.86636   0.55905   0.42311   0.00000  Uiso   1.00
C350   C     0.84431   0.49440   0.06680   0.00000  Uiso   1.00
C351   C     0.94063   0.55377   0.07936   0.00000  Uiso   1.00
Cu352  Cu    0.77377   0.49439   0.24435   0.00000  Uiso   1.00
Cu353  Cu    0.89290   0.50561   0.25564   0.00000  Uiso   1.00
H354   H     0.76859   0.65428   0.23558   0.00000  Uiso   1.00
H355   H     0.92930   0.62679   0.14576   0.00000  Uiso   1.00
H356   H     0.99274   0.65267   0.09328   0.00000  Uiso   1.00
H357   H     0.73700   0.64742   0.14465   0.00000  Uiso   1.00
H358   H     0.68207   0.35263   0.17823   0.00000  Uiso   1.00
H359   H     0.67493   0.61932   0.19660   0.00000  Uiso   1.00
H360   H     0.95573   0.58955   0.33324   0.00000  Uiso   1.00
H361   H     0.69055   0.60276   0.28403   0.00000  Uiso   1.00
H362   H     0.75875   0.59763   0.34259   0.00000  Uiso   1.00
H363   H     0.70672   0.63921   0.37255   0.00000  Uiso   1.00
H364   H     0.69320   0.57232   0.39229   0.00000  Uiso   1.00
H365   H     0.66889   0.47010   0.20327   0.00000  Uiso   1.00
H366   H     0.98006   0.37445   0.41573   0.00000  Uiso   1.00
H367   H     0.70115   0.39013   0.35492   0.00000  Uiso   1.00
H368   H     0.94962   0.40960   0.31885   0.00000  Uiso   1.00
H369   H     0.92807   0.34401   0.34367   0.00000  Uiso   1.00
H370   H     0.89545   0.39636   0.37950   0.00000  Uiso   1.00
H371   H     0.94638   0.61172   0.44231   0.00000  Uiso   1.00
H372   H     0.99086   0.60128   0.01512   0.00000  Uiso   1.00
H373   H     0.80549   0.46325   0.08190   0.00000  Uiso   1.00
H374   H     0.72930   0.45410   0.04604   0.00000  Uiso   1.00
H375   H     0.98704   0.43097   0.49226   0.00000  Uiso   1.00
H376   H     0.86973   0.57989   0.38898   0.00000  Uiso   1.00
H377   H     0.90196   0.34615   0.25722   0.00000  Uiso   1.00
N378   N     0.98241   0.51407   0.26416   0.00000  Uiso   1.00
N379   N     0.68426   0.48593   0.23584   0.00000  Uiso   1.00
O380   O     0.79464   0.57141   0.24633   0.00000  Uiso   1.00
O381   O     0.99619   0.52586   0.31063   0.00000  Uiso   1.00
O382   O     0.67024   0.45345   0.39531   0.00000  Uiso   1.00
O383   O     0.89524   0.58089   0.25586   0.00000  Uiso   1.00
O384   O     0.75848   0.49293   0.31839   0.00000  Uiso   1.00
O385   O     0.85908   0.50241   0.32793   0.00000  Uiso   1.00
O386   O     0.77142   0.41911   0.24413   0.00000  Uiso   1.00
O387   O     0.87203   0.42859   0.25367   0.00000  Uiso   1.00
O388   O     0.80758   0.49759   0.17207   0.00000  Uiso   1.00
O389   O     0.90819   0.50707   0.18160   0.00000  Uiso   1.00
O390   O     0.98392   0.57397   0.10957   0.00000  Uiso   1.00
C391   C     0.18205   0.93333   0.25068   0.00000  Uiso   1.00
C392   C     0.10973   0.82766   0.40377   0.00000  Uiso   1.00
C393   C     0.19089   0.98930   0.25087   0.00000  Uiso   1.00
C394   C     0.13259   0.83125   0.34739   0.00000  Uiso   1.00
C395   C     0.14513   0.67762   0.24399   0.00000  Uiso   1.00
C396   C     0.15217   0.73341   0.24737   0.00000  Uiso   1.00
C397   C     0.20047   0.83769   0.15300   0.00000  Uiso   1.00
C398   C     0.28275   0.90519   0.02977   0.00000  Uiso   1.00
C399   C     0.22041   0.84859   0.09816   0.00000  Uiso   1.00
C400   C     0.04948   0.79803   0.42417   0.00000  Uiso   1.00
C401   C     0.03376   0.78551   0.47595   0.00000  Uiso   1.00
C402   C     0.13728   0.83133   0.48812   0.00000  Uiso   1.00
C403   C     0.07789   0.79936   0.00682   0.00000  Uiso   1.00
C404   C     0.31159   0.95906   0.12607   0.00000  Uiso   1.00
C405   C     0.02077   0.97921   0.16377   0.00000  Uiso   1.00
C406   C     0.00216   0.91368   0.31925   0.00000  Uiso   1.00
C407   C     0.04253   0.93184   0.35909   0.00000  Uiso   1.00
C408   C     0.32581   0.73282   0.38156   0.00000  Uiso   1.00
C409   C     0.27126   0.71990   0.35415   0.00000  Uiso   1.00
C410   C     0.14986   0.84965   0.43761   0.00000  Uiso   1.00
C411   C     0.18347   0.84814   0.01853   0.00000  Uiso   1.00
C412   C     0.23693   0.88772   0.00038   0.00000  Uiso   1.00
C413   C     0.24257   0.91131   0.45411   0.00000  Uiso   1.00
C414   C     0.19969   0.89239   0.42311   0.00000  Uiso   1.00
C415   C     0.17764   0.82773   0.06680   0.00000  Uiso   1.00
C416   C     0.27397   0.88710   0.07936   0.00000  Uiso   1.00
Cu417  Cu    0.10710   0.82772   0.24435   0.00000  Uiso   1.00
Cu418  Cu    0.22623   0.83895   0.25564   0.00000  Uiso   1.00
H419   H     0.10193   0.98761   0.23558   0.00000  Uiso   1.00
H420   H     0.26263   0.96012   0.14576   0.00000  Uiso   1.00
H421   H     0.32607   0.98600   0.09328   0.00000  Uiso   1.00
H422   H     0.07033   0.98075   0.14465   0.00000  Uiso   1.00
H423   H     0.01540   0.68597   0.17823   0.00000  Uiso   1.00
H424   H     0.00826   0.95266   0.19660   0.00000  Uiso   1.00
H425   H     0.28906   0.92288   0.33324   0.00000  Uiso   1.00
H426   H     0.02388   0.93610   0.28403   0.00000  Uiso   1.00
H427   H     0.09208   0.93096   0.34259   0.00000  Uiso   1.00
H428   H     0.04005   0.97255   0.37255   0.00000  Uiso   1.00
H429   H     0.02654   0.90565   0.39229   0.00000  Uiso   1.00
H430   H     0.00222   0.80343   0.20327   0.00000  Uiso   1.00
H431   H     0.31339   0.70778   0.41573   0.00000  Uiso   1.00
H432   H     0.03448   0.72347   0.35492   0.00000  Uiso   1.00
H433   H     0.28295   0.74293   0.31885   0.00000  Uiso   1.00
H434   H     0.26140   0.67734   0.34367   0.00000  Uiso   1.00
H435   H     0.22878   0.72969   0.37950   0.00000  Uiso   1.00
H436   H     0.27972   0.94505   0.44231   0.00000  Uiso   1.00
H437   H     0.32419   0.93461   0.01512   0.00000  Uiso   1.00
H438   H     0.13882   0.79658   0.08190   0.00000  Uiso   1.00
H439   H     0.06263   0.78744   0.04604   0.00000  Uiso   1.00
H440   H     0.32037   0.76430   0.49226   0.00000  Uiso   1.00
H441   H     0.20306   0.91322   0.38898   0.00000  Uiso   1.00
H442   H     0.23530   0.67948   0.25722   0.00000  Uiso   1.00
N443   N     0.31574   0.84741   0.26416   0.00000  Uiso   1.00
N444   N     0.01759   0.81926   0.23584   0.00000  Uiso   1.00
O445   O     0.12797   0.90474   0.24633   0.00000  Uiso   1.00
O446   O     0.32952   0.85919   0.31063   0.00000  Uiso   1.00
O447   O     0.00357   0.78678   0.39531   0.00000  Uiso   1.00
O448   O     0.22858   0.91422   0.25586   0.00000  Uiso   1.00
O449   O     0.09181   0.82627   0.31839   0.00000  Uiso   1.00
O450   O     0.19242   0.83575   0.32793   0.00000  Uiso   1.00
O451   O     0.10476   0.75245   0.24413   0.00000  Uiso   1.00
O452   O     0.20536   0.76193   0.25367   0.00000  Uiso   1.00
O453   O     0.14092   0.83092   0.17207   0.00000  Uiso   1.00
O454   O     0.24152   0.84040   0.18160   0.00000  Uiso   1.00
O455   O     0.31725   0.90731   0.10957   0.00000  Uiso   1.00
C456   C     0.51538   0.93333   0.25068   0.00000  Uiso   1.00
C457   C     0.44306   0.82766   0.40377   0.00000  Uiso   1.00
C458   C     0.52422   0.98930   0.25087   0.00000  Uiso   1.00
C459   C     0.46593   0.83125   0.34739   0.00000  Uiso   1.00
C460   C     0.47846   0.67762   0.24399   0.00000  Uiso   1.00
C461   C     0.48550   0.73341   0.24737   0.00000  Uiso   1.00
C462   C     0.53380   0.83769   0.15300   0.00000  Uiso   1.00
C463   C     0.61609   0.90519   0.02977   0.00000  Uiso   1.00
C464   C     0.55374   0.84859   0.09816   0.00000  Uiso   1.00
C465   C     0.38282   0.79803   0.42417   0.00000  Uiso   1.00
C466   C     0.36710   0.78551   0.47595   0.00000  Uiso   1.00
C467   C     0.47062   0.83133   0.48812   0.00000  Uiso   1.00
C468   C     0.41122   0.79936   0.00682   0.00000  Uiso   1.00
C469   C     0.64493   0.95906   0.12607   0.00000  Uiso   1.00
C470   C     0.35410   0.97921   0.16377   0.00000  Uiso   1.00
C471   C     0.33550   0.91368   0.31925   0.00000  Uiso   1.00
C472   C     0.37587   0.93184   0.35909   0.00000  Uiso   1.00
C473   C     0.65914   0.73282   0.38156   0.00000  Uiso   1.00
C474   C     0.60460   0.71990   0.35415   0.00000  Uiso   1.00
C475   C     0.48320   0.84965   0.43761   0.00000  Uiso   1.00
C476   C     0.51680   0.84814   0.01853   0.00000  Uiso   1.00
C477   C     0.57026   0.88772   0.00038   0.00000  Uiso   1.00
C478   C     0.57591   0.91131   0.45411   0.00000  Uiso   1.00
C479   C     0.53303   0.89239   0.42311   0.00000  Uiso   1.00
C480   C     0.51097   0.82773   0.06680   0.00000  Uiso   1.00
C481   C     0.60730   0.88710   0.07936   0.00000  Uiso   1.00
Cu482  Cu    0.44043   0.82772   0.24435   0.00000  Uiso   1.00
Cu483  Cu    0.55957   0.83895   0.25564   0.00000  Uiso   1.00
H484   H     0.43526   0.98761   0.23558   0.00000  Uiso   1.00
H485   H     0.59597   0.96012   0.14576   0.00000  Uiso   1.00
H486   H     0.65940   0.98600   0.09328   0.00000  Uiso   1.00
H487   H     0.40367   0.98075   0.14465   0.00000  Uiso   1.00
H488   H     0.34873   0.68597   0.17823   0.00000  Uiso   1.00
H489   H     0.34159   0.95266   0.19660   0.00000  Uiso   1.00
H490   H     0.62240   0.92288   0.33324   0.00000  Uiso   1.00
H491   H     0.35721   0.93610   0.28403   0.00000  Uiso   1.00
H492   H     0.42541   0.93096   0.34259   0.00000  Uiso   1.00
H493   H     0.37339   0.97255   0.37255   0.00000  Uiso   1.00
H494   H     0.35987   0.90565   0.39229   0.00000  Uiso   1.00
H495   H     0.33556   0.80343   0.20327   0.00000  Uiso   1.00
H496   H     0.64673   0.70778   0.41573   0.00000  Uiso   1.00
H497   H     0.36781   0.72347   0.35492   0.00000  Uiso   1.00
H498   H     0.61628   0.74293   0.31885   0.00000  Uiso   1.00
H499   H     0.59474   0.67734   0.34367   0.00000  Uiso   1.00
H500   H     0.56212   0.72969   0.37950   0.00000  Uiso   1.00
H501   H     0.61305   0.94505   0.44231   0.00000  Uiso   1.00
H502   H     0.65752   0.93461   0.01512   0.00000  Uiso   1.00
H503   H     0.47215   0.79658   0.08190   0.00000  Uiso   1.00
H504   H     0.39597   0.78744   0.04604   0.00000  Uiso   1.00
H505   H     0.65370   0.76430   0.49226   0.00000  Uiso   1.00
H506   H     0.53639   0.91322   0.38898   0.00000  Uiso   1.00
H507   H     0.56863   0.67948   0.25722   0.00000  Uiso   1.00
N508   N     0.64908   0.84741   0.26416   0.00000  Uiso   1.00
N509   N     0.35092   0.81926   0.23584   0.00000  Uiso   1.00
O510   O     0.46131   0.90474   0.24633   0.00000  Uiso   1.00
O511   O     0.66285   0.85919   0.31063   0.00000  Uiso   1.00
O512   O     0.33691   0.78678   0.39531   0.00000  Uiso   1.00
O513   O     0.56191   0.91422   0.25586   0.00000  Uiso   1.00
O514   O     0.42515   0.82627   0.31839   0.00000  Uiso   1.00
O515   O     0.52575   0.83575   0.32793   0.00000  Uiso   1.00
O516   O     0.43809   0.75245   0.24413   0.00000  Uiso   1.00
O517   O     0.53869   0.76193   0.25367   0.00000  Uiso   1.00
O518   O     0.47425   0.83092   0.17207   0.00000  Uiso   1.00
O519   O     0.57485   0.84040   0.18160   0.00000  Uiso   1.00
O520   O     0.65059   0.90731   0.10957   0.00000  Uiso   1.00
C521   C     0.84872   0.93333   0.25068   0.00000  Uiso   1.00
C522   C     0.77640   0.82766   0.40377   0.00000  Uiso   1.00
C523   C     0.85756   0.98930   0.25087   0.00000  Uiso   1.00
C524   C     0.79926   0.83125   0.34739   0.00000  Uiso   1.00
C525   C     0.81180   0.67762   0.24399   0.00000  Uiso   1.00
C526   C     0.81884   0.73341   0.24737   0.00000  Uiso   1.00
C527   C     0.86713   0.83769   0.15300   0.00000  Uiso   1.00
C528   C     0.94942   0.90519   0.02977   0.00000  Uiso   1.00
C529   C     0.88708   0.84859   0.09816   0.00000  Uiso   1.00
C530   C     0.71615   0.79803   0.42417   0.00000  Uiso   1.00
C531   C     0.70043   0.78551   0.47595   0.00000  Uiso   1.00
C532   C     0.80395   0.83133   0.48812   0.00000  Uiso   1.00
C533   C     0.74456   0.79936   0.00682   0.00000  Uiso   1.00
C534   C     0.97826   0.95906   0.12607   0.00000  Uiso   1.00
C535   C     0.68744   0.97921   0.16377   0.00000  Uiso   1.00
C536   C     0.66883   0.91368   0.31925   0.00000  Uiso   1.00
C537   C     0.70920   0.93184   0.35909   0.00000  Uiso   1.00
C538   C     0.99248   0.73282   0.38156   0.00000  Uiso   1.00
C539   C     0.93793   0.71990   0.35415   0.00000  Uiso   1.00
C540   C     0.81653   0.84965   0.43761   0.00000  Uiso   1.00
C541   C     0.85014   0.84814   0.01853   0.00000  Uiso   1.00
C542   C     0.90359   0.88772   0.00038   0.00000  Uiso   1.00
C543   C     0.90924   0.91131   0.45411   0.00000  Uiso   1.00
C544   C     0.86636   0.89239   0.42311   0.00000  Uiso   1.00
C545   C     0.84431   0.82773   0.06680   0.00000  Uiso   1.00
C546   C     0.94063   0.88710   0.07936   0.00000  Uiso   1.00
Cu547  Cu    0.77377   0.82772   0.24435   0.00000  Uiso   1.00
Cu548  Cu    0.89290   0.83895   0.25564   0.00000  Uiso   1.00
H549   H     0.76859   0.98761   0.23558   0.00000  Uiso   1.00
H550   H     0.92930   0.96012   0.14576   0.00000  Uiso   1.00
H551   H     0.99274   0.98600   0.09328   0.00000  Uiso   1.00
H552   H     0.73700   0.98075   0.14465   0.00000  Uiso   1.00
H553   H     0.68207   0.68597   0.17823   0.00000  Uiso   1.00
H554   H     0.67493   0.95266   0.19660   0.00000  Uiso   1.00
H555   H     0.95573   0.92288   0.33324   0.00000  Uiso   1.00
H556   H     0.69055   0.93610   0.28403   0.00000  Uiso   1.00
H557   H     0.75875   0.93096   0.34259   0.00000  Uiso   1.00
H558   H     0.70672   0.97255   0.37255   0.00000  Uiso   1.00
H559   H     0.69320   0.90565   0.39229   0.00000  Uiso   1.00
H560   H     0.66889   0.80343   0.20327   0.00000  Uiso   1.00
H561   H     0.98006   0.70778   0.41573   0.00000  Uiso   1.00
H562   H     0.70115   0.72347   0.35492   0.00000  Uiso   1.00
H563   H     0.94962   0.74293   0.31885   0.00000  Uiso   1.00
H564   H     0.92807   0.67734   0.34367   0.00000  Uiso   1.00
H565   H     0.89545   0.72969   0.37950   0.00000  Uiso   1.00
H566   H     0.94638   0.94505   0.44231   0.00000  Uiso   1.00
H567   H     0.99086   0.93461   0.01512   0.00000  Uiso   1.00
H568   H     0.80549   0.79658   0.08190   0.00000  Uiso   1.00
H569   H     0.72930   0.78744   0.04604   0.00000  Uiso   1.00
H570   H     0.98704   0.76430   0.49226   0.00000  Uiso   1.00
H571   H     0.86973   0.91322   0.38898   0.00000  Uiso   1.00
H572   H     0.90196   0.67948   0.25722   0.00000  Uiso   1.00
N573   N     0.98241   0.84741   0.26416   0.00000  Uiso   1.00
N574   N     0.68426   0.81926   0.23584   0.00000  Uiso   1.00
O575   O     0.79464   0.90474   0.24633   0.00000  Uiso   1.00
O576   O     0.99619   0.85919   0.31063   0.00000  Uiso   1.00
O577   O     0.67024   0.78678   0.39531   0.00000  Uiso   1.00
O578   O     0.89524   0.91422   0.25586   0.00000  Uiso   1.00
O579   O     0.75848   0.82627   0.31839   0.00000  Uiso   1.00
O580   O     0.85908   0.83575   0.32793   0.00000  Uiso   1.00
O581   O     0.77142   0.75245   0.24413   0.00000  Uiso   1.00
O582   O     0.87203   0.76193   0.25367   0.00000  Uiso   1.00
O583   O     0.80758   0.83092   0.17207   0.00000  Uiso   1.00
O584   O     0.90819   0.84040   0.18160   0.00000  Uiso   1.00
O585   O     0.98392   0.90731   0.10957   0.00000  Uiso   1.00
C586   C     0.18205   0.26666   0.75068   0.00000  Uiso   1.00
C587   C     0.10973   0.16099   0.90377   0.00000  Uiso   1.00
C588   C     0.19089   0.32263   0.75087   0.00000  Uiso   1.00
C589   C     0.13259   0.16458   0.84739   0.00000  Uiso   1.00
C590   C     0.14513   0.01096   0.74399   0.00000  Uiso   1.00
C591   C     0.15217   0.06674   0.74737   0.00000  Uiso   1.00
C592   C     0.20047   0.17103   0.65300   0.00000  Uiso   1.00
C593   C     0.28275   0.23853   0.52977   0.00000  Uiso   1.00
C594   C     0.22041   0.18192   0.59816   0.00000  Uiso   1.00
C595   C     0.04948   0.13136   0.92417   0.00000  Uiso   1.00
C596   C     0.03376   0.11884   0.97595   0.00000  Uiso   1.00
C597   C     0.13728   0.16466   0.98812   0.00000  Uiso   1.00
C598   C     0.07789   0.13269   0.50682   0.00000  Uiso   1.00
C599   C     0.31159   0.29239   0.62607   0.00000  Uiso   1.00
C600   C     0.02077   0.31254   0.66377   0.00000  Uiso   1.00
C601   C     0.00216   0.24702   0.81925   0.00000  Uiso   1.00
C602   C     0.04253   0.26517   0.85909   0.00000  Uiso   1.00
C603   C     0.32581   0.06615   0.88156   0.00000  Uiso   1.00
C604   C     0.27126   0.05323   0.85415   0.00000  Uiso   1.00
C605   C     0.14986   0.18298   0.93761   0.00000  Uiso   1.00
C606   C     0.18347   0.18147   0.51853   0.00000  Uiso   1.00
C607   C     0.23693   0.22105   0.50038   0.00000  Uiso   1.00
C608   C     0.24257   0.24464   0.95411   0.00000  Uiso   1.00
C609   C     0.19969   0.22572   0.92311   0.00000  Uiso   1.00
C610   C     0.17764   0.16107   0.56680   0.00000  Uiso   1.00
C611   C     0.27397   0.22044   0.57936   0.00000  Uiso   1.00
Cu612  Cu    0.10710   0.16105   0.74435   0.00000  Uiso   1.00
Cu613  Cu    0.22623   0.17228   0.75564   0.00000  Uiso   1.00
H614   H     0.10193   0.32094   0.73558   0.00000  Uiso   1.00
H615   H     0.26263   0.29345   0.64576   0.00000  Uiso   1.00
H616   H     0.32607   0.31933   0.59328   0.00000  Uiso   1.00
H617   H     0.07033   0.31409   0.64465   0.00000  Uiso   1.00
H618   H     0.01540   0.01930   0.67823   0.00000  Uiso   1.00
H619   H     0.00826   0.28599   0.69660   0.00000  Uiso   1.00
H620   H     0.28906   0.25622   0.83324   0.00000  Uiso   1.00
H621   H     0.02388   0.26943   0.78403   0.00000  Uiso   1.00
H622   H     0.09208   0.26430   0.84259   0.00000  Uiso   1.00
H623   H     0.04005   0.30588   0.87255   0.00000  Uiso   1.00
H624   H     0.02654   0.23898   0.89229   0.00000  Uiso   1.00
H625   H     0.00222   0.13676   0.70327   0.00000  Uiso   1.00
H626   H     0.31339   0.04112   0.91573   0.00000  Uiso   1.00
H627   H     0.03448   0.05680   0.85492   0.00000  Uiso   1.00
H628   H     0.28295   0.07626   0.81885   0.00000  Uiso   1.00
H629   H     0.26140   0.01067   0.84367   0.00000  Uiso   1.00
H630   H     0.22878   0.06303   0.87950   0.00000  Uiso   1.00
H631   H     0.27972   0.27839   0.94231   0.00000  Uiso   1.00
H632   H     0.32419   0.26795   0.51512   0.00000  Uiso   1.00
H633   H     0.13882   0.12991   0.58190   0.00000  Uiso   1.00
H634   H     0.06263   0.12077   0.54604   0.00000  Uiso   1.00
H635   H     0.32037   0.09763   0.99226   0.00000  Uiso   1.00
H636   H     0.20306   0.24656   0.88898   0.00000  Uiso   1.00
H637   H     0.23530   0.01282   0.75722   0.00000  Uiso   1.00
N638   N     0.31574   0.18074   0.76416   0.00000  Uiso   1.00
N639   N     0.01759   0.15259   0.73584   0.00000  Uiso   1.00
O640   O     0.12797   0.23807   0.74633   0.00000  Uiso   1.00
O641   O     0.32952   0.19253   0.81063   0.00000  Uiso   1.00
O642   O     0.00357   0.12011   0.89531   0.00000  Uiso   1.00
O643   O     0.22858   0.24755   0.75586   0.00000  Uiso   1.00
O644   O     0.09181   0.15960   0.81839   0.00000  Uiso   1.00
O645   O     0.19242   0.16908   0.82793   0.00000  Uiso   1.00
O646   O     0.10476   0.08578   0.74413   0.00000  Uiso   1.00
O647   O     0.20536   0.09526   0.75367   0.00000  Uiso   1.00
O648   O     0.14092   0.16425   0.67207   0.00000  Uiso   1.00
O649   O     0.24152   0.17373   0.68160   0.00000  Uiso   1.00
O650   O     0.31725   0.24064   0.60957   0.00000  Uiso   1.00
C651   C     0.51538   0.26666   0.75068   0.00000  Uiso   1.00
C652   C     0.44306   0.16099   0.90377   0.00000  Uiso   1.00
C653   C     0.52422   0.32263   0.75087   0.00000  Uiso   1.00
C654   C     0.46593   0.16458   0.84739   0.00000  Uiso   1.00
C655   C     0.47846   0.01096   0.74399   0.00000  Uiso   1.00
C656   C     0.48550   0.06674   0.74737   0.00000  Uiso   1.00
C657   C     0.53380   0.17103   0.65300   0.00000  Uiso   1.00
C658   C     0.61609   0.23853   0.52977   0.00000  Uiso   1.00
C659   C     0.55374   0.18192   0.59816   0.00000  Uiso   1.00
C660   C     0.38282   0.13136   0.92417   0.00000  Uiso   1.00
C661   C     0.36710   0.11884   0.97595   0.00000  Uiso   1.00
C662   C     0.47062   0.16466   0.98812   0.00000  Uiso   1.00
C663   C     0.41122   0.13269   0.50682   0.00000  Uiso   1.00
C664   C     0.64493   0.29239   0.62607   0.00000  Uiso   1.00
C665   C     0.35410   0.31254   0.66377   0.00000  Uiso   1.00
C666   C     0.33550   0.24702   0.81925   0.00000  Uiso   1.00
C667   C     0.37587   0.26517   0.85909   0.00000  Uiso   1.00
C668   C     0.65914   0.06615   0.88156   0.00000  Uiso   1.00
C669   C     0.60460   0.05323   0.85415   0.00000  Uiso   1.00
C670   C     0.48320   0.18298   0.93761   0.00000  Uiso   1.00
C671   C     0.51680   0.18147   0.51853   0.00000  Uiso   1.00
C672   C     0.57026   0.22105   0.50038   0.00000  Uiso   1.00
C673   C     0.57591   0.24464   0.95411   0.00000  Uiso   1.00
C674   C     0.53303   0.22572   0.92311   0.00000  Uiso   1.00
C675   C     0.51097   0.16107   0.56680   0.00000  Uiso   1.00
C676   C     0.60730   0.22044   0.57936   0.00000  Uiso   1.00
Cu677  Cu    0.44043   0.16105   0.74435   0.00000  Uiso   1.00
Cu678  Cu    0.55957   0.17228   0.75564   0.00000  Uiso   1.00
H679   H     0.43526   0.32094   0.73558   0.00000  Uiso   1.00
H680   H     0.59597   0.29345   0.64576   0.00000  Uiso   1.00
H681   H     0.65940   0.31933   0.59328   0.00000  Uiso   1.00
H682   H     0.40367   0.31409   0.64465   0.00000  Uiso   1.00
H683   H     0.34873   0.01930   0.67823   0.00000  Uiso   1.00
H684   H     0.34159   0.28599   0.69660   0.00000  Uiso   1.00
H685   H     0.62240   0.25622   0.83324   0.00000  Uiso   1.00
H686   H     0.35721   0.26943   0.78403   0.00000  Uiso   1.00
H687   H     0.42541   0.26430   0.84259   0.00000  Uiso   1.00
H688   H     0.37339   0.30588   0.87255   0.00000  Uiso   1.00
H689   H     0.35987   0.23898   0.89229   0.00000  Uiso   1.00
H690   H     0.33556   0.13676   0.70327   0.00000  Uiso   1.00
H691   H     0.64673   0.04112   0.91573   0.00000  Uiso   1.00
H692   H     0.36781   0.05680   0.85492   0.00000  Uiso   1.00
H693   H     0.61628   0.07626   0.81885   0.00000  Uiso   1.00
H694   H     0.59474   0.01067   0.84367   0.00000  Uiso   1.00
H695   H     0.56212   0.06303   0.87950   0.00000  Uiso   1.00
H696   H     0.61305   0.27839   0.94231   0.00000  Uiso   1.00
H697   H     0.65752   0.26795   0.51512   0.00000  Uiso   1.00
H698   H     0.47215   0.12991   0.58190   0.00000  Uiso   1.00
H699   H     0.39597   0.12077   0.54604   0.00000  Uiso   1.00
H700   H     0.65370   0.09763   0.99226   0.00000  Uiso   1.00
H701   H     0.53639   0.24656   0.88898   0.00000  Uiso   1.00
H702   H     0.56863   0.01282   0.75722   0.00000  Uiso   1.00
N703   N     0.64908   0.18074   0.76416   0.00000  Uiso   1.00
N704   N     0.35092   0.15259   0.73584   0.00000  Uiso   1.00
O705   O     0.46131   0.23807   0.74633   0.00000  Uiso   1.00
O706   O     0.66285   0.19253   0.81063   0.00000  Uiso   1.00
O707   O     0.33691   0.12011   0.89531   0.00000  Uiso   1.00
O708   O     0.56191   0.24755   0.75586   0.00000  Uiso   1.00
O709   O     0.42515   0.15960   0.81839   0.00000  Uiso   1.00
O710   O     0.52575   0.16908   0.82793   0.00000  Uiso   1.00
O711   O     0.43809   0.08578   0.74413   0.00000  Uiso   1.00
O712   O     0.53869   0.09526   0.75367   0.00000  Uiso   1.00
O713   O     0.47425   0.16425   0.67207   0.00000  Uiso   1.00
O714   O     0.57485   0.17373   0.68160   0.00000  Uiso   1.00
O715   O     0.65059   0.24064   0.60957   0.00000  Uiso   1.00
C716   C     0.84872   0.26666   0.75068   0.00000  Uiso   1.00
C717   C     0.77640   0.16099   0.90377   0.00000  Uiso   1.00
C718   C     0.85756   0.32263   0.75087   0.00000  Uiso   1.00
C719   C     0.79926   0.16458   0.84739   0.00000  Uiso   1.00
C720   C     0.81180   0.01096   0.74399   0.00000  Uiso   1.00
C721   C     0.81884   0.06674   0.74737   0.00000  Uiso   1.00
C722   C     0.86713   0.17103   0.65300   0.00000  Uiso   1.00
C723   C     0.94942   0.23853   0.52977   0.00000  Uiso   1.00
C724   C     0.88708   0.18192   0.59816   0.00000  Uiso   1.00
C725   C     0.71615   0.13136   0.92417   0.00000  Uiso   1.00
C726   C     0.70043   0.11884   0.97595   0.00000  Uiso   1.00
C727   C     0.80395   0.16466   0.98812   0.00000  Uiso   1.00
C728   C     0.74456   0.13269   0.50682   0.00000  Uiso   1.00
C729   C     0.97826   0.29239   0.62607   0.00000  Uiso   1.00
C730   C     0.68744   0.31254   0.66377   0.00000  Uiso   1.00
C731   C     0.66883   0.24702   0.81925   0.00000  Uiso   1.00
C732   C     0.70920   0.26517   0.85909   0.00000  Uiso   1.00
C733   C     0.99248   0.06615   0.88156   0.00000  Uiso   1.00
C734   C     0.93793   0.05323   0.85415   0.00000  Uiso   1.00
C735   C     0.81653   0.18298   0.93761   0.00000  Uiso   1.00
C736   C     0.85014   0.18147   0.51853   0.00000  Uiso   1.00
C737   C     0.90359   0.22105   0.50038   0.00000  Uiso   1.00
C738   C     0.90924   0.24464   0.95411   0.00000  Uiso   1.00
C739   C     0.86636   0.22572   0.92311   0.00000  Uiso   1.00
C740   C     0.84431   0.16107   0.56680   0.00000  Uiso   1.00
C741   C     0.94063   0.22044   0.57936   0.00000  Uiso   1.00
Cu742  Cu    0.77377   0.16105   0.74435   0.00000  Uiso   1.00
Cu743  Cu    0.89290   0.17228   0.75564   0.00000  Uiso   1.00
H744   H     0.76859   0.32094   0.73558   0.00000  Uiso   1.00
H745   H     0.92930   0.29345   0.64576   0.00000  Uiso   1.00
H746   H     0.99274   0.31933   0.59328   0.00000  Uiso   1.00
H747   H     0.73700   0.31409   0.64465   0.00000  Uiso   1.00
H748   H     0.68207   0.01930   0.67823   0.00000  Uiso   1.00
H749   H     0.67493   0.28599   0.69660   0.00000  Uiso   1.00
H750   H     0.95573   0.25622   0.83324   0.00000  Uiso   1.00
H751   H     0.69055   0.26943   0.78403   0.00000  Uiso   1.00
H752   H     0.75875   0.26430   0.84259   0.00000  Uiso   1.00
H753   H     0.70672   0.30588   0.87255   0.00000  Uiso   1.00
H754   H     0.69320   0.23898   0.89229   0.00000  Uiso   1.00
H755   H     0.66889   0.13676   0.70327   0.00000  Uiso   1.00
H756   H     0.98006   0.04112   0.91573   0.00000  Uiso   1.00
H757   H     0.70115   0.05680   0.85492   0.00000  Uiso   1.00
H758   H     0.94962   0.07626   0.81885   0.00000  Uiso   1.00
H759   H     0.92807   0.01067   0.84367   0.00000  Uiso   1.00
H760   H     0.89545   0.06303   0.87950   0.00000  Uiso   1.00
H761   H     0.94638   0.27839   0.94231   0.00000  Uiso   1.00
H762   H     0.99086   0.26795   0.51512   0.00000  Uiso   1.00
H763   H     0.80549   0.12991   0.58190   0.00000  Uiso   1.00
H764   H     0.72930   0.12077   0.54604   0.00000  Uiso   1.00
H765   H     0.98704   0.09763   0.99226   0.00000  Uiso   1.00
H766   H     0.86973   0.24656   0.88898   0.00000  Uiso   1.00
H767   H     0.90196   0.01282   0.75722   0.00000  Uiso   1.00
N768   N     0.98241   0.18074   0.76416   0.00000  Uiso   1.00
N769   N     0.68426   0.15259   0.73584   0.00000  Uiso   1.00
O770   O     0.79464   0.23807   0.74633   0.00000  Uiso   1.00
O771   O     0.99619   0.19253   0.81063   0.00000  Uiso   1.00
O772   O     0.67024   0.12011   0.89531   0.00000  Uiso   1.00
O773   O     0.89524   0.24755   0.75586   0.00000  Uiso   1.00
O774   O     0.75848   0.15960   0.81839   0.00000  Uiso   1.00
O775   O     0.85908   0.16908   0.82793   0.00000  Uiso   1.00
O776   O     0.77142   0.08578   0.74413   0.00000  Uiso   1.00
O777   O     0.87203   0.09526   0.75367   0.00000  Uiso   1.00
O778   O     0.80758   0.16425   0.67207   0.00000  Uiso   1.00
O779   O     0.90819   0.17373   0.68160   0.00000  Uiso   1.00
O780   O     0.98392   0.24064   0.60957   0.00000  Uiso   1.00
C781   C     0.18205   0.60000   0.75068   0.00000  Uiso   1.00
C782   C     0.10973   0.49433   0.90377   0.00000  Uiso   1.00
C783   C     0.19089   0.65597   0.75087   0.00000  Uiso   1.00
C784   C     0.13259   0.49792   0.84739   0.00000  Uiso   1.00
C785   C     0.14513   0.34429   0.74399   0.00000  Uiso   1.00
C786   C     0.15217   0.40007   0.74737   0.00000  Uiso   1.00
C787   C     0.20047   0.50436   0.65300   0.00000  Uiso   1.00
C788   C     0.28275   0.57186   0.52977   0.00000  Uiso   1.00
C789   C     0.22041   0.51526   0.59816   0.00000  Uiso   1.00
C790   C     0.04948   0.46469   0.92417   0.00000  Uiso   1.00
C791   C     0.03376   0.45217   0.97595   0.00000  Uiso   1.00
C792   C     0.13728   0.49800   0.98812   0.00000  Uiso   1.00
C793   C     0.07789   0.46602   0.50682   0.00000  Uiso   1.00
C794   C     0.31159   0.62573   0.62607   0.00000  Uiso   1.00
C795   C     0.02077   0.64588   0.66377   0.00000  Uiso   1.00
C796   C     0.00216   0.58035   0.81925   0.00000  Uiso   1.00
C797   C     0.04253   0.59850   0.85909   0.00000  Uiso   1.00
C798   C     0.32581   0.39949   0.88156   0.00000  Uiso   1.00
C799   C     0.27126   0.38657   0.85415   0.00000  Uiso   1.00
C800   C     0.14986   0.51632   0.93761   0.00000  Uiso   1.00
C801   C     0.18347   0.51480   0.51853   0.00000  Uiso   1.00
C802   C     0.23693   0.55439   0.50038   0.00000  Uiso   1.00
C803   C     0.24257   0.57798   0.95411   0.00000  Uiso   1.00
C804   C     0.19969   0.55905   0.92311   0.00000  Uiso   1.00
C805   C     0.17764   0.49440   0.56680   0.00000  Uiso   1.00
C806   C     0.27397   0.55377   0.57936   0.00000  Uiso   1.00
Cu807  Cu    0.10710   0.49439   0.74435   0.00000  Uiso   1.00
Cu808  Cu    0.22623   0.50561   0.75564   0.00000  Uiso   1.00
H809   H     0.10193   0.65428   0.73558   0.00000  Uiso   1.00
H810   H     0.26263   0.62679   0.64576   0.00000  Uiso   1.00
H811   H     0.32607   0.65267   0.59328   0.00000  Uiso   1.00
H812   H     0.07033   0.64742   0.64465   0.00000  Uiso   1.00
H813   H     0.01540   0.35263   0.67823   0.00000  Uiso   1.00
H814   H     0.00826   0.61932   0.69660   0.00000  Uiso   1.00
H815   H     0.28906   0.58955   0.83324   0.00000  Uiso   1.00
H816   H     0.02388   0.60276   0.78403   0.00000  Uiso   1.00
H817   H     0.09208   0.59763   0.84259   0.00000  Uiso   1.00
H818   H     0.04005   0.63921   0.87255   0.00000  Uiso   1.00
H819   H     0.02654   0.57232   0.89229   0.00000  Uiso   1.00
H820   H     0.00222   0.47010   0.70327   0.00000  Uiso   1.00
H821   H     0.31339   0.37445   0.91573   0.00000  Uiso   1.00
H822   H     0.03448   0.39013   0.85492   0.00000  Uiso   1.00
H823   H     0.28295   0.40960   0.81885   0.00000  Uiso   1.00
H824   H     0.26140   0.34401   0.84367   0.00000  Uiso   1.00
H825   H     0.22878   0.39636   0.87950   0.00000  Uiso   1.00
H826   H     0.27972   0.61172   0.94231   0.00000  Uiso   1.00
H827   H     0.32419   0.60128   0.51512   0.00000  Uiso   1.00
H828   H     0.13882   0.46325   0.58190   0.00000  Uiso   1.00
H829   H     0.06263   0.45410   0.54604   0.00000  Uiso   1.00
H830   H     0.32037   0.43097   0.99226   0.00000  Uiso   1.00
H831   H     0.20306   0.57989   0.88898   0.00000  Uiso   1.00
H832   H     0.23530   0.34615   0.75722   0.00000  Uiso   1.00
N833   N     0.31574   0.51407   0.76416   0.00000  Uiso   1.00
N834   N     0.01759   0.48593   0.73584   0.00000  Uiso   1.00
O835   O     0.12797   0.57141   0.74633   0.00000  Uiso   1.00
O836   O     0.32952   0.52586   0.81063   0.00000  Uiso   1.00
O837   O     0.00357   0.45345   0.89531   0.00000  Uiso   1.00
O838   O     0.22858   0.58089   0.75586   0.00000  Uiso   1.00
O839   O     0.09181   0.49293   0.81839   0.00000  Uiso   1.00
O840   O     0.19242   0.50241   0.82793   0.00000  Uiso   1.00
O841   O     0.10476   0.41911   0.74413   0.00000  Uiso   1.00
O842   O     0.20536   0.42859   0.75367   0.00000  Uiso   1.00
O843   O     0.14092   0.49759   0.67207   0.00000  Uiso   1.00
O844   O     0.24152   0.50707   0.68160   0.00000  Uiso   1.00
O845   O     0.31725   0.57397   0.60957   0.00000  Uiso   1.00
C846   C     0.51538   0.60000   0.75068   0.00000  Uiso   1.00
C847   C     0.44306   0.49433   0.90377   0.00000  Uiso   1.00
C848   C     0.52422   0.65597   0.75087   0.00000  Uiso   1.00
C849   C     0.46593   0.49792   0.84739   0.00000  Uiso   1.00
C850   C     0.47846   0.34429   0.74399   0.00000  Uiso   1.00
C851   C     0.48550   0.40007   0.74737   0.00000  Uiso   1.00
C852   C     0.53380   0.50436   0.65300   0.00000  Uiso   1.00
C853   C     0.61609   0.57186   0.52977   0.00000  Uiso   1.00
C854   C     0.55374   0.51526   0.59816   0.00000  Uiso   1.00
C855   C     0.38282   0.46469   0.92417   0.00000  Uiso   1.00
C856   C     0.36710   0.45217   0.97595   0.00000  Uiso   1.00
C857   C     0.47062   0.49800   0.98812   0.00000  Uiso   1.00
C858   C     0.41122   0.46602   0.50682   0.00000  Uiso   1.00
C859   C     0.64493   0.62573   0.62607   0.00000  Uiso   1.00
C860   C     0.35410   0.64588   0.66377   0.00000  Uiso   1.00
C861   C     0.33550   0.58035   0.81925   0.00000  Uiso   1.00
C862   C     0.37587   0.59850   0.85909   0.00000  Uiso   1.00
C863   C     0.65914   0.39949   0.88156   0.00000  Uiso   1.00
C864   C     0.60460   0.38657   0.85415   0.00000  Uiso   1.00
C865   C     0.48320   0.51632   0.93761   0.00000  Uiso   1.00
C866   C     0.51680   0.51480   0.51853   0.00000  Uiso   1.00
C867   C     0.57026   0.55439   0.50038   0.00000  Uiso   1.00
C868   C     0.57591   0.57798   0.95411   0.00000  Uiso   1.00
C869   C     0.53303   0.55905   0.92311   0.00000  Uiso   1.00
C870   C     0.51097   0.49440   0.56680   0.00000  Uiso   1.00
C871   C     0.60730   0.55377   0.57936   0.00000  Uiso   1.00
Cu872  Cu    0.44043   0.49439   0.74435   0.00000  Uiso   1.00
Cu873  Cu    0.55957   0.50561   0.75564   0.00000  Uiso   1.00
H874   H     0.43526   0.65428   0.73558   0.00000  Uiso   1.00
H875   H     0.59597   0.62679   0.64576   0.00000  Uiso   1.00
H876   H     0.65940   0.65267   0.59328   0.00000  Uiso   1.00
H877   H     0.40367   0.64742   0.64465   0.00000  Uiso   1.00
H878   H     0.34873   0.35263   0.67823   0.00000  Uiso   1.00
H879   H     0.34159   0.61932   0.69660   0.00000  Uiso   1.00
H880   H     0.62240   0.58955   0.83324   0.00000  Uiso   1.00
H881   H     0.35721   0.60276   0.78403   0.00000  Uiso   1.00
H882   H     0.42541   0.59763   0.84259   0.00000  Uiso   1.00
H883   H     0.37339   0.63921   0.87255   0.00000  Uiso   1.00
H884   H     0.35987   0.57232   0.89229   0.00000  Uiso   1.00
H885   H     0.33556   0.47010   0.70327   0.00000  Uiso   1.00
H886   H     0.64673   0.37445   0.91573   0.00000  Uiso   1.00
H887   H     0.36781   0.39013   0.85492   0.00000  Uiso   1.00
H888   H     0.61628   0.40960   0.81885   0.00000  Uiso   1.00
H889   H     0.59474   0.34401   0.84367   0.00000  Uiso   1.00
H890   H     0.56212   0.39636   0.87950   0.00000  Uiso   1.00
H891   H     0.61305   0.61172   0.94231   0.00000  Uiso   1.00
H892   H     0.65752   0.60128   0.51512   0.00000  Uiso   1.00
H893   H     0.47215   0.46325   0.58190   0.00000  Uiso   1.00
H894   H     0.39597   0.45410   0.54604   0.00000  Uiso   1.00
H895   H     0.65370   0.43097   0.99226   0.00000  Uiso   1.00
H896   H     0.53639   0.57989   0.88898   0.00000  Uiso   1.00
H897   H     0.56863   0.34615   0.75722   0.00000  Uiso   1.00
N898   N     0.64908   0.51407   0.76416   0.00000  Uiso   1.00
N899   N     0.35092   0.48593   0.73584   0.00000  Uiso   1.00
O900   O     0.46131   0.57141   0.74633   0.00000  Uiso   1.00
O901   O     0.66285   0.52586   0.81063   0.00000  Uiso   1.00
O902   O     0.33691   0.45345   0.89531   0.00000  Uiso   1.00
O903   O     0.56191   0.58089   0.75586   0.00000  Uiso   1.00
O904   O     0.42515   0.49293   0.81839   0.00000  Uiso   1.00
O905   O     0.52575   0.50241   0.82793   0.00000  Uiso   1.00
O906   O     0.43809   0.41911   0.74413   0.00000  Uiso   1.00
O907   O     0.53869   0.42859   0.75367   0.00000  Uiso   1.00
O908   O     0.47425   0.49759   0.67207   0.00000  Uiso   1.00
O909   O     0.57485   0.50707   0.68160   0.00000  Uiso   1.00
O910   O     0.65059   0.57397   0.60957   0.00000  Uiso   1.00
C911   C     0.84872   0.60000   0.75068   0.00000  Uiso   1.00
C912   C     0.77640   0.49433   0.90377   0.00000  Uiso   1.00
C913   C     0.85756   0.65597   0.75087   0.00000  Uiso   1.00
C914   C     0.79926   0.49792   0.84739   0.00000  Uiso   1.00
C915   C     0.81180   0.34429   0.74399   0.00000  Uiso   1.00
C916   C     0.81884   0.40007   0.74737   0.00000  Uiso   1.00
C917   C     0.86713   0.50436   0.65300   0.00000  Uiso   1.00
C918   C     0.94942   0.57186   0.52977   0.00000  Uiso   1.00
C919   C     0.88708   0.51526   0.59816   0.00000  Uiso   1.00
C920   C     0.71615   0.46469   0.92417   0.00000  Uiso   1.00
C921   C     0.70043   0.45217   0.97595   0.00000  Uiso   1.00
C922   C     0.80395   0.49800   0.98812   0.00000  Uiso   1.00
C923   C     0.74456   0.46602   0.50682   0.00000  Uiso   1.00
C924   C     0.97826   0.62573   0.62607   0.00000  Uiso   1.00
C925   C     0.68744   0.64588   0.66377   0.00000  Uiso   1.00
C926   C     0.66883   0.58035   0.81925   0.00000  Uiso   1.00
C927   C     0.70920   0.59850   0.85909   0.00000  Uiso   1.00
C928   C     0.99248   0.39949   0.88156   0.00000  Uiso   1.00
C929   C     0.93793   0.38657   0.85415   0.00000  Uiso   1.00
C930   C     0.81653   0.51632   0.93761   0.00000  Uiso   1.00
C931   C     0.85014   0.51480   0.51853   0.00000  Uiso   1.00
C932   C     0.90359   0.55439   0.50038   0.00000  Uiso   1.00
C933   C     0.90924   0.57798   0.95411   0.00000  Uiso   1.00
C934   C     0.86636   0.55905   0.92311   0.00000  Uiso   1.00
C935   C     0.84431   0.49440   0.56680   0.00000  Uiso   1.00
C936   C     0.94063   0.55377   0.57936   0.00000  Uiso   1.00
Cu937  Cu    0.77377   0.49439   0.74435   0.00000  Uiso   1.00
Cu938  Cu    0.89290   0.50561   0.75564   0.00000  Uiso   1.00
H939   H     0.76859   0.65428   0.73558   0.00000  Uiso   1.00
H940   H     0.92930   0.62679   0.64576   0.00000  Uiso   1.00
H941   H     0.99274   0.65267   0.59328   0.00000  Uiso   1.00
H942   H     0.73700   0.64742   0.64465   0.00000  Uiso   1.00
H943   H     0.68207   0.35263   0.67823   0.00000  Uiso   1.00
H944   H     0.67493   0.61932   0.69660   0.00000  Uiso   1.00
H945   H     0.95573   0.58955   0.83324   0.00000  Uiso   1.00
H946   H     0.69055   0.60276   0.78403   0.00000  Uiso   1.00
H947   H     0.75875   0.59763   0.84259   0.00000  Uiso   1.00
H948   H     0.70672   0.63921   0.87255   0.00000  Uiso   1.00
H949   H     0.69320   0.57232   0.89229   0.00000  Uiso   1.00
H950   H     0.66889   0.47010   0.70327   0.00000  Uiso   1.00
H951   H     0.98006   0.37445   0.91573   0.00000  Uiso   1.00
H952   H     0.70115   0.39013   0.85492   0.00000  Uiso   1.00
H953   H     0.94962   0.40960   0.81885   0.00000  Uiso   1.00
H954   H     0.92807   0.34401   0.84367   0.00000  Uiso   1.00
H955   H     0.89545   0.39636   0.87950   0.00000  Uiso   1.00
H956   H     0.94638   0.61172   0.94231   0.00000  Uiso   1.00
H957   H     0.99086   0.60128   0.51512   0.00000  Uiso   1.00
H958   H     0.80549   0.46325   0.58190   0.00000  Uiso   1.00
H959   H     0.72930   0.45410   0.54604   0.00000  Uiso   1.00
H960   H     0.98704   0.43097   0.99226   0.00000  Uiso   1.00
H961   H     0.86973   0.57989   0.88898   0.00000  Uiso   1.00
H962   H     0.90196   0.34615   0.75722   0.00000  Uiso   1.00
N963   N     0.98241   0.51407   0.76416   0.00000  Uiso   1.00
N964   N     0.68426   0.48593   0.73584   0.00000  Uiso   1.00
O965   O     0.79464   0.57141   0.74633   0.00000  Uiso   1.00
O966   O     0.99619   0.52586   0.81063   0.00000  Uiso   1.00
O967   O     0.67024   0.45345   0.89531   0.00000  Uiso   1.00
O968   O     0.89524   0.58089   0.75586   0.00000  Uiso   1.00
O969   O     0.75848   0.49293   0.81839   0.00000  Uiso   1.00
O970   O     0.85908   0.50241   0.82793   0.00000  Uiso   1.00
O971   O     0.77142   0.41911   0.74413   0.00000  Uiso   1.00
O972   O     0.87203   0.42859   0.75367   0.00000  Uiso   1.00
O973   O     0.80758   0.49759   0.67207   0.00000  Uiso   1.00
O974   O     0.90819   0.50707   0.68160   0.00000  Uiso   1.00
O975   O     0.98392   0.57397   0.60957   0.00000  Uiso   1.00
C976   C     0.18205   0.93333   0.75068   0.00000  Uiso   1.00
C977   C     0.10973   0.82766   0.90377   0.00000  Uiso   1.00
C978   C     0.19089   0.98930   0.75087   0.00000  Uiso   1.00
C979   C     0.13259   0.83125   0.84739   0.00000  Uiso   1.00
C980   C     0.14513   0.67762   0.74399   0.00000  Uiso   1.00
C981   C     0.15217   0.73341   0.74737   0.00000  Uiso   1.00
C982   C     0.20047   0.83769   0.65300   0.00000  Uiso   1.00
C983   C     0.28275   0.90519   0.52977   0.00000  Uiso   1.00
C984   C     0.22041   0.84859   0.59816   0.00000  Uiso   1.00
C985   C     0.04948   0.79803   0.92417   0.00000  Uiso   1.00
C986   C     0.03376   0.78551   0.97595   0.00000  Uiso   1.00
C987   C     0.13728   0.83133   0.98812   0.00000  Uiso   1.00
C988   C     0.07789   0.79936   0.50682   0.00000  Uiso   1.00
C989   C     0.31159   0.95906   0.62607   0.00000  Uiso   1.00
C990   C     0.02077   0.97921   0.66377   0.00000  Uiso   1.00
C991   C     0.00216   0.91368   0.81925   0.00000  Uiso   1.00
C992   C     0.04253   0.93184   0.85909   0.00000  Uiso   1.00
C993   C     0.32581   0.73282   0.88156   0.00000  Uiso   1.00
C994   C     0.27126   0.71990   0.85415   0.00000  Uiso   1.00
C995   C     0.14986   0.84965   0.93761   0.00000  Uiso   1.00
C996   C     0.18347   0.84814   0.51853   0.00000  Uiso   1.00
C997   C     0.23693   0.88772   0.50038   0.00000  Uiso   1.00
C998   C     0.24257   0.91131   0.95411   0.00000  Uiso   1.00
C999   C     0.19969   0.89239   0.92311   0.00000  Uiso   1.00
C1000  C     0.17764   0.82773   0.56680   0.00000  Uiso   1.00
C1001  C     0.27397   0.88710   0.57936   0.00000  Uiso   1.00
Cu1002 Cu    0.10710   0.82772   0.74435   0.00000  Uiso   1.00
Cu1003 Cu    0.22623   0.83895   0.75564   0.00000  Uiso   1.00
H1004  H     0.10193   0.98761   0.73558   0.00000  Uiso   1.00
H1005  H     0.26263   0.96012   0.64576   0.00000  Uiso   1.00
H1006  H     0.32607   0.98600   0.59328   0.00000  Uiso   1.00
H1007  H     0.07033   0.98075   0.64465   0.00000  Uiso   1.00
H1008  H     0.01540   0.68597   0.67823   0.00000  Uiso   1.00
H1009  H     0.00826   0.95266   0.69660   0.00000  Uiso   1.00
H1010  H     0.28906   0.92288   0.83324   0.00000  Uiso   1.00
H1011  H     0.02388   0.93610   0.78403   0.00000  Uiso   1.00
H1012  H     0.09208   0.93096   0.84259   0.00000  Uiso   1.00
H1013  H     0.04005   0.97255   0.87255   0.00000  Uiso   1.00
H1014  H     0.02654   0.90565   0.89229   0.00000  Uiso   1.00
H1015  H     0.00222   0.80343   0.70327   0.00000  Uiso   1.00
H1016  H     0.31339   0.70778   0.91573   0.00000  Uiso   1.00
H1017  H     0.03448   0.72347   0.85492   0.00000  Uiso   1.00
H1018  H     0.28295   0.74293   0.81885   0.00000  Uiso   1.00
H1019  H     0.26140   0.67734   0.84367   0.00000  Uiso   1.00
H1020  H     0.22878   0.72969   0.87950   0.00000  Uiso   1.00
H1021  H     0.27972   0.94505   0.94231   0.00000  Uiso   1.00
H1022  H     0.32419   0.93461   0.51512   0.00000  Uiso   1.00
H1023  H     0.13882   0.79658   0.58190   0.00000  Uiso   1.00
H1024  H     0.06263   0.78744   0.54604   0.00000  Uiso   1.00
H1025  H     0.32037   0.76430   0.99226   0.00000  Uiso   1.00
H1026  H     0.20306   0.91322   0.88898   0.00000  Uiso   1.00
H1027  H     0.23530   0.67948   0.75722   0.00000  Uiso   1.00
N1028  N     0.31574   0.84741   0.76416   0.00000  Uiso   1.00
N1029  N     0.01759   0.81926   0.73584   0.00000  Uiso   1.00
O1030  O     0.12797   0.90474   0.74633   0.00000  Uiso   1.00
O1031  O     0.32952   0.85919   0.81063   0.00000  Uiso   1.00
O1032  O     0.00357   0.78678   0.89531   0.00000  Uiso   1.00
O1033  O     0.22858   0.91422   0.75586   0.00000  Uiso   1.00
O1034  O     0.09181   0.82627   0.81839   0.00000  Uiso   1.00
O1035  O     0.19242   0.83575   0.82793   0.00000  Uiso   1.00
O1036  O     0.10476   0.75245   0.74413   0.00000  Uiso   1.00
O1037  O     0.20536   0.76193   0.75367   0.00000  Uiso   1.00
O1038  O     0.14092   0.83092   0.67207   0.00000  Uiso   1.00
O1039  O     0.24152   0.84040   0.68160   0.00000  Uiso   1.00
O1040  O     0.31725   0.90731   0.60957   0.00000  Uiso   1.00
C1041  C     0.51538   0.93333   0.75068   0.00000  Uiso   1.00
C1042  C     0.44306   0.82766   0.90377   0.00000  Uiso   1.00
C1043  C     0.52422   0.98930   0.75087   0.00000  Uiso   1.00
C1044  C     0.46593   0.83125   0.84739   0.00000  Uiso   1.00
C1045  C     0.47846   0.67762   0.74399   0.00000  Uiso   1.00
C1046  C     0.48550   0.73341   0.74737   0.00000  Uiso   1.00
C1047  C     0.53380   0.83769   0.65300   0.00000  Uiso   1.00
C1048  C     0.61609   0.90519   0.52977   0.00000  Uiso   1.00
C1049  C     0.55374   0.84859   0.59816   0.00000  Uiso   1.00
C1050  C     0.38282   0.79803   0.92417   0.00000  Uiso   1.00
C1051  C     0.36710   0.78551   0.97595   0.00000  Uiso   1.00
C1052  C     0.47062   0.83133   0.98812   0.00000  Uiso   1.00
C1053  C     0.41122   0.79936   0.50682   0.00000  Uiso   1.00
C1054  C     0.64493   0.95906   0.62607   0.00000  Uiso   1.00
C1055  C     0.35410   0.97921   0.66377   0.00000  Uiso   1.00
C1056  C     0.33550   0.91368   0.81925   0.00000  Uiso   1.00
C1057  C     0.37587   0.93184   0.85909   0.00000  Uiso   1.00
C1058  C     0.65914   0.73282   0.88156   0.00000  Uiso   1.00
C1059  C     0.60460   0.71990   0.85415   0.00000  Uiso   1.00
C1060  C     0.48320   0.84965   0.93761   0.00000  Uiso   1.00
C1061  C     0.51680   0.84814   0.51853   0.00000  Uiso   1.00
C1062  C     0.57026   0.88772   0.50038   0.00000  Uiso   1.00
C1063  C     0.57591   0.91131   0.95411   0.00000  Uiso   1.00
C1064  C     0.53303   0.89239   0.92311   0.00000  Uiso   1.00
C1065  C     0.51097   0.82773   0.56680   0.00000  Uiso   1.00
C1066  C     0.60730   0.88710   0.57936   0.00000  Uiso   1.00
Cu1067 Cu    0.44043   0.82772   0.74435   0.00000  Uiso   1.00
Cu1068 Cu    0.55957   0.83895   0.75564   0.00000  Uiso   1.00
H1069  H     0.43526   0.98761   0.73558   0.00000  Uiso   1.00
H1070  H     0.59597   0.96012   0.64576   0.00000  Uiso   1.00
H1071  H     0.65940   0.98600   0.59328   0.00000  Uiso   1.00
H1072  H     0.40367   0.98075   0.64465   0.00000  Uiso   1.00
H1073  H     0.34873   0.68597   0.67823   0.00000  Uiso   1.00
H1074  H     0.34159   0.95266   0.69660   0.00000  Uiso   1.00
H1075  H     0.62240   0.92288   0.83324   0.00000  Uiso   1.00
H1076  H     0.35721   0.93610   0.78403   0.00000  Uiso   1.00
H1077  H     0.42541   0.93096   0.84259   0.00000  Uiso   1.00
H1078  H     0.37339   0.97255   0.87255   0.00000  Uiso   1.00
H1079  H     0.35987   0.90565   0.89229   0.00000  Uiso   1.00
H1080  H     0.33556   0.80343   0.70327   0.00000  Uiso   1.00
H1081  H     0.64673   0.70778   0.91573   0.00000  Uiso   1.00
H1082  H     0.36781   0.72347   0.85492   0.00000  Uiso   1.00
H1083  H     0.61628   0.74293   0.81885   0.00000  Uiso   1.00
H1084  H     0.59474   0.67734   0.84367   0.00000  Uiso   1.00
H1085  H     0.56212   0.72969   0.87950   0.00000  Uiso   1.00
H1086  H     0.61305   0.94505   0.94231   0.00000  Uiso   1.00
H1087  H     0.65752   0.93461   0.51512   0.00000  Uiso   1.00
H1088  H     0.47215   0.79658   0.58190   0.00000  Uiso   1.00
H1089  H     0.39597   0.78744   0.54604   0.00000  Uiso   1.00
H1090  H     0.65370   0.76430   0.99226   0.00000  Uiso   1.00
H1091  H     0.53639   0.91322   0.88898   0.00000  Uiso   1.00
H1092  H     0.56863   0.67948   0.75722   0.00000  Uiso   1.00
N1093  N     0.64908   0.84741   0.76416   0.00000  Uiso   1.00
N1094  N     0.35092   0.81926   0.73584   0.00000  Uiso   1.00
O1095  O     0.46131   0.90474   0.74633   0.00000  Uiso   1.00
O1096  O     0.66285   0.85919   0.81063   0.00000  Uiso   1.00
O1097  O     0.33691   0.78678   0.89531   0.00000  Uiso   1.00
O1098  O     0.56191   0.91422   0.75586   0.00000  Uiso   1.00
O1099  O     0.42515   0.82627   0.81839   0.00000  Uiso   1.00
O1100  O     0.52575   0.83575   0.82793   0.00000  Uiso   1.00
O1101  O     0.43809   0.75245   0.74413   0.00000  Uiso   1.00
O1102  O     0.53869   0.76193   0.75367   0.00000  Uiso   1.00
O1103  O     0.47425   0.83092   0.67207   0.00000  Uiso   1.00
O1104  O     0.57485   0.84040   0.68160   0.00000  Uiso   1.00
O1105  O     0.65059   0.90731   0.60957   0.00000  Uiso   1.00
C1106  C     0.84872   0.93333   0.75068   0.00000  Uiso   1.00
C1107  C     0.77640   0.82766   0.90377   0.00000  Uiso   1.00
C1108  C     0.85756   0.98930   0.75087   0.00000  Uiso   1.00
C1109  C     0.79926   0.83125   0.84739   0.00000  Uiso   1.00
C1110  C     0.81180   0.67762   0.74399   0.00000  Uiso   1.00
C1111  C     0.81884   0.73341   0.74737   0.00000  Uiso   1.00
C1112  C     0.86713   0.83769   0.65300   0.00000  Uiso   1.00
C1113  C     0.94942   0.90519   0.52977   0.00000  Uiso   1.00
C1114  C     0.88708   0.84859   0.59816   0.00000  Uiso   1.00
C1115  C     0.71615   0.79803   0.92417   0.00000  Uiso   1.00
C1116  C     0.70043   0.78551   0.97595   0.00000  Uiso   1.00
C1117  C     0.80395   0.83133   0.98812   0.00000  Uiso   1.00
C1118  C     0.74456   0.79936   0.50682   0.00000  Uiso   1.00
C1119  C     0.97826   0.95906   0.62607   0.00000  Uiso   1.00
C1120  C     0.68744   0.97921   0.66377   0.00000  Uiso   1.00
C1121  C     0.66883   0.91368   0.81925   0.00000  Uiso   1.00
C1122  C     0.70920   0.93184   0.85909   0.00000  Uiso   1.00
C1123  C     0.99248   0.73282   0.88156   0.00000  Uiso   1.00
C1124  C     0.93793   0.71990   0.85415   0.00000  Uiso   1.00
C1125  C     0.81653   0.84965   0.93761   0.00000  Uiso   1.00
C1126  C     0.85014   0.84814   0.51853   0.00000  Uiso   1.00
C1127  C     0.90359   0.88772   0.50038   0.00000  Uiso   1.00
C1128  C     0.90924   0.91131   0.95411   0.00000  Uiso   1.00
C1129  C     0.86636   0.89239   0.92311   0.00000  Uiso   1.00
C1130  C     0.84431   0.82773   0.56680   0.00000  Uiso   1.00
C1131  C     0.94063   0.88710   0.57936   0.00000  Uiso   1.00
Cu1132 Cu    0.77377   0.82772   0.74435   0.00000  Uiso   1.00
Cu1133 Cu    0.89290   0.83895   0.75564   0.00000  Uiso   1.00
H1134  H     0.76859   0.98761   0.73558   0.00000  Uiso   1.00
H1135  H     0.92930   0.96012   0.64576   0.00000  Uiso   1.00
H1136  H     0.99274   0.98600   0.59328   0.00000  Uiso   1.00
H1137  H     0.73700   0.98075   0.64465   0.00000  Uiso   1.00
H1138  H     0.68207   0.68597   0.67823   0.00000  Uiso   1.00
H1139  H     0.67493   0.95266   0.69660   0.00000  Uiso   1.00
H1140  H     0.95573   0.92288   0.83324   0.00000  Uiso   1.00
H1141  H     0.69055   0.93610   0.78403   0.00000  Uiso   1.00
H1142  H     0.75875   0.93096   0.84259   0.00000  Uiso   1.00
H1143  H     0.70672   0.97255   0.87255   0.00000  Uiso   1.00
H1144  H     0.69320   0.90565   0.89229   0.00000  Uiso   1.00
H1145  H     0.66889   0.80343   0.70327   0.00000  Uiso   1.00
H1146  H     0.98006   0.70778   0.91573   0.00000  Uiso   1.00
H1147  H     0.70115   0.72347   0.85492   0.00000  Uiso   1.00
H1148  H     0.94962   0.74293   0.81885   0.00000  Uiso   1.00
H1149  H     0.92807   0.67734   0.84367   0.00000  Uiso   1.00
H1150  H     0.89545   0.72969   0.87950   0.00000  Uiso   1.00
H1151  H     0.94638   0.94505   0.94231   0.00000  Uiso   1.00
H1152  H     0.99086   0.93461   0.51512   0.00000  Uiso   1.00
H1153  H     0.80549   0.79658   0.58190   0.00000  Uiso   1.00
H1154  H     0.72930   0.78744   0.54604   0.00000  Uiso   1.00
H1155  H     0.98704   0.76430   0.99226   0.00000  Uiso   1.00
H1156  H     0.86973   0.91322   0.88898   0.00000  Uiso   1.00
H1157  H     0.90196   0.67948   0.75722   0.00000  Uiso   1.00
N1158  N     0.98241   0.84741   0.76416   0.00000  Uiso   1.00
N1159  N     0.68426   0.81926   0.73584   0.00000  Uiso   1.00
O1160  O     0.79464   0.90474   0.74633   0.00000  Uiso   1.00
O1161  O     0.99619   0.85919   0.81063   0.00000  Uiso   1.00
O1162  O     0.67024   0.78678   0.89531   0.00000  Uiso   1.00
O1163  O     0.89524   0.91422   0.75586   0.00000  Uiso   1.00
O1164  O     0.75848   0.82627   0.81839   0.00000  Uiso   1.00
O1165  O     0.85908   0.83575   0.82793   0.00000  Uiso   1.00
O1166  O     0.77142   0.75245   0.74413   0.00000  Uiso   1.00
O1167  O     0.87203   0.76193   0.75367   0.00000  Uiso   1.00
O1168  O     0.80758   0.83092   0.67207   0.00000  Uiso   1.00
O1169  O     0.90819   0.84040   0.68160   0.00000  Uiso   1.00
O1170  O     0.98392   0.90731   0.60957   0.00000  Uiso   1.00
loop_
_geom_bond_atom_site_label_1
_geom_bond_atom_site_label_2
_geom_bond_distance
_geom_bond_site_symmetry_2
_ccdc_geom_bond_type
C1     O58     1.288   .     A
C1     O55     1.297   .     A
C1     C3      1.430   .     S
C2     C4      1.488   .     S
C2     C20     1.413   .     A
C2     C10     1.413   .     A
C3     C200    1.327   .     S
C3     H247    1.086   .     S
C4     O60     1.311   .     A
C4     O59     1.300   .     A
C5     C6      1.427   .     S
C5     C393    1.327   1_545 S
C5     H419    1.081   1_545 S
C6     O62     1.293   .     A
C6     O61     1.290   .     A
C7     O63     1.298   .     A
C7     O64     1.305   .     A
C7     C9      1.468   .     S
C8     C26     1.401   .     A
C8     C22     1.401   .     A
C8     H47     1.084   .     S
C9     C25     1.400   .     A
C9     C26     1.408   .     A
C10    C11     1.399   .     A
C10    O57     1.383   .     S
C11    C598    1.391   .     S
C11    H180    1.083   1_455 S
C12    C20     1.417   .     A
C12    C598    1.413   .     S
C12    C606    1.425   .     S
C13    H49     1.078   .     S
C13    C597    1.413   1_554 S
C13    C596    1.391   1_554 S
C14    H31     1.113   .     S
C14    H30     1.115   .     S
C14    O65     1.413   .     S
C14    C80     1.520   .     S
C15    H32     1.111   .     S
C15    H34     1.109   .     S
C15    C144    1.520   1_455 S
C15    H228    1.111   .     S
C16    H36     1.107   .     S
C16    C17     1.525   .     S
C16    H165    1.100   1_455 S
C16    O186    1.404   1_455 S
C17    H38     1.105   .     S
C17    H39     1.109   .     S
C17    H37     1.107   .     S
C18    C19     1.519   .     S
C18    H41     1.114   .     S
C18    H107    1.113   .     S
C18    O122    1.409   .     S
C19    H43     1.110   .     S
C19    H44     1.110   .     S
C19    H45     1.111   .     S
C20    C24     1.401   .     A
C21    C25     1.403   .     A
C21    C22     1.418   .     A
C21    C597    1.425   1_554 S
C22    C608    1.393   1_554 S
C23    C24     1.387   .     A
C23    H46     1.081   .     S
C23    C607    1.393   .     S
C24    H51     1.078   .     S
C25    H48     1.079   .     S
C26    O65     1.384   .     S
Cu27   O59     1.938   .     S
Cu27   O63     1.919   .     S
Cu27   O55     1.959   .     S
Cu27   N54     2.027   .     S
Cu27   Cu28    2.698   .     S
Cu27   O61     1.953   .     S
Cu28   N53     2.027   .     S
Cu28   O58     1.953   .     S
Cu28   O64     1.938   .     S
Cu28   O60     1.919   .     S
Cu28   O62     1.959   .     S
H29    C200    1.081   .     S
H33    C405    1.111   1_545 S
H35    C81     1.100   .     S
H40    N54     1.029   .     S
H42    C148    1.113   1_455 S
H50    C76     1.083   .     S
H52    C393    1.086   1_545 S
N53    O56     1.342   .     S
N53    N119    1.285   .     S
N54    N183    1.285   1_455 S
O56    C81     1.404   .     S
O57    C148    1.409   1_455 S
C66    O123    1.288   .     A
C66    O120    1.297   .     A
C66    C68     1.430   .     S
C67    C69     1.488   .     S
C67    C85     1.413   .     A
C67    C75     1.413   .     A
C68    C265    1.327   .     S
C68    H312    1.086   .     S
C69    O125    1.311   .     A
C69    O124    1.300   .     A
C70    C71     1.427   .     S
C70    C458    1.327   1_545 S
C70    H484    1.081   1_545 S
C71    O127    1.293   .     A
C71    O126    1.290   .     A
C72    O128    1.298   .     A
C72    O129    1.305   .     A
C72    C74     1.468   .     S
C73    C91     1.401   .     A
C73    C87     1.401   .     A
C73    H112    1.084   .     S
C74    C90     1.400   .     A
C74    C91     1.408   .     A
C75    C76     1.399   .     A
C75    O122    1.383   .     S
C76    C663    1.391   .     S
C77    C85     1.417   .     A
C77    C663    1.413   .     S
C77    C671    1.425   .     S
C78    H114    1.078   .     S
C78    C662    1.413   1_554 S
C78    C661    1.391   1_554 S
C79    H96     1.113   .     S
C79    H95     1.115   .     S
C79    O130    1.413   .     S
C79    C145    1.520   .     S
C80    H97     1.111   .     S
C80    H99     1.109   .     S
C80    H293    1.111   .     S
C81    H101    1.107   .     S
C81    C82     1.525   .     S
C82    H103    1.105   .     S
C82    H104    1.109   .     S
C82    H102    1.107   .     S
C83    C84     1.519   .     S
C83    H106    1.114   .     S
C83    H172    1.113   .     S
C83    O187    1.409   .     S
C84    H108    1.110   .     S
C84    H109    1.110   .     S
C84    H110    1.111   .     S
C85    C89     1.401   .     A
C86    C90     1.403   .     A
C86    C87     1.418   .     A
C86    C662    1.425   1_554 S
C87    C673    1.393   1_554 S
C88    C89     1.387   .     A
C88    H111    1.081   .     S
C88    C672    1.393   .     S
C89    H116    1.078   .     S
C90    H113    1.079   .     S
C91    O130    1.384   .     S
Cu92   O124    1.938   .     S
Cu92   O128    1.919   .     S
Cu92   O120    1.959   .     S
Cu92   N119    2.027   .     S
Cu92   Cu93    2.698   .     S
Cu92   O126    1.953   .     S
Cu93   N118    2.027   .     S
Cu93   O123    1.953   .     S
Cu93   O129    1.938   .     S
Cu93   O125    1.919   .     S
Cu93   O127    1.959   .     S
H94    C265    1.081   .     S
H98    C470    1.111   1_545 S
H100   C146    1.100   .     S
H105   N119    1.029   .     S
H115   C141    1.083   .     S
H117   C458    1.086   1_545 S
N118   O121    1.342   .     S
N118   N184    1.285   .     S
O121   C146    1.404   .     S
C131   O188    1.288   .     A
C131   O185    1.297   .     A
C131   C133    1.430   .     S
C132   C134    1.488   .     S
C132   C150    1.413   .     A
C132   C140    1.413   .     A
C133   C330    1.327   .     S
C133   H377    1.086   .     S
C134   O190    1.311   .     A
C134   O189    1.300   .     A
C135   C136    1.427   .     S
C135   C523    1.327   1_545 S
C135   H549    1.081   1_545 S
C136   O192    1.293   .     A
C136   O191    1.290   .     A
C137   O193    1.298   .     A
C137   O194    1.305   .     A
C137   C139    1.468   .     S
C138   C156    1.401   .     A
C138   C152    1.401   .     A
C138   H177    1.084   .     S
C139   C155    1.400   .     A
C139   C156    1.408   .     A
C140   C141    1.399   .     A
C140   O187    1.383   .     S
C141   C728    1.391   .     S
C142   C150    1.417   .     A
C142   C728    1.413   .     S
C142   C736    1.425   .     S
C143   H179    1.078   .     S
C143   C727    1.413   1_554 S
C143   C726    1.391   1_554 S
C144   H161    1.113   .     S
C144   H160    1.115   .     S
C144   O195    1.413   .     S
C144   C15     1.520   1_655 S
C145   H162    1.111   .     S
C145   H164    1.109   .     S
C145   H358    1.111   .     S
C146   H166    1.107   .     S
C146   C147    1.525   .     S
C147   H168    1.105   .     S
C147   H169    1.109   .     S
C147   H167    1.107   .     S
C148   C149    1.519   .     S
C148   H171    1.114   .     S
C148   H42     1.113   1_655 S
C148   O57     1.409   1_655 S
C149   H173    1.110   .     S
C149   H174    1.110   .     S
C149   H175    1.111   .     S
C150   C154    1.401   .     A
C151   C155    1.403   .     A
C151   C152    1.418   .     A
C151   C727    1.425   1_554 S
C152   C738    1.393   1_554 S
C153   C154    1.387   .     A
C153   H176    1.081   .     S
C153   C737    1.393   .     S
C154   H181    1.078   .     S
C155   H178    1.079   .     S
C156   O195    1.384   .     S
Cu157  O189    1.938   .     S
Cu157  O193    1.919   .     S
Cu157  O185    1.959   .     S
Cu157  N184    2.027   .     S
Cu157  Cu158   2.698   .     S
Cu157  O191    1.953   .     S
Cu158  N183    2.027   .     S
Cu158  O188    1.953   .     S
Cu158  O194    1.938   .     S
Cu158  O190    1.919   .     S
Cu158  O192    1.959   .     S
H159   C330    1.081   .     S
H163   C535    1.111   1_545 S
H165   C16     1.100   1_655 S
H170   N184    1.029   .     S
H180   C11     1.083   1_655 S
H182   C523    1.086   1_545 S
N183   O186    1.342   .     S
N183   N54     1.285   1_655 S
O186   C16     1.404   1_655 S
C196   O253    1.288   .     A
C196   O250    1.297   .     A
C196   C198    1.430   .     S
C197   C199    1.488   .     S
C197   C215    1.413   .     A
C197   C205    1.413   .     A
C198   C395    1.327   .     S
C198   H442    1.086   .     S
C199   O255    1.311   .     A
C199   O254    1.300   .     A
C200   C201    1.427   .     S
C201   O257    1.293   .     A
C201   O256    1.290   .     A
C202   O258    1.298   .     A
C202   O259    1.305   .     A
C202   C204    1.468   .     S
C203   C221    1.401   .     A
C203   C217    1.401   .     A
C203   H242    1.084   .     S
C204   C220    1.400   .     A
C204   C221    1.408   .     A
C205   C206    1.399   .     A
C205   O252    1.383   .     S
C206   C793    1.391   .     S
C206   H375    1.083   1_455 S
C207   C215    1.417   .     A
C207   C793    1.413   .     S
C207   C801    1.425   .     S
C208   H244    1.078   .     S
C208   C792    1.413   1_554 S
C208   C791    1.391   1_554 S
C209   H226    1.113   .     S
C209   H225    1.115   .     S
C209   O260    1.413   .     S
C209   C275    1.520   .     S
C210   H227    1.111   .     S
C210   H229    1.109   .     S
C210   C339    1.520   1_455 S
C210   H423    1.111   .     S
C211   H231    1.107   .     S
C211   C212    1.525   .     S
C211   H360    1.100   1_455 S
C211   O381    1.404   1_455 S
C212   H233    1.105   .     S
C212   H234    1.109   .     S
C212   H232    1.107   .     S
C213   C214    1.519   .     S
C213   H236    1.114   .     S
C213   H302    1.113   .     S
C213   O317    1.409   .     S
C214   H238    1.110   .     S
C214   H239    1.110   .     S
C214   H240    1.111   .     S
C215   C219    1.401   .     A
C216   C220    1.403   .     A
C216   C217    1.418   .     A
C216   C792    1.425   1_554 S
C217   C803    1.393   1_554 S
C218   C219    1.387   .     A
C218   H241    1.081   .     S
C218   C802    1.393   .     S
C219   H246    1.078   .     S
C220   H243    1.079   .     S
C221   O260    1.384   .     S
Cu222  O254    1.938   .     S
Cu222  O258    1.919   .     S
Cu222  O250    1.959   .     S
Cu222  N249    2.027   .     S
Cu222  Cu223   2.698   .     S
Cu222  O256    1.953   .     S
Cu223  N248    2.027   .     S
Cu223  O253    1.953   .     S
Cu223  O259    1.938   .     S
Cu223  O255    1.919   .     S
Cu223  O257    1.959   .     S
H224   C395    1.081   .     S
H230   C276    1.100   .     S
H235   N249    1.029   .     S
H237   C343    1.113   1_455 S
H245   C271    1.083   .     S
N248   O251    1.342   .     S
N248   N314    1.285   .     S
N249   N378    1.285   1_455 S
O251   C276    1.404   .     S
O252   C343    1.409   1_455 S
C261   O318    1.288   .     A
C261   O315    1.297   .     A
C261   C263    1.430   .     S
C262   C264    1.488   .     S
C262   C280    1.413   .     A
C262   C270    1.413   .     A
C263   C460    1.327   .     S
C263   H507    1.086   .     S
C264   O320    1.311   .     A
C264   O319    1.300   .     A
C265   C266    1.427   .     S
C266   O322    1.293   .     A
C266   O321    1.290   .     A
C267   O323    1.298   .     A
C267   O324    1.305   .     A
C267   C269    1.468   .     S
C268   C286    1.401   .     A
C268   C282    1.401   .     A
C268   H307    1.084   .     S
C269   C285    1.400   .     A
C269   C286    1.408   .     A
C270   C271    1.399   .     A
C270   O317    1.383   .     S
C271   C858    1.391   .     S
C272   C280    1.417   .     A
C272   C858    1.413   .     S
C272   C866    1.425   .     S
C273   H309    1.078   .     S
C273   C857    1.413   1_554 S
C273   C856    1.391   1_554 S
C274   H291    1.113   .     S
C274   H290    1.115   .     S
C274   O325    1.413   .     S
C274   C340    1.520   .     S
C275   H292    1.111   .     S
C275   H294    1.109   .     S
C275   H488    1.111   .     S
C276   H296    1.107   .     S
C276   C277    1.525   .     S
C277   H298    1.105   .     S
C277   H299    1.109   .     S
C277   H297    1.107   .     S
C278   C279    1.519   .     S
C278   H301    1.114   .     S
C278   H367    1.113   .     S
C278   O382    1.409   .     S
C279   H303    1.110   .     S
C279   H304    1.110   .     S
C279   H305    1.111   .     S
C280   C284    1.401   .     A
C281   C285    1.403   .     A
C281   C282    1.418   .     A
C281   C857    1.425   1_554 S
C282   C868    1.393   1_554 S
C283   C284    1.387   .     A
C283   H306    1.081   .     S
C283   C867    1.393   .     S
C284   H311    1.078   .     S
C285   H308    1.079   .     S
C286   O325    1.384   .     S
Cu287  O319    1.938   .     S
Cu287  O323    1.919   .     S
Cu287  O315    1.959   .     S
Cu287  N314    2.027   .     S
Cu287  Cu288   2.698   .     S
Cu287  O321    1.953   .     S
Cu288  N313    2.027   .     S
Cu288  O318    1.953   .     S
Cu288  O324    1.938   .     S
Cu288  O320    1.919   .     S
Cu288  O322    1.959   .     S
H289   C460    1.081   .     S
H295   C341    1.100   .     S
H300   N314    1.029   .     S
H310   C336    1.083   .     S
N313   O316    1.342   .     S
N313   N379    1.285   .     S
O316   C341    1.404   .     S
C326   O383    1.288   .     A
C326   O380    1.297   .     A
C326   C328    1.430   .     S
C327   C329    1.488   .     S
C327   C345    1.413   .     A
C327   C335    1.413   .     A
C328   C525    1.327   .     S
C328   H572    1.086   .     S
C329   O385    1.311   .     A
C329   O384    1.300   .     A
C330   C331    1.427   .     S
C331   O387    1.293   .     A
C331   O386    1.290   .     A
C332   O388    1.298   .     A
C332   O389    1.305   .     A
C332   C334    1.468   .     S
C333   C351    1.401   .     A
C333   C347    1.401   .     A
C333   H372    1.084   .     S
C334   C350    1.400   .     A
C334   C351    1.408   .     A
C335   C336    1.399   .     A
C335   O382    1.383   .     S
C336   C923    1.391   .     S
C337   C345    1.417   .     A
C337   C923    1.413   .     S
C337   C931    1.425   .     S
C338   H374    1.078   .     S
C338   C922    1.413   1_554 S
C338   C921    1.391   1_554 S
C339   H356    1.113   .     S
C339   H355    1.115   .     S
C339   O390    1.413   .     S
C339   C210    1.520   1_655 S
C340   H357    1.111   .     S
C340   H359    1.109   .     S
C340   H553    1.111   .     S
C341   H361    1.107   .     S
C341   C342    1.525   .     S
C342   H363    1.105   .     S
C342   H364    1.109   .     S
C342   H362    1.107   .     S
C343   C344    1.519   .     S
C343   H366    1.114   .     S
C343   H237    1.113   1_655 S
C343   O252    1.409   1_655 S
C344   H368    1.110   .     S
C344   H369    1.110   .     S
C344   H370    1.111   .     S
C345   C349    1.401   .     A
C346   C350    1.403   .     A
C346   C347    1.418   .     A
C346   C922    1.425   1_554 S
C347   C933    1.393   1_554 S
C348   C349    1.387   .     A
C348   H371    1.081   .     S
C348   C932    1.393   .     S
C349   H376    1.078   .     S
C350   H373    1.079   .     S
C351   O390    1.384   .     S
Cu352  O384    1.938   .     S
Cu352  O388    1.919   .     S
Cu352  O380    1.959   .     S
Cu352  N379    2.027   .     S
Cu352  Cu353   2.698   .     S
Cu352  O386    1.953   .     S
Cu353  N378    2.027   .     S
Cu353  O383    1.953   .     S
Cu353  O389    1.938   .     S
Cu353  O385    1.919   .     S
Cu353  O387    1.959   .     S
H354   C525    1.081   .     S
H360   C211    1.100   1_655 S
H365   N379    1.029   .     S
H375   C206    1.083   1_655 S
N378   O381    1.342   .     S
N378   N249    1.285   1_655 S
O381   C211    1.404   1_655 S
C391   O448    1.288   .     A
C391   O445    1.297   .     A
C391   C393    1.430   .     S
C392   C394    1.488   .     S
C392   C410    1.413   .     A
C392   C400    1.413   .     A
C393   C5      1.327   1_565 S
C393   H52     1.086   1_565 S
C394   O450    1.311   .     A
C394   O449    1.300   .     A
C395   C396    1.427   .     S
C396   O452    1.293   .     A
C396   O451    1.290   .     A
C397   O453    1.298   .     A
C397   O454    1.305   .     A
C397   C399    1.468   .     S
C398   C416    1.401   .     A
C398   C412    1.401   .     A
C398   H437    1.084   .     S
C399   C415    1.400   .     A
C399   C416    1.408   .     A
C400   C401    1.399   .     A
C400   O447    1.383   .     S
C401   C988    1.391   .     S
C401   H570    1.083   1_455 S
C402   C410    1.417   .     A
C402   C988    1.413   .     S
C402   C996    1.425   .     S
C403   H439    1.078   .     S
C403   C987    1.413   1_554 S
C403   C986    1.391   1_554 S
C404   H421    1.113   .     S
C404   H420    1.115   .     S
C404   O455    1.413   .     S
C404   C470    1.520   .     S
C405   H422    1.111   .     S
C405   H424    1.109   .     S
C405   C534    1.520   1_455 S
C405   H33     1.111   1_565 S
C406   H426    1.107   .     S
C406   C407    1.525   .     S
C406   H555    1.100   1_455 S
C406   O576    1.404   1_455 S
C407   H428    1.105   .     S
C407   H429    1.109   .     S
C407   H427    1.107   .     S
C408   C409    1.519   .     S
C408   H431    1.114   .     S
C408   H497    1.113   .     S
C408   O512    1.409   .     S
C409   H433    1.110   .     S
C409   H434    1.110   .     S
C409   H435    1.111   .     S
C410   C414    1.401   .     A
C411   C415    1.403   .     A
C411   C412    1.418   .     A
C411   C987    1.425   1_554 S
C412   C998    1.393   1_554 S
C413   C414    1.387   .     A
C413   H436    1.081   .     S
C413   C997    1.393   .     S
C414   H441    1.078   .     S
C415   H438    1.079   .     S
C416   O455    1.384   .     S
Cu417  O449    1.938   .     S
Cu417  O453    1.919   .     S
Cu417  O445    1.959   .     S
Cu417  N444    2.027   .     S
Cu417  Cu418   2.698   .     S
Cu417  O451    1.953   .     S
Cu418  N443    2.027   .     S
Cu418  O448    1.953   .     S
Cu418  O454    1.938   .     S
Cu418  O450    1.919   .     S
Cu418  O452    1.959   .     S
H419   C5      1.081   1_565 S
H425   C471    1.100   .     S
H430   N444    1.029   .     S
H432   C538    1.113   1_455 S
H440   C466    1.083   .     S
N443   O446    1.342   .     S
N443   N509    1.285   .     S
N444   N573    1.285   1_455 S
O446   C471    1.404   .     S
O447   C538    1.409   1_455 S
C456   O513    1.288   .     A
C456   O510    1.297   .     A
C456   C458    1.430   .     S
C457   C459    1.488   .     S
C457   C475    1.413   .     A
C457   C465    1.413   .     A
C458   C70     1.327   1_565 S
C458   H117    1.086   1_565 S
C459   O515    1.311   .     A
C459   O514    1.300   .     A
C460   C461    1.427   .     S
C461   O517    1.293   .     A
C461   O516    1.290   .     A
C462   O518    1.298   .     A
C462   O519    1.305   .     A
C462   C464    1.468   .     S
C463   C481    1.401   .     A
C463   C477    1.401   .     A
C463   H502    1.084   .     S
C464   C480    1.400   .     A
C464   C481    1.408   .     A
C465   C466    1.399   .     A
C465   O512    1.383   .     S
C466   C1053   1.391   .     S
C467   C475    1.417   .     A
C467   C1053   1.413   .     S
C467   C1061   1.425   .     S
C468   H504    1.078   .     S
C468   C1052   1.413   1_554 S
C468   C1051   1.391   1_554 S
C469   H486    1.113   .     S
C469   H485    1.115   .     S
C469   O520    1.413   .     S
C469   C535    1.520   .     S
C470   H487    1.111   .     S
C470   H489    1.109   .     S
C470   H98     1.111   1_565 S
C471   H491    1.107   .     S
C471   C472    1.525   .     S
C472   H493    1.105   .     S
C472   H494    1.109   .     S
C472   H492    1.107   .     S
C473   C474    1.519   .     S
C473   H496    1.114   .     S
C473   H562    1.113   .     S
C473   O577    1.409   .     S
C474   H498    1.110   .     S
C474   H499    1.110   .     S
C474   H500    1.111   .     S
C475   C479    1.401   .     A
C476   C480    1.403   .     A
C476   C477    1.418   .     A
C476   C1052   1.425   1_554 S
C477   C1063   1.393   1_554 S
C478   C479    1.387   .     A
C478   H501    1.081   .     S
C478   C1062   1.393   .     S
C479   H506    1.078   .     S
C480   H503    1.079   .     S
C481   O520    1.384   .     S
Cu482  O514    1.938   .     S
Cu482  O518    1.919   .     S
Cu482  O510    1.959   .     S
Cu482  N509    2.027   .     S
Cu482  Cu483   2.698   .     S
Cu482  O516    1.953   .     S
Cu483  N508    2.027   .     S
Cu483  O513    1.953   .     S
Cu483  O519    1.938   .     S
Cu483  O515    1.919   .     S
Cu483  O517    1.959   .     S
H484   C70     1.081   1_565 S
H490   C536    1.100   .     S
H495   N509    1.029   .     S
H505   C531    1.083   .     S
N508   O511    1.342   .     S
N508   N574    1.285   .     S
O511   C536    1.404   .     S
C521   O578    1.288   .     A
C521   O575    1.297   .     A
C521   C523    1.430   .     S
C522   C524    1.488   .     S
C522   C540    1.413   .     A
C522   C530    1.413   .     A
C523   C135    1.327   1_565 S
C523   H182    1.086   1_565 S
C524   O580    1.311   .     A
C524   O579    1.300   .     A
C525   C526    1.427   .     S
C526   O582    1.293   .     A
C526   O581    1.290   .     A
C527   O583    1.298   .     A
C527   O584    1.305   .     A
C527   C529    1.468   .     S
C528   C546    1.401   .     A
C528   C542    1.401   .     A
C528   H567    1.084   .     S
C529   C545    1.400   .     A
C529   C546    1.408   .     A
C530   C531    1.399   .     A
C530   O577    1.383   .     S
C531   C1118   1.391   .     S
C532   C540    1.417   .     A
C532   C1118   1.413   .     S
C532   C1126   1.425   .     S
C533   H569    1.078   .     S
C533   C1117   1.413   1_554 S
C533   C1116   1.391   1_554 S
C534   H551    1.113   .     S
C534   H550    1.115   .     S
C534   O585    1.413   .     S
C534   C405    1.520   1_655 S
C535   H552    1.111   .     S
C535   H554    1.109   .     S
C535   H163    1.111   1_565 S
C536   H556    1.107   .     S
C536   C537    1.525   .     S
C537   H558    1.105   .     S
C537   H559    1.109   .     S
C537   H557    1.107   .     S
C538   C539    1.519   .     S
C538   H561    1.114   .     S
C538   H432    1.113   1_655 S
C538   O447    1.409   1_655 S
C539   H563    1.110   .     S
C539   H564    1.110   .     S
C539   H565    1.111   .     S
C540   C544    1.401   .     A
C541   C545    1.403   .     A
C541   C542    1.418   .     A
C541   C1117   1.425   1_554 S
C542   C1128   1.393   1_554 S
C543   C544    1.387   .     A
C543   H566    1.081   .     S
C543   C1127   1.393   .     S
C544   H571    1.078   .     S
C545   H568    1.079   .     S
C546   O585    1.384   .     S
Cu547  O579    1.938   .     S
Cu547  O583    1.919   .     S
Cu547  O575    1.959   .     S
Cu547  N574    2.027   .     S
Cu547  Cu548   2.698   .     S
Cu547  O581    1.953   .     S
Cu548  N573    2.027   .     S
Cu548  O578    1.953   .     S
Cu548  O584    1.938   .     S
Cu548  O580    1.919   .     S
Cu548  O582    1.959   .     S
H549   C135    1.081   1_565 S
H555   C406    1.100   1_655 S
H560   N574    1.029   .     S
H570   C401    1.083   1_655 S
N573   O576    1.342   .     S
N573   N444    1.285   1_655 S
O576   C406    1.404   1_655 S
C586   O643    1.288   .     A
C586   O640    1.297   .     A
C586   C588    1.430   .     S
C587   C589    1.488   .     S
C587   C605    1.413   .     A
C587   C595    1.413   .     A
C588   C785    1.327   .     S
C588   H832    1.086   .     S
C589   O645    1.311   .     A
C589   O644    1.300   .     A
C590   C591    1.427   .     S
C590   C978    1.327   1_545 S
C590   H1004   1.081   1_545 S
C591   O647    1.293   .     A
C591   O646    1.290   .     A
C592   O648    1.298   .     A
C592   O649    1.305   .     A
C592   C594    1.468   .     S
C593   C611    1.401   .     A
C593   C607    1.401   .     A
C593   H632    1.084   .     S
C594   C610    1.400   .     A
C594   C611    1.408   .     A
C595   C596    1.399   .     A
C595   O642    1.383   .     S
C596   C13     1.391   1_556 S
C596   H765    1.083   1_455 S
C597   C605    1.417   .     A
C597   C13     1.413   1_556 S
C597   C21     1.425   1_556 S
C598   H634    1.078   .     S
C599   H616    1.113   .     S
C599   H615    1.115   .     S
C599   O650    1.413   .     S
C599   C665    1.520   .     S
C600   H617    1.111   .     S
C600   H619    1.109   .     S
C600   C729    1.520   1_455 S
C600   H813    1.111   .     S
C601   H621    1.107   .     S
C601   C602    1.525   .     S
C601   H750    1.100   1_455 S
C601   O771    1.404   1_455 S
C602   H623    1.105   .     S
C602   H624    1.109   .     S
C602   H622    1.107   .     S
C603   C604    1.519   .     S
C603   H626    1.114   .     S
C603   H692    1.113   .     S
C603   O707    1.409   .     S
C604   H628    1.110   .     S
C604   H629    1.110   .     S
C604   H630    1.111   .     S
C605   C609    1.401   .     A
C606   C610    1.403   .     A
C606   C607    1.418   .     A
C608   C609    1.387   .     A
C608   H631    1.081   .     S
C608   C22     1.393   1_556 S
C609   H636    1.078   .     S
C610   H633    1.079   .     S
C611   O650    1.384   .     S
Cu612  O644    1.938   .     S
Cu612  O648    1.919   .     S
Cu612  O640    1.959   .     S
Cu612  N639    2.027   .     S
Cu612  Cu613   2.698   .     S
Cu612  O646    1.953   .     S
Cu613  N638    2.027   .     S
Cu613  O643    1.953   .     S
Cu613  O649    1.938   .     S
Cu613  O645    1.919   .     S
Cu613  O647    1.959   .     S
H614   C785    1.081   .     S
H618   C990    1.111   1_545 S
H620   C666    1.100   .     S
H625   N639    1.029   .     S
H627   C733    1.113   1_455 S
H635   C661    1.083   .     S
H637   C978    1.086   1_545 S
N638   O641    1.342   .     S
N638   N704    1.285   .     S
N639   N768    1.285   1_455 S
O641   C666    1.404   .     S
O642   C733    1.409   1_455 S
C651   O708    1.288   .     A
C651   O705    1.297   .     A
C651   C653    1.430   .     S
C652   C654    1.488   .     S
C652   C670    1.413   .     A
C652   C660    1.413   .     A
C653   C850    1.327   .     S
C653   H897    1.086   .     S
C654   O710    1.311   .     A
C654   O709    1.300   .     A
C655   C656    1.427   .     S
C655   C1043   1.327   1_545 S
C655   H1069   1.081   1_545 S
C656   O712    1.293   .     A
C656   O711    1.290   .     A
C657   O713    1.298   .     A
C657   O714    1.305   .     A
C657   C659    1.468   .     S
C658   C676    1.401   .     A
C658   C672    1.401   .     A
C658   H697    1.084   .     S
C659   C675    1.400   .     A
C659   C676    1.408   .     A
C660   C661    1.399   .     A
C660   O707    1.383   .     S
C661   C78     1.391   1_556 S
C662   C670    1.417   .     A
C662   C78     1.413   1_556 S
C662   C86     1.425   1_556 S
C663   H699    1.078   .     S
C664   H681    1.113   .     S
C664   H680    1.115   .     S
C664   O715    1.413   .     S
C664   C730    1.520   .     S
C665   H682    1.111   .     S
C665   H684    1.109   .     S
C665   H878    1.111   .     S
C666   H686    1.107   .     S
C666   C667    1.525   .     S
C667   H688    1.105   .     S
C667   H689    1.109   .     S
C667   H687    1.107   .     S
C668   C669    1.519   .     S
C668   H691    1.114   .     S
C668   H757    1.113   .     S
C668   O772    1.409   .     S
C669   H693    1.110   .     S
C669   H694    1.110   .     S
C669   H695    1.111   .     S
C670   C674    1.401   .     A
C671   C675    1.403   .     A
C671   C672    1.418   .     A
C673   C674    1.387   .     A
C673   H696    1.081   .     S
C673   C87     1.393   1_556 S
C674   H701    1.078   .     S
C675   H698    1.079   .     S
C676   O715    1.384   .     S
Cu677  O709    1.938   .     S
Cu677  O713    1.919   .     S
Cu677  O705    1.959   .     S
Cu677  N704    2.027   .     S
Cu677  Cu678   2.698   .     S
Cu677  O711    1.953   .     S
Cu678  N703    2.027   .     S
Cu678  O708    1.953   .     S
Cu678  O714    1.938   .     S
Cu678  O710    1.919   .     S
Cu678  O712    1.959   .     S
H679   C850    1.081   .     S
H683   C1055   1.111   1_545 S
H685   C731    1.100   .     S
H690   N704    1.029   .     S
H700   C726    1.083   .     S
H702   C1043   1.086   1_545 S
N703   O706    1.342   .     S
N703   N769    1.285   .     S
O706   C731    1.404   .     S
C716   O773    1.288   .     A
C716   O770    1.297   .     A
C716   C718    1.430   .     S
C717   C719    1.488   .     S
C717   C735    1.413   .     A
C717   C725    1.413   .     A
C718   C915    1.327   .     S
C718   H962    1.086   .     S
C719   O775    1.311   .     A
C719   O774    1.300   .     A
C720   C721    1.427   .     S
C720   C1108   1.327   1_545 S
C720   H1134   1.081   1_545 S
C721   O777    1.293   .     A
C721   O776    1.290   .     A
C722   O778    1.298   .     A
C722   O779    1.305   .     A
C722   C724    1.468   .     S
C723   C741    1.401   .     A
C723   C737    1.401   .     A
C723   H762    1.084   .     S
C724   C740    1.400   .     A
C724   C741    1.408   .     A
C725   C726    1.399   .     A
C725   O772    1.383   .     S
C726   C143    1.391   1_556 S
C727   C735    1.417   .     A
C727   C143    1.413   1_556 S
C727   C151    1.425   1_556 S
C728   H764    1.078   .     S
C729   H746    1.113   .     S
C729   H745    1.115   .     S
C729   O780    1.413   .     S
C729   C600    1.520   1_655 S
C730   H747    1.111   .     S
C730   H749    1.109   .     S
C730   H943    1.111   .     S
C731   H751    1.107   .     S
C731   C732    1.525   .     S
C732   H753    1.105   .     S
C732   H754    1.109   .     S
C732   H752    1.107   .     S
C733   C734    1.519   .     S
C733   H756    1.114   .     S
C733   H627    1.113   1_655 S
C733   O642    1.409   1_655 S
C734   H758    1.110   .     S
C734   H759    1.110   .     S
C734   H760    1.111   .     S
C735   C739    1.401   .     A
C736   C740    1.403   .     A
C736   C737    1.418   .     A
C738   C739    1.387   .     A
C738   H761    1.081   .     S
C738   C152    1.393   1_556 S
C739   H766    1.078   .     S
C740   H763    1.079   .     S
C741   O780    1.384   .     S
Cu742  O774    1.938   .     S
Cu742  O778    1.919   .     S
Cu742  O770    1.959   .     S
Cu742  N769    2.027   .     S
Cu742  Cu743   2.698   .     S
Cu742  O776    1.953   .     S
Cu743  N768    2.027   .     S
Cu743  O773    1.953   .     S
Cu743  O779    1.938   .     S
Cu743  O775    1.919   .     S
Cu743  O777    1.959   .     S
H744   C915    1.081   .     S
H748   C1120   1.111   1_545 S
H750   C601    1.100   1_655 S
H755   N769    1.029   .     S
H765   C596    1.083   1_655 S
H767   C1108   1.086   1_545 S
N768   O771    1.342   .     S
N768   N639    1.285   1_655 S
O771   C601    1.404   1_655 S
C781   O838    1.288   .     A
C781   O835    1.297   .     A
C781   C783    1.430   .     S
C782   C784    1.488   .     S
C782   C800    1.413   .     A
C782   C790    1.413   .     A
C783   C980    1.327   .     S
C783   H1027   1.086   .     S
C784   O840    1.311   .     A
C784   O839    1.300   .     A
C785   C786    1.427   .     S
C786   O842    1.293   .     A
C786   O841    1.290   .     A
C787   O843    1.298   .     A
C787   O844    1.305   .     A
C787   C789    1.468   .     S
C788   C806    1.401   .     A
C788   C802    1.401   .     A
C788   H827    1.084   .     S
C789   C805    1.400   .     A
C789   C806    1.408   .     A
C790   C791    1.399   .     A
C790   O837    1.383   .     S
C791   C208    1.391   1_556 S
C791   H960    1.083   1_455 S
C792   C800    1.417   .     A
C792   C208    1.413   1_556 S
C792   C216    1.425   1_556 S
C793   H829    1.078   .     S
C794   H811    1.113   .     S
C794   H810    1.115   .     S
C794   O845    1.413   .     S
C794   C860    1.520   .     S
C795   H812    1.111   .     S
C795   H814    1.109   .     S
C795   C924    1.520   1_455 S
C795   H1008   1.111   .     S
C796   H816    1.107   .     S
C796   C797    1.525   .     S
C796   H945    1.100   1_455 S
C796   O966    1.404   1_455 S
C797   H818    1.105   .     S
C797   H819    1.109   .     S
C797   H817    1.107   .     S
C798   C799    1.519   .     S
C798   H821    1.114   .     S
C798   H887    1.113   .     S
C798   O902    1.409   .     S
C799   H823    1.110   .     S
C799   H824    1.110   .     S
C799   H825    1.111   .     S
C800   C804    1.401   .     A
C801   C805    1.403   .     A
C801   C802    1.418   .     A
C803   C804    1.387   .     A
C803   H826    1.081   .     S
C803   C217    1.393   1_556 S
C804   H831    1.078   .     S
C805   H828    1.079   .     S
C806   O845    1.384   .     S
Cu807  O839    1.938   .     S
Cu807  O843    1.919   .     S
Cu807  O835    1.959   .     S
Cu807  N834    2.027   .     S
Cu807  Cu808   2.698   .     S
Cu807  O841    1.953   .     S
Cu808  N833    2.027   .     S
Cu808  O838    1.953   .     S
Cu808  O844    1.938   .     S
Cu808  O840    1.919   .     S
Cu808  O842    1.959   .     S
H809   C980    1.081   .     S
H815   C861    1.100   .     S
H820   N834    1.029   .     S
H822   C928    1.113   1_455 S
H830   C856    1.083   .     S
N833   O836    1.342   .     S
N833   N899    1.285   .     S
N834   N963    1.285   1_455 S
O836   C861    1.404   .     S
O837   C928    1.409   1_455 S
C846   O903    1.288   .     A
C846   O900    1.297   .     A
C846   C848    1.430   .     S
C847   C849    1.488   .     S
C847   C865    1.413   .     A
C847   C855    1.413   .     A
C848   C1045   1.327   .     S
C848   H1092   1.086   .     S
C849   O905    1.311   .     A
C849   O904    1.300   .     A
C850   C851    1.427   .     S
C851   O907    1.293   .     A
C851   O906    1.290   .     A
C852   O908    1.298   .     A
C852   O909    1.305   .     A
C852   C854    1.468   .     S
C853   C871    1.401   .     A
C853   C867    1.401   .     A
C853   H892    1.084   .     S
C854   C870    1.400   .     A
C854   C871    1.408   .     A
C855   C856    1.399   .     A
C855   O902    1.383   .     S
C856   C273    1.391   1_556 S
C857   C865    1.417   .     A
C857   C273    1.413   1_556 S
C857   C281    1.425   1_556 S
C858   H894    1.078   .     S
C859   H876    1.113   .     S
C859   H875    1.115   .     S
C859   O910    1.413   .     S
C859   C925    1.520   .     S
C860   H877    1.111   .     S
C860   H879    1.109   .     S
C860   H1073   1.111   .     S
C861   H881    1.107   .     S
C861   C862    1.525   .     S
C862   H883    1.105   .     S
C862   H884    1.109   .     S
C862   H882    1.107   .     S
C863   C864    1.519   .     S
C863   H886    1.114   .     S
C863   H952    1.113   .     S
C863   O967    1.409   .     S
C864   H888    1.110   .     S
C864   H889    1.110   .     S
C864   H890    1.111   .     S
C865   C869    1.401   .     A
C866   C870    1.403   .     A
C866   C867    1.418   .     A
C868   C869    1.387   .     A
C868   H891    1.081   .     S
C868   C282    1.393   1_556 S
C869   H896    1.078   .     S
C870   H893    1.079   .     S
C871   O910    1.384   .     S
Cu872  O904    1.938   .     S
Cu872  O908    1.919   .     S
Cu872  O900    1.959   .     S
Cu872  N899    2.027   .     S
Cu872  Cu873   2.698   .     S
Cu872  O906    1.953   .     S
Cu873  N898    2.027   .     S
Cu873  O903    1.953   .     S
Cu873  O909    1.938   .     S
Cu873  O905    1.919   .     S
Cu873  O907    1.959   .     S
H874   C1045   1.081   .     S
H880   C926    1.100   .     S
H885   N899    1.029   .     S
H895   C921    1.083   .     S
N898   O901    1.342   .     S
N898   N964    1.285   .     S
O901   C926    1.404   .     S
C911   O968    1.288   .     A
C911   O965    1.297   .     A
C911   C913    1.430   .     S
C912   C914    1.488   .     S
C912   C930    1.413   .     A
C912   C920    1.413   .     A
C913   C1110   1.327   .     S
C913   H1157   1.086   .     S
C914   O970    1.311   .     A
C914   O969    1.300   .     A
C915   C916    1.427   .     S
C916   O972    1.293   .     A
C916   O971    1.290   .     A
C917   O973    1.298   .     A
C917   O974    1.305   .     A
C917   C919    1.468   .     S
C918   C936    1.401   .     A
C918   C932    1.401   .     A
C918   H957    1.084   .     S
C919   C935    1.400   .     A
C919   C936    1.408   .     A
C920   C921    1.399   .     A
C920   O967    1.383   .     S
C921   C338    1.391   1_556 S
C922   C930    1.417   .     A
C922   C338    1.413   1_556 S
C922   C346    1.425   1_556 S
C923   H959    1.078   .     S
C924   H941    1.113   .     S
C924   H940    1.115   .     S
C924   O975    1.413   .     S
C924   C795    1.520   1_655 S
C925   H942    1.111   .     S
C925   H944    1.109   .     S
C925   H1138   1.111   .     S
C926   H946    1.107   .     S
C926   C927    1.525   .     S
C927   H948    1.105   .     S
C927   H949    1.109   .     S
C927   H947    1.107   .     S
C928   C929    1.519   .     S
C928   H951    1.114   .     S
C928   H822    1.113   1_655 S
C928   O837    1.409   1_655 S
C929   H953    1.110   .     S
C929   H954    1.110   .     S
C929   H955    1.111   .     S
C930   C934    1.401   .     A
C931   C935    1.403   .     A
C931   C932    1.418   .     A
C933   C934    1.387   .     A
C933   H956    1.081   .     S
C933   C347    1.393   1_556 S
C934   H961    1.078   .     S
C935   H958    1.079   .     S
C936   O975    1.384   .     S
Cu937  O969    1.938   .     S
Cu937  O973    1.919   .     S
Cu937  O965    1.959   .     S
Cu937  N964    2.027   .     S
Cu937  Cu938   2.698   .     S
Cu937  O971    1.953   .     S
Cu938  N963    2.027   .     S
Cu938  O968    1.953   .     S
Cu938  O974    1.938   .     S
Cu938  O970    1.919   .     S
Cu938  O972    1.959   .     S
H939   C1110   1.081   .     S
H945   C796    1.100   1_655 S
H950   N964    1.029   .     S
H960   C791    1.083   1_655 S
N963   O966    1.342   .     S
N963   N834    1.285   1_655 S
O966   C796    1.404   1_655 S
C976   O1033   1.288   .     A
C976   O1030   1.297   .     A
C976   C978    1.430   .     S
C977   C979    1.488   .     S
C977   C995    1.413   .     A
C977   C985    1.413   .     A
C978   C590    1.327   1_565 S
C978   H637    1.086   1_565 S
C979   O1035   1.311   .     A
C979   O1034   1.300   .     A
C980   C981    1.427   .     S
C981   O1037   1.293   .     A
C981   O1036   1.290   .     A
C982   O1038   1.298   .     A
C982   O1039   1.305   .     A
C982   C984    1.468   .     S
C983   C1001   1.401   .     A
C983   C997    1.401   .     A
C983   H1022   1.084   .     S
C984   C1000   1.400   .     A
C984   C1001   1.408   .     A
C985   C986    1.399   .     A
C985   O1032   1.383   .     S
C986   C403    1.391   1_556 S
C986   H1155   1.083   1_455 S
C987   C995    1.417   .     A
C987   C403    1.413   1_556 S
C987   C411    1.425   1_556 S
C988   H1024   1.078   .     S
C989   H1006   1.113   .     S
C989   H1005   1.115   .     S
C989   O1040   1.413   .     S
C989   C1055   1.520   .     S
C990   H1007   1.111   .     S
C990   H1009   1.109   .     S
C990   C1119   1.520   1_455 S
C990   H618    1.111   1_565 S
C991   H1011   1.107   .     S
C991   C992    1.525   .     S
C991   H1140   1.100   1_455 S
C991   O1161   1.404   1_455 S
C992   H1013   1.105   .     S
C992   H1014   1.109   .     S
C992   H1012   1.107   .     S
C993   C994    1.519   .     S
C993   H1016   1.114   .     S
C993   H1082   1.113   .     S
C993   O1097   1.409   .     S
C994   H1018   1.110   .     S
C994   H1019   1.110   .     S
C994   H1020   1.111   .     S
C995   C999    1.401   .     A
C996   C1000   1.403   .     A
C996   C997    1.418   .     A
C998   C999    1.387   .     A
C998   H1021   1.081   .     S
C998   C412    1.393   1_556 S
C999   H1026   1.078   .     S
C1000  H1023   1.079   .     S
C1001  O1040   1.384   .     S
Cu1002 O1034   1.938   .     S
Cu1002 O1038   1.919   .     S
Cu1002 O1030   1.959   .     S
Cu1002 N1029   2.027   .     S
Cu1002 Cu1003  2.698   .     S
Cu1002 O1036   1.953   .     S
Cu1003 N1028   2.027   .     S
Cu1003 O1033   1.953   .     S
Cu1003 O1039   1.938   .     S
Cu1003 O1035   1.919   .     S
Cu1003 O1037   1.959   .     S
H1004  C590    1.081   1_565 S
H1010  C1056   1.100   .     S
H1015  N1029   1.029   .     S
H1017  C1123   1.113   1_455 S
H1025  C1051   1.083   .     S
N1028  O1031   1.342   .     S
N1028  N1094   1.285   .     S
N1029  N1158   1.285   1_455 S
O1031  C1056   1.404   .     S
O1032  C1123   1.409   1_455 S
C1041  O1098   1.288   .     A
C1041  O1095   1.297   .     A
C1041  C1043   1.430   .     S
C1042  C1044   1.488   .     S
C1042  C1060   1.413   .     A
C1042  C1050   1.413   .     A
C1043  C655    1.327   1_565 S
C1043  H702    1.086   1_565 S
C1044  O1100   1.311   .     A
C1044  O1099   1.300   .     A
C1045  C1046   1.427   .     S
C1046  O1102   1.293   .     A
C1046  O1101   1.290   .     A
C1047  O1103   1.298   .     A
C1047  O1104   1.305   .     A
C1047  C1049   1.468   .     S
C1048  C1066   1.401   .     A
C1048  C1062   1.401   .     A
C1048  H1087   1.084   .     S
C1049  C1065   1.400   .     A
C1049  C1066   1.408   .     A
C1050  C1051   1.399   .     A
C1050  O1097   1.383   .     S
C1051  C468    1.391   1_556 S
C1052  C1060   1.417   .     A
C1052  C468    1.413   1_556 S
C1052  C476    1.425   1_556 S
C1053  H1089   1.078   .     S
C1054  H1071   1.113   .     S
C1054  H1070   1.115   .     S
C1054  O1105   1.413   .     S
C1054  C1120   1.520   .     S
C1055  H1072   1.111   .     S
C1055  H1074   1.109   .     S
C1055  H683    1.111   1_565 S
C1056  H1076   1.107   .     S
C1056  C1057   1.525   .     S
C1057  H1078   1.105   .     S
C1057  H1079   1.109   .     S
C1057  H1077   1.107   .     S
C1058  C1059   1.519   .     S
C1058  H1081   1.114   .     S
C1058  H1147   1.113   .     S
C1058  O1162   1.409   .     S
C1059  H1083   1.110   .     S
C1059  H1084   1.110   .     S
C1059  H1085   1.111   .     S
C1060  C1064   1.401   .     A
C1061  C1065   1.403   .     A
C1061  C1062   1.418   .     A
C1063  C1064   1.387   .     A
C1063  H1086   1.081   .     S
C1063  C477    1.393   1_556 S
C1064  H1091   1.078   .     S
C1065  H1088   1.079   .     S
C1066  O1105   1.384   .     S
Cu1067 O1099   1.938   .     S
Cu1067 O1103   1.919   .     S
Cu1067 O1095   1.959   .     S
Cu1067 N1094   2.027   .     S
Cu1067 Cu1068  2.698   .     S
Cu1067 O1101   1.953   .     S
Cu1068 N1093   2.027   .     S
Cu1068 O1098   1.953   .     S
Cu1068 O1104   1.938   .     S
Cu1068 O1100   1.919   .     S
Cu1068 O1102   1.959   .     S
H1069  C655    1.081   1_565 S
H1075  C1121   1.100   .     S
H1080  N1094   1.029   .     S
H1090  C1116   1.083   .     S
N1093  O1096   1.342   .     S
N1093  N1159   1.285   .     S
O1096  C1121   1.404   .     S
C1106  O1163   1.288   .     A
C1106  O1160   1.297   .     A
C1106  C1108   1.430   .     S
C1107  C1109   1.488   .     S
C1107  C1125   1.413   .     A
C1107  C1115   1.413   .     A
C1108  C720    1.327   1_565 S
C1108  H767    1.086   1_565 S
C1109  O1165   1.311   .     A
C1109  O1164   1.300   .     A
C1110  C1111   1.427   .     S
C1111  O1167   1.293   .     A
C1111  O1166   1.290   .     A
C1112  O1168   1.298   .     A
C1112  O1169   1.305   .     A
C1112  C1114   1.468   .     S
C1113  C1131   1.401   .     A
C1113  C1127   1.401   .     A
C1113  H1152   1.084   .     S
C1114  C1130   1.400   .     A
C1114  C1131   1.408   .     A
C1115  C1116   1.399   .     A
C1115  O1162   1.383   .     S
C1116  C533    1.391   1_556 S
C1117  C1125   1.417   .     A
C1117  C533    1.413   1_556 S
C1117  C541    1.425   1_556 S
C1118  H1154   1.078   .     S
C1119  H1136   1.113   .     S
C1119  H1135   1.115   .     S
C1119  O1170   1.413   .     S
C1119  C990    1.520   1_655 S
C1120  H1137   1.111   .     S
C1120  H1139   1.109   .     S
C1120  H748    1.111   1_565 S
C1121  H1141   1.107   .     S
C1121  C1122   1.525   .     S
C1122  H1143   1.105   .     S
C1122  H1144   1.109   .     S
C1122  H1142   1.107   .     S
C1123  C1124   1.519   .     S
C1123  H1146   1.114   .     S
C1123  H1017   1.113   1_655 S
C1123  O1032   1.409   1_655 S
C1124  H1148   1.110   .     S
C1124  H1149   1.110   .     S
C1124  H1150   1.111   .     S
C1125  C1129   1.401   .     A
C1126  C1130   1.403   .     A
C1126  C1127   1.418   .     A
C1128  C1129   1.387   .     A
C1128  H1151   1.081   .     S
C1128  C542    1.393   1_556 S
C1129  H1156   1.078   .     S
C1130  H1153   1.079   .     S
C1131  O1170   1.384   .     S
Cu1132 O1164   1.938   .     S
Cu1132 O1168   1.919   .     S
Cu1132 O1160   1.959   .     S
Cu1132 N1159   2.027   .     S
Cu1132 Cu1133  2.698   .     S
Cu1132 O1166   1.953   .     S
Cu1133 N1158   2.027   .     S
Cu1133 O1163   1.953   .     S
Cu1133 O1169   1.938   .     S
Cu1133 O1165   1.919   .     S
Cu1133 O1167   1.959   .     S
H1134  C720    1.081   1_565 S
H1140  C991    1.100   1_655 S
H1145  N1159   1.029   .     S
H1155  C986    1.083   1_655 S
N1158  O1161   1.342   .     S
N1158  N1029   1.285   1_655 S
O1161  C991    1.404   1_655 S
