data_str_m2_o2_o5_pcu_sym.88
_audit_creation_date              2020-01-03
_audit_creation_method            'Materials Studio'
_symmetry_space_group_name_H-M    'P1'
_symmetry_Int_Tables_number       1
_symmetry_cell_setting            triclinic
loop_
_symmetry_equiv_pos_as_xyz
  x,y,z
_cell_length_a                    30.3011
_cell_length_b                    27.9491
_cell_length_c                    27.2269
_cell_angle_alpha                 90.0003
_cell_angle_beta                  92.0112
_cell_angle_gamma                 89.9990
loop_
_atom_site_label
_atom_site_type_symbol
_atom_site_fract_x
_atom_site_fract_y
_atom_site_fract_z
_atom_site_U_iso_or_equiv
_atom_site_adp_type
_atom_site_occupancy
O1     O     0.18573   0.29071   0.16667   0.00000  Uiso   1.00
O2     O     0.31427   0.20928   0.16666   0.00000  Uiso   1.00
O3     O     0.31427   0.29071   0.16666   0.00000  Uiso   1.00
O4     O     0.18573   0.20928   0.16667   0.00000  Uiso   1.00
C5     C     0.16502   0.25001   0.16697   0.00000  Uiso   1.00
C6     C     0.33498   0.25001   0.16637   0.00000  Uiso   1.00
O7     O     0.25000   0.29071   0.09613   0.00000  Uiso   1.00
O8     O     0.25000   0.20929   0.23720   0.00000  Uiso   1.00
O9     O     0.25000   0.29071   0.23720   0.00000  Uiso   1.00
O10    O     0.25000   0.20929   0.09613   0.00000  Uiso   1.00
C11    C     0.26744   0.05332   0.20656   0.00000  Uiso   1.00
C12    C     0.21861   0.44616   0.13879   0.00000  Uiso   1.00
C13    C     0.23256   0.05333   0.12676   0.00000  Uiso   1.00
C14    C     0.28139   0.44616   0.19453   0.00000  Uiso   1.00
C15    C     0.24991   0.25000   0.07359   0.00000  Uiso   1.00
C16    C     0.25009   0.25000   0.25974   0.00000  Uiso   1.00
Cu17   Cu    0.25000   0.29821   0.16667   0.00000  Uiso   1.00
Cu18   Cu    0.25000   0.20178   0.16667   0.00000  Uiso   1.00
N19    N     0.25000   0.12934   0.16667   0.00000  Uiso   1.00
N20    N     0.25000   0.37065   0.16667   0.00000  Uiso   1.00
C21    C     0.25000   0.02692   0.16666   0.00000  Uiso   1.00
C22    C     0.25000   0.47258   0.16666   0.00000  Uiso   1.00
C23    C     0.24997   0.24998   0.02186   0.00000  Uiso   1.00
C24    C     0.25003   0.24998   0.31148   0.00000  Uiso   1.00
C25    C     0.04813   0.29130   0.18186   0.00000  Uiso   1.00
C26    C     0.45289   0.20937   0.18080   0.00000  Uiso   1.00
C27    C     0.45186   0.29130   0.15147   0.00000  Uiso   1.00
C28    C     0.04711   0.20936   0.15258   0.00000  Uiso   1.00
H29    H     0.03136   0.32313   0.19411   0.00000  Uiso   1.00
H30    H     0.47043   0.17761   0.19322   0.00000  Uiso   1.00
H31    H     0.46864   0.32311   0.13922   0.00000  Uiso   1.00
H32    H     0.02957   0.17759   0.14017   0.00000  Uiso   1.00
C33    C     0.09405   0.29116   0.18195   0.00000  Uiso   1.00
C34    C     0.40704   0.20899   0.17990   0.00000  Uiso   1.00
C35    C     0.40595   0.29115   0.15138   0.00000  Uiso   1.00
C36    C     0.09296   0.20899   0.15347   0.00000  Uiso   1.00
H37    H     0.11176   0.32295   0.19399   0.00000  Uiso   1.00
H38    H     0.39039   0.17670   0.19077   0.00000  Uiso   1.00
H39    H     0.38824   0.32293   0.13933   0.00000  Uiso   1.00
H40    H     0.10961   0.17669   0.14261   0.00000  Uiso   1.00
C41    C     0.11675   0.25005   0.16749   0.00000  Uiso   1.00
C42    C     0.38325   0.25005   0.16585   0.00000  Uiso   1.00
C43    C     0.02428   0.25047   0.16687   0.00000  Uiso   1.00
C44    C     0.47572   0.25047   0.16648   0.00000  Uiso   1.00
C45    C     0.26836   0.10381   0.20578   0.00000  Uiso   1.00
C46    C     0.21943   0.39571   0.13838   0.00000  Uiso   1.00
C47    C     0.23163   0.10382   0.12755   0.00000  Uiso   1.00
C48    C     0.28057   0.39571   0.19495   0.00000  Uiso   1.00
H49    H     0.28081   0.03513   0.23883   0.00000  Uiso   1.00
H50    H     0.19300   0.46420   0.11720   0.00000  Uiso   1.00
H51    H     0.21918   0.03514   0.09449   0.00000  Uiso   1.00
H52    H     0.30701   0.46420   0.21611   0.00000  Uiso   1.00
N53    N     0.28917   0.12734   0.24700   0.00000  Uiso   1.00
O54    O     0.27696   0.11693   0.29104   0.00000  Uiso   1.00
O55    O     0.32675   0.14877   0.24195   0.00000  Uiso   1.00
N56    N     0.18773   0.37135   0.10750   0.00000  Uiso   1.00
O57    O     0.19745   0.36231   0.06230   0.00000  Uiso   1.00
O58    O     0.14634   0.37324   0.11846   0.00000  Uiso   1.00
N59    N     0.21082   0.12736   0.08635   0.00000  Uiso   1.00
O60    O     0.22311   0.11706   0.04230   0.00000  Uiso   1.00
O61    O     0.17317   0.14867   0.09139   0.00000  Uiso   1.00
N62    N     0.31227   0.37135   0.22583   0.00000  Uiso   1.00
O63    O     0.30255   0.36231   0.27103   0.00000  Uiso   1.00
O64    O     0.35366   0.37324   0.21487   0.00000  Uiso   1.00
O65    O     0.68573   0.29071   0.16667   0.00000  Uiso   1.00
O66    O     0.81427   0.20928   0.16666   0.00000  Uiso   1.00
O67    O     0.81427   0.29071   0.16666   0.00000  Uiso   1.00
O68    O     0.68573   0.20928   0.16667   0.00000  Uiso   1.00
C69    C     0.66502   0.25001   0.16697   0.00000  Uiso   1.00
C70    C     0.83498   0.25001   0.16637   0.00000  Uiso   1.00
O71    O     0.75000   0.29071   0.09613   0.00000  Uiso   1.00
O72    O     0.75000   0.20929   0.23720   0.00000  Uiso   1.00
O73    O     0.75000   0.29071   0.23720   0.00000  Uiso   1.00
O74    O     0.75000   0.20929   0.09613   0.00000  Uiso   1.00
C75    C     0.76744   0.05332   0.20656   0.00000  Uiso   1.00
C76    C     0.71861   0.44616   0.13879   0.00000  Uiso   1.00
C77    C     0.73256   0.05333   0.12676   0.00000  Uiso   1.00
C78    C     0.78139   0.44616   0.19453   0.00000  Uiso   1.00
C79    C     0.74991   0.25000   0.07359   0.00000  Uiso   1.00
C80    C     0.75009   0.25000   0.25974   0.00000  Uiso   1.00
Cu81   Cu    0.75000   0.29821   0.16667   0.00000  Uiso   1.00
Cu82   Cu    0.75000   0.20178   0.16667   0.00000  Uiso   1.00
N83    N     0.75000   0.12934   0.16667   0.00000  Uiso   1.00
N84    N     0.75000   0.37065   0.16667   0.00000  Uiso   1.00
C85    C     0.75000   0.02692   0.16666   0.00000  Uiso   1.00
C86    C     0.75000   0.47258   0.16666   0.00000  Uiso   1.00
C87    C     0.74997   0.24998   0.02186   0.00000  Uiso   1.00
C88    C     0.75003   0.24998   0.31148   0.00000  Uiso   1.00
C89    C     0.54813   0.29130   0.18186   0.00000  Uiso   1.00
C90    C     0.95289   0.20937   0.18080   0.00000  Uiso   1.00
C91    C     0.95186   0.29130   0.15147   0.00000  Uiso   1.00
C92    C     0.54711   0.20936   0.15258   0.00000  Uiso   1.00
H93    H     0.53136   0.32313   0.19411   0.00000  Uiso   1.00
H94    H     0.97043   0.17761   0.19322   0.00000  Uiso   1.00
H95    H     0.96864   0.32311   0.13922   0.00000  Uiso   1.00
H96    H     0.52957   0.17759   0.14017   0.00000  Uiso   1.00
C97    C     0.59405   0.29116   0.18195   0.00000  Uiso   1.00
C98    C     0.90704   0.20899   0.17990   0.00000  Uiso   1.00
C99    C     0.90595   0.29115   0.15138   0.00000  Uiso   1.00
C100   C     0.59296   0.20899   0.15347   0.00000  Uiso   1.00
H101   H     0.61176   0.32295   0.19399   0.00000  Uiso   1.00
H102   H     0.89039   0.17670   0.19077   0.00000  Uiso   1.00
H103   H     0.88824   0.32293   0.13933   0.00000  Uiso   1.00
H104   H     0.60961   0.17669   0.14261   0.00000  Uiso   1.00
C105   C     0.61675   0.25005   0.16749   0.00000  Uiso   1.00
C106   C     0.88325   0.25005   0.16585   0.00000  Uiso   1.00
C107   C     0.52428   0.25047   0.16687   0.00000  Uiso   1.00
C108   C     0.97572   0.25047   0.16648   0.00000  Uiso   1.00
C109   C     0.76836   0.10381   0.20578   0.00000  Uiso   1.00
C110   C     0.71943   0.39571   0.13838   0.00000  Uiso   1.00
C111   C     0.73163   0.10382   0.12755   0.00000  Uiso   1.00
C112   C     0.78057   0.39571   0.19495   0.00000  Uiso   1.00
H113   H     0.78081   0.03513   0.23883   0.00000  Uiso   1.00
H114   H     0.69300   0.46420   0.11720   0.00000  Uiso   1.00
H115   H     0.71918   0.03514   0.09449   0.00000  Uiso   1.00
H116   H     0.80701   0.46420   0.21611   0.00000  Uiso   1.00
N117   N     0.78917   0.12734   0.24700   0.00000  Uiso   1.00
O118   O     0.77696   0.11693   0.29104   0.00000  Uiso   1.00
O119   O     0.82675   0.14877   0.24195   0.00000  Uiso   1.00
N120   N     0.68773   0.37135   0.10750   0.00000  Uiso   1.00
O121   O     0.69745   0.36231   0.06230   0.00000  Uiso   1.00
O122   O     0.64634   0.37324   0.11846   0.00000  Uiso   1.00
N123   N     0.71082   0.12736   0.08635   0.00000  Uiso   1.00
O124   O     0.72311   0.11706   0.04230   0.00000  Uiso   1.00
O125   O     0.67317   0.14867   0.09139   0.00000  Uiso   1.00
N126   N     0.81227   0.37135   0.22583   0.00000  Uiso   1.00
O127   O     0.80255   0.36231   0.27103   0.00000  Uiso   1.00
O128   O     0.85366   0.37324   0.21487   0.00000  Uiso   1.00
O129   O     0.18573   0.79071   0.16667   0.00000  Uiso   1.00
O130   O     0.31427   0.70928   0.16666   0.00000  Uiso   1.00
O131   O     0.31427   0.79071   0.16666   0.00000  Uiso   1.00
O132   O     0.18573   0.70928   0.16667   0.00000  Uiso   1.00
C133   C     0.16502   0.75001   0.16697   0.00000  Uiso   1.00
C134   C     0.33498   0.75001   0.16637   0.00000  Uiso   1.00
O135   O     0.25000   0.79071   0.09613   0.00000  Uiso   1.00
O136   O     0.25000   0.70929   0.23720   0.00000  Uiso   1.00
O137   O     0.25000   0.79071   0.23720   0.00000  Uiso   1.00
O138   O     0.25000   0.70929   0.09613   0.00000  Uiso   1.00
C139   C     0.26744   0.55332   0.20656   0.00000  Uiso   1.00
C140   C     0.21861   0.94616   0.13879   0.00000  Uiso   1.00
C141   C     0.23256   0.55333   0.12676   0.00000  Uiso   1.00
C142   C     0.28139   0.94616   0.19453   0.00000  Uiso   1.00
C143   C     0.24991   0.75000   0.07359   0.00000  Uiso   1.00
C144   C     0.25009   0.75000   0.25974   0.00000  Uiso   1.00
Cu145  Cu    0.25000   0.79821   0.16667   0.00000  Uiso   1.00
Cu146  Cu    0.25000   0.70178   0.16667   0.00000  Uiso   1.00
N147   N     0.25000   0.62934   0.16667   0.00000  Uiso   1.00
N148   N     0.25000   0.87065   0.16667   0.00000  Uiso   1.00
C149   C     0.25000   0.52692   0.16666   0.00000  Uiso   1.00
C150   C     0.25000   0.97258   0.16666   0.00000  Uiso   1.00
C151   C     0.24997   0.74998   0.02186   0.00000  Uiso   1.00
C152   C     0.25003   0.74998   0.31148   0.00000  Uiso   1.00
C153   C     0.04813   0.79130   0.18186   0.00000  Uiso   1.00
C154   C     0.45289   0.70937   0.18080   0.00000  Uiso   1.00
C155   C     0.45186   0.79130   0.15147   0.00000  Uiso   1.00
C156   C     0.04711   0.70936   0.15258   0.00000  Uiso   1.00
H157   H     0.03136   0.82313   0.19411   0.00000  Uiso   1.00
H158   H     0.47043   0.67761   0.19322   0.00000  Uiso   1.00
H159   H     0.46864   0.82311   0.13922   0.00000  Uiso   1.00
H160   H     0.02957   0.67759   0.14017   0.00000  Uiso   1.00
C161   C     0.09405   0.79116   0.18195   0.00000  Uiso   1.00
C162   C     0.40704   0.70899   0.17990   0.00000  Uiso   1.00
C163   C     0.40595   0.79115   0.15138   0.00000  Uiso   1.00
C164   C     0.09296   0.70899   0.15347   0.00000  Uiso   1.00
H165   H     0.11176   0.82295   0.19399   0.00000  Uiso   1.00
H166   H     0.39039   0.67670   0.19077   0.00000  Uiso   1.00
H167   H     0.38824   0.82293   0.13933   0.00000  Uiso   1.00
H168   H     0.10961   0.67669   0.14261   0.00000  Uiso   1.00
C169   C     0.11675   0.75005   0.16749   0.00000  Uiso   1.00
C170   C     0.38325   0.75005   0.16585   0.00000  Uiso   1.00
C171   C     0.02428   0.75047   0.16687   0.00000  Uiso   1.00
C172   C     0.47572   0.75047   0.16648   0.00000  Uiso   1.00
C173   C     0.26836   0.60381   0.20578   0.00000  Uiso   1.00
C174   C     0.21943   0.89571   0.13838   0.00000  Uiso   1.00
C175   C     0.23163   0.60382   0.12755   0.00000  Uiso   1.00
C176   C     0.28057   0.89571   0.19495   0.00000  Uiso   1.00
H177   H     0.28081   0.53513   0.23883   0.00000  Uiso   1.00
H178   H     0.19300   0.96420   0.11720   0.00000  Uiso   1.00
H179   H     0.21918   0.53514   0.09449   0.00000  Uiso   1.00
H180   H     0.30701   0.96420   0.21611   0.00000  Uiso   1.00
N181   N     0.28917   0.62734   0.24700   0.00000  Uiso   1.00
O182   O     0.27696   0.61693   0.29104   0.00000  Uiso   1.00
O183   O     0.32675   0.64877   0.24195   0.00000  Uiso   1.00
N184   N     0.18773   0.87135   0.10750   0.00000  Uiso   1.00
O185   O     0.19745   0.86231   0.06230   0.00000  Uiso   1.00
O186   O     0.14634   0.87324   0.11846   0.00000  Uiso   1.00
N187   N     0.21082   0.62736   0.08635   0.00000  Uiso   1.00
O188   O     0.22311   0.61706   0.04230   0.00000  Uiso   1.00
O189   O     0.17317   0.64867   0.09139   0.00000  Uiso   1.00
N190   N     0.31227   0.87135   0.22583   0.00000  Uiso   1.00
O191   O     0.30255   0.86231   0.27103   0.00000  Uiso   1.00
O192   O     0.35366   0.87324   0.21487   0.00000  Uiso   1.00
O193   O     0.68573   0.79071   0.16667   0.00000  Uiso   1.00
O194   O     0.81427   0.70928   0.16666   0.00000  Uiso   1.00
O195   O     0.81427   0.79071   0.16666   0.00000  Uiso   1.00
O196   O     0.68573   0.70928   0.16667   0.00000  Uiso   1.00
C197   C     0.66502   0.75001   0.16697   0.00000  Uiso   1.00
C198   C     0.83498   0.75001   0.16637   0.00000  Uiso   1.00
O199   O     0.75000   0.79071   0.09613   0.00000  Uiso   1.00
O200   O     0.75000   0.70929   0.23720   0.00000  Uiso   1.00
O201   O     0.75000   0.79071   0.23720   0.00000  Uiso   1.00
O202   O     0.75000   0.70929   0.09613   0.00000  Uiso   1.00
C203   C     0.76744   0.55332   0.20656   0.00000  Uiso   1.00
C204   C     0.71861   0.94616   0.13879   0.00000  Uiso   1.00
C205   C     0.73256   0.55333   0.12676   0.00000  Uiso   1.00
C206   C     0.78139   0.94616   0.19453   0.00000  Uiso   1.00
C207   C     0.74991   0.75000   0.07359   0.00000  Uiso   1.00
C208   C     0.75009   0.75000   0.25974   0.00000  Uiso   1.00
Cu209  Cu    0.75000   0.79821   0.16667   0.00000  Uiso   1.00
Cu210  Cu    0.75000   0.70178   0.16667   0.00000  Uiso   1.00
N211   N     0.75000   0.62934   0.16667   0.00000  Uiso   1.00
N212   N     0.75000   0.87065   0.16667   0.00000  Uiso   1.00
C213   C     0.75000   0.52692   0.16666   0.00000  Uiso   1.00
C214   C     0.75000   0.97258   0.16666   0.00000  Uiso   1.00
C215   C     0.74997   0.74998   0.02186   0.00000  Uiso   1.00
C216   C     0.75003   0.74998   0.31148   0.00000  Uiso   1.00
C217   C     0.54813   0.79130   0.18186   0.00000  Uiso   1.00
C218   C     0.95289   0.70937   0.18080   0.00000  Uiso   1.00
C219   C     0.95186   0.79130   0.15147   0.00000  Uiso   1.00
C220   C     0.54711   0.70936   0.15258   0.00000  Uiso   1.00
H221   H     0.53136   0.82313   0.19411   0.00000  Uiso   1.00
H222   H     0.97043   0.67761   0.19322   0.00000  Uiso   1.00
H223   H     0.96864   0.82311   0.13922   0.00000  Uiso   1.00
H224   H     0.52957   0.67759   0.14017   0.00000  Uiso   1.00
C225   C     0.59405   0.79116   0.18195   0.00000  Uiso   1.00
C226   C     0.90704   0.70899   0.17990   0.00000  Uiso   1.00
C227   C     0.90595   0.79115   0.15138   0.00000  Uiso   1.00
C228   C     0.59296   0.70899   0.15347   0.00000  Uiso   1.00
H229   H     0.61176   0.82295   0.19399   0.00000  Uiso   1.00
H230   H     0.89039   0.67670   0.19077   0.00000  Uiso   1.00
H231   H     0.88824   0.82293   0.13933   0.00000  Uiso   1.00
H232   H     0.60961   0.67669   0.14261   0.00000  Uiso   1.00
C233   C     0.61675   0.75005   0.16749   0.00000  Uiso   1.00
C234   C     0.88325   0.75005   0.16585   0.00000  Uiso   1.00
C235   C     0.52428   0.75047   0.16687   0.00000  Uiso   1.00
C236   C     0.97572   0.75047   0.16648   0.00000  Uiso   1.00
C237   C     0.76836   0.60381   0.20578   0.00000  Uiso   1.00
C238   C     0.71943   0.89571   0.13838   0.00000  Uiso   1.00
C239   C     0.73163   0.60382   0.12755   0.00000  Uiso   1.00
C240   C     0.78057   0.89571   0.19495   0.00000  Uiso   1.00
H241   H     0.78081   0.53513   0.23883   0.00000  Uiso   1.00
H242   H     0.69300   0.96420   0.11720   0.00000  Uiso   1.00
H243   H     0.71918   0.53514   0.09449   0.00000  Uiso   1.00
H244   H     0.80701   0.96420   0.21611   0.00000  Uiso   1.00
N245   N     0.78917   0.62734   0.24700   0.00000  Uiso   1.00
O246   O     0.77696   0.61693   0.29104   0.00000  Uiso   1.00
O247   O     0.82675   0.64877   0.24195   0.00000  Uiso   1.00
N248   N     0.68773   0.87135   0.10750   0.00000  Uiso   1.00
O249   O     0.69745   0.86231   0.06230   0.00000  Uiso   1.00
O250   O     0.64634   0.87324   0.11846   0.00000  Uiso   1.00
N251   N     0.71082   0.62736   0.08635   0.00000  Uiso   1.00
O252   O     0.72311   0.61706   0.04230   0.00000  Uiso   1.00
O253   O     0.67317   0.64867   0.09139   0.00000  Uiso   1.00
N254   N     0.81227   0.87135   0.22583   0.00000  Uiso   1.00
O255   O     0.80255   0.86231   0.27103   0.00000  Uiso   1.00
O256   O     0.85366   0.87324   0.21487   0.00000  Uiso   1.00
O257   O     0.18573   0.29071   0.50000   0.00000  Uiso   1.00
O258   O     0.31427   0.20928   0.50000   0.00000  Uiso   1.00
O259   O     0.31427   0.29071   0.50000   0.00000  Uiso   1.00
O260   O     0.18573   0.20928   0.50000   0.00000  Uiso   1.00
C261   C     0.16502   0.25001   0.50030   0.00000  Uiso   1.00
C262   C     0.33498   0.25001   0.49970   0.00000  Uiso   1.00
O263   O     0.25000   0.29071   0.42946   0.00000  Uiso   1.00
O264   O     0.25000   0.20929   0.57054   0.00000  Uiso   1.00
O265   O     0.25000   0.29071   0.57054   0.00000  Uiso   1.00
O266   O     0.25000   0.20929   0.42946   0.00000  Uiso   1.00
C267   C     0.26744   0.05332   0.53989   0.00000  Uiso   1.00
C268   C     0.21861   0.44616   0.47212   0.00000  Uiso   1.00
C269   C     0.23256   0.05333   0.46010   0.00000  Uiso   1.00
C270   C     0.28139   0.44616   0.52786   0.00000  Uiso   1.00
C271   C     0.24991   0.25000   0.40692   0.00000  Uiso   1.00
C272   C     0.25009   0.25000   0.59308   0.00000  Uiso   1.00
Cu273  Cu    0.25000   0.29821   0.50000   0.00000  Uiso   1.00
Cu274  Cu    0.25000   0.20178   0.50000   0.00000  Uiso   1.00
N275   N     0.25000   0.12934   0.50000   0.00000  Uiso   1.00
N276   N     0.25000   0.37065   0.50000   0.00000  Uiso   1.00
C277   C     0.25000   0.02692   0.49999   0.00000  Uiso   1.00
C278   C     0.25000   0.47258   0.49999   0.00000  Uiso   1.00
C279   C     0.24997   0.24998   0.35519   0.00000  Uiso   1.00
C280   C     0.25003   0.24998   0.64481   0.00000  Uiso   1.00
C281   C     0.04813   0.29130   0.51520   0.00000  Uiso   1.00
C282   C     0.45289   0.20937   0.51413   0.00000  Uiso   1.00
C283   C     0.45186   0.29130   0.48480   0.00000  Uiso   1.00
C284   C     0.04711   0.20936   0.48591   0.00000  Uiso   1.00
H285   H     0.03136   0.32313   0.52744   0.00000  Uiso   1.00
H286   H     0.47043   0.17761   0.52655   0.00000  Uiso   1.00
H287   H     0.46864   0.32311   0.47255   0.00000  Uiso   1.00
H288   H     0.02957   0.17759   0.47351   0.00000  Uiso   1.00
C289   C     0.09405   0.29116   0.51528   0.00000  Uiso   1.00
C290   C     0.40704   0.20899   0.51324   0.00000  Uiso   1.00
C291   C     0.40595   0.29115   0.48471   0.00000  Uiso   1.00
C292   C     0.09296   0.20899   0.48680   0.00000  Uiso   1.00
H293   H     0.11176   0.32295   0.52732   0.00000  Uiso   1.00
H294   H     0.39039   0.17670   0.52411   0.00000  Uiso   1.00
H295   H     0.38824   0.32293   0.47266   0.00000  Uiso   1.00
H296   H     0.10961   0.17669   0.47594   0.00000  Uiso   1.00
C297   C     0.11675   0.25005   0.50083   0.00000  Uiso   1.00
C298   C     0.38325   0.25005   0.49918   0.00000  Uiso   1.00
C299   C     0.02428   0.25047   0.50020   0.00000  Uiso   1.00
C300   C     0.47572   0.25047   0.49982   0.00000  Uiso   1.00
C301   C     0.26836   0.10381   0.53911   0.00000  Uiso   1.00
C302   C     0.21943   0.39571   0.47171   0.00000  Uiso   1.00
C303   C     0.23163   0.10382   0.46089   0.00000  Uiso   1.00
C304   C     0.28057   0.39571   0.52828   0.00000  Uiso   1.00
H305   H     0.28081   0.03513   0.57217   0.00000  Uiso   1.00
H306   H     0.19300   0.46420   0.45053   0.00000  Uiso   1.00
H307   H     0.21918   0.03514   0.42782   0.00000  Uiso   1.00
H308   H     0.30701   0.46420   0.54945   0.00000  Uiso   1.00
N309   N     0.28917   0.12734   0.58033   0.00000  Uiso   1.00
O310   O     0.27696   0.11693   0.62438   0.00000  Uiso   1.00
O311   O     0.32675   0.14877   0.57528   0.00000  Uiso   1.00
N312   N     0.18773   0.37135   0.44083   0.00000  Uiso   1.00
O313   O     0.19745   0.36231   0.39563   0.00000  Uiso   1.00
O314   O     0.14634   0.37324   0.45179   0.00000  Uiso   1.00
N315   N     0.21082   0.12736   0.41969   0.00000  Uiso   1.00
O316   O     0.22311   0.11706   0.37564   0.00000  Uiso   1.00
O317   O     0.17317   0.14867   0.42472   0.00000  Uiso   1.00
N318   N     0.31227   0.37135   0.55916   0.00000  Uiso   1.00
O319   O     0.30255   0.36231   0.60436   0.00000  Uiso   1.00
O320   O     0.35366   0.37324   0.54821   0.00000  Uiso   1.00
O321   O     0.68573   0.29071   0.50000   0.00000  Uiso   1.00
O322   O     0.81427   0.20928   0.50000   0.00000  Uiso   1.00
O323   O     0.81427   0.29071   0.50000   0.00000  Uiso   1.00
O324   O     0.68573   0.20928   0.50000   0.00000  Uiso   1.00
C325   C     0.66502   0.25001   0.50030   0.00000  Uiso   1.00
C326   C     0.83498   0.25001   0.49970   0.00000  Uiso   1.00
O327   O     0.75000   0.29071   0.42946   0.00000  Uiso   1.00
O328   O     0.75000   0.20929   0.57054   0.00000  Uiso   1.00
O329   O     0.75000   0.29071   0.57054   0.00000  Uiso   1.00
O330   O     0.75000   0.20929   0.42946   0.00000  Uiso   1.00
C331   C     0.76744   0.05332   0.53989   0.00000  Uiso   1.00
C332   C     0.71861   0.44616   0.47212   0.00000  Uiso   1.00
C333   C     0.73256   0.05333   0.46010   0.00000  Uiso   1.00
C334   C     0.78139   0.44616   0.52786   0.00000  Uiso   1.00
C335   C     0.74991   0.25000   0.40692   0.00000  Uiso   1.00
C336   C     0.75009   0.25000   0.59308   0.00000  Uiso   1.00
Cu337  Cu    0.75000   0.29821   0.50000   0.00000  Uiso   1.00
Cu338  Cu    0.75000   0.20178   0.50000   0.00000  Uiso   1.00
N339   N     0.75000   0.12934   0.50000   0.00000  Uiso   1.00
N340   N     0.75000   0.37065   0.50000   0.00000  Uiso   1.00
C341   C     0.75000   0.02692   0.49999   0.00000  Uiso   1.00
C342   C     0.75000   0.47258   0.49999   0.00000  Uiso   1.00
C343   C     0.74997   0.24998   0.35519   0.00000  Uiso   1.00
C344   C     0.75003   0.24998   0.64481   0.00000  Uiso   1.00
C345   C     0.54813   0.29130   0.51520   0.00000  Uiso   1.00
C346   C     0.95289   0.20937   0.51413   0.00000  Uiso   1.00
C347   C     0.95186   0.29130   0.48480   0.00000  Uiso   1.00
C348   C     0.54711   0.20936   0.48591   0.00000  Uiso   1.00
H349   H     0.53136   0.32313   0.52744   0.00000  Uiso   1.00
H350   H     0.97043   0.17761   0.52655   0.00000  Uiso   1.00
H351   H     0.96864   0.32311   0.47255   0.00000  Uiso   1.00
H352   H     0.52957   0.17759   0.47351   0.00000  Uiso   1.00
C353   C     0.59405   0.29116   0.51528   0.00000  Uiso   1.00
C354   C     0.90704   0.20899   0.51324   0.00000  Uiso   1.00
C355   C     0.90595   0.29115   0.48471   0.00000  Uiso   1.00
C356   C     0.59296   0.20899   0.48680   0.00000  Uiso   1.00
H357   H     0.61176   0.32295   0.52732   0.00000  Uiso   1.00
H358   H     0.89039   0.17670   0.52411   0.00000  Uiso   1.00
H359   H     0.88824   0.32293   0.47266   0.00000  Uiso   1.00
H360   H     0.60961   0.17669   0.47594   0.00000  Uiso   1.00
C361   C     0.61675   0.25005   0.50083   0.00000  Uiso   1.00
C362   C     0.88325   0.25005   0.49918   0.00000  Uiso   1.00
C363   C     0.52428   0.25047   0.50020   0.00000  Uiso   1.00
C364   C     0.97572   0.25047   0.49982   0.00000  Uiso   1.00
C365   C     0.76836   0.10381   0.53911   0.00000  Uiso   1.00
C366   C     0.71943   0.39571   0.47171   0.00000  Uiso   1.00
C367   C     0.73163   0.10382   0.46089   0.00000  Uiso   1.00
C368   C     0.78057   0.39571   0.52828   0.00000  Uiso   1.00
H369   H     0.78081   0.03513   0.57217   0.00000  Uiso   1.00
H370   H     0.69300   0.46420   0.45053   0.00000  Uiso   1.00
H371   H     0.71918   0.03514   0.42782   0.00000  Uiso   1.00
H372   H     0.80701   0.46420   0.54945   0.00000  Uiso   1.00
N373   N     0.78917   0.12734   0.58033   0.00000  Uiso   1.00
O374   O     0.77696   0.11693   0.62438   0.00000  Uiso   1.00
O375   O     0.82675   0.14877   0.57528   0.00000  Uiso   1.00
N376   N     0.68773   0.37135   0.44083   0.00000  Uiso   1.00
O377   O     0.69745   0.36231   0.39563   0.00000  Uiso   1.00
O378   O     0.64634   0.37324   0.45179   0.00000  Uiso   1.00
N379   N     0.71082   0.12736   0.41969   0.00000  Uiso   1.00
O380   O     0.72311   0.11706   0.37564   0.00000  Uiso   1.00
O381   O     0.67317   0.14867   0.42472   0.00000  Uiso   1.00
N382   N     0.81227   0.37135   0.55916   0.00000  Uiso   1.00
O383   O     0.80255   0.36231   0.60436   0.00000  Uiso   1.00
O384   O     0.85366   0.37324   0.54821   0.00000  Uiso   1.00
O385   O     0.18573   0.79071   0.50000   0.00000  Uiso   1.00
O386   O     0.31427   0.70928   0.50000   0.00000  Uiso   1.00
O387   O     0.31427   0.79071   0.50000   0.00000  Uiso   1.00
O388   O     0.18573   0.70928   0.50000   0.00000  Uiso   1.00
C389   C     0.16502   0.75001   0.50030   0.00000  Uiso   1.00
C390   C     0.33498   0.75001   0.49970   0.00000  Uiso   1.00
O391   O     0.25000   0.79071   0.42946   0.00000  Uiso   1.00
O392   O     0.25000   0.70929   0.57054   0.00000  Uiso   1.00
O393   O     0.25000   0.79071   0.57054   0.00000  Uiso   1.00
O394   O     0.25000   0.70929   0.42946   0.00000  Uiso   1.00
C395   C     0.26744   0.55332   0.53989   0.00000  Uiso   1.00
C396   C     0.21861   0.94616   0.47212   0.00000  Uiso   1.00
C397   C     0.23256   0.55333   0.46010   0.00000  Uiso   1.00
C398   C     0.28139   0.94616   0.52786   0.00000  Uiso   1.00
C399   C     0.24991   0.75000   0.40692   0.00000  Uiso   1.00
C400   C     0.25009   0.75000   0.59308   0.00000  Uiso   1.00
Cu401  Cu    0.25000   0.79821   0.50000   0.00000  Uiso   1.00
Cu402  Cu    0.25000   0.70178   0.50000   0.00000  Uiso   1.00
N403   N     0.25000   0.62934   0.50000   0.00000  Uiso   1.00
N404   N     0.25000   0.87065   0.50000   0.00000  Uiso   1.00
C405   C     0.25000   0.52692   0.49999   0.00000  Uiso   1.00
C406   C     0.25000   0.97258   0.49999   0.00000  Uiso   1.00
C407   C     0.24997   0.74998   0.35519   0.00000  Uiso   1.00
C408   C     0.25003   0.74998   0.64481   0.00000  Uiso   1.00
C409   C     0.04813   0.79130   0.51520   0.00000  Uiso   1.00
C410   C     0.45289   0.70937   0.51413   0.00000  Uiso   1.00
C411   C     0.45186   0.79130   0.48480   0.00000  Uiso   1.00
C412   C     0.04711   0.70936   0.48591   0.00000  Uiso   1.00
H413   H     0.03136   0.82313   0.52744   0.00000  Uiso   1.00
H414   H     0.47043   0.67761   0.52655   0.00000  Uiso   1.00
H415   H     0.46864   0.82311   0.47255   0.00000  Uiso   1.00
H416   H     0.02957   0.67759   0.47351   0.00000  Uiso   1.00
C417   C     0.09405   0.79116   0.51528   0.00000  Uiso   1.00
C418   C     0.40704   0.70899   0.51324   0.00000  Uiso   1.00
C419   C     0.40595   0.79115   0.48471   0.00000  Uiso   1.00
C420   C     0.09296   0.70899   0.48680   0.00000  Uiso   1.00
H421   H     0.11176   0.82295   0.52732   0.00000  Uiso   1.00
H422   H     0.39039   0.67670   0.52411   0.00000  Uiso   1.00
H423   H     0.38824   0.82293   0.47266   0.00000  Uiso   1.00
H424   H     0.10961   0.67669   0.47594   0.00000  Uiso   1.00
C425   C     0.11675   0.75005   0.50083   0.00000  Uiso   1.00
C426   C     0.38325   0.75005   0.49918   0.00000  Uiso   1.00
C427   C     0.02428   0.75047   0.50020   0.00000  Uiso   1.00
C428   C     0.47572   0.75047   0.49982   0.00000  Uiso   1.00
C429   C     0.26836   0.60381   0.53911   0.00000  Uiso   1.00
C430   C     0.21943   0.89571   0.47171   0.00000  Uiso   1.00
C431   C     0.23163   0.60382   0.46089   0.00000  Uiso   1.00
C432   C     0.28057   0.89571   0.52828   0.00000  Uiso   1.00
H433   H     0.28081   0.53513   0.57217   0.00000  Uiso   1.00
H434   H     0.19300   0.96420   0.45053   0.00000  Uiso   1.00
H435   H     0.21918   0.53514   0.42782   0.00000  Uiso   1.00
H436   H     0.30701   0.96420   0.54945   0.00000  Uiso   1.00
N437   N     0.28917   0.62734   0.58033   0.00000  Uiso   1.00
O438   O     0.27696   0.61693   0.62438   0.00000  Uiso   1.00
O439   O     0.32675   0.64877   0.57528   0.00000  Uiso   1.00
N440   N     0.18773   0.87135   0.44083   0.00000  Uiso   1.00
O441   O     0.19745   0.86231   0.39563   0.00000  Uiso   1.00
O442   O     0.14634   0.87324   0.45179   0.00000  Uiso   1.00
N443   N     0.21082   0.62736   0.41969   0.00000  Uiso   1.00
O444   O     0.22311   0.61706   0.37564   0.00000  Uiso   1.00
O445   O     0.17317   0.64867   0.42472   0.00000  Uiso   1.00
N446   N     0.31227   0.87135   0.55916   0.00000  Uiso   1.00
O447   O     0.30255   0.86231   0.60436   0.00000  Uiso   1.00
O448   O     0.35366   0.87324   0.54821   0.00000  Uiso   1.00
O449   O     0.68573   0.79071   0.50000   0.00000  Uiso   1.00
O450   O     0.81427   0.70928   0.50000   0.00000  Uiso   1.00
O451   O     0.81427   0.79071   0.50000   0.00000  Uiso   1.00
O452   O     0.68573   0.70928   0.50000   0.00000  Uiso   1.00
C453   C     0.66502   0.75001   0.50030   0.00000  Uiso   1.00
C454   C     0.83498   0.75001   0.49970   0.00000  Uiso   1.00
O455   O     0.75000   0.79071   0.42946   0.00000  Uiso   1.00
O456   O     0.75000   0.70929   0.57054   0.00000  Uiso   1.00
O457   O     0.75000   0.79071   0.57054   0.00000  Uiso   1.00
O458   O     0.75000   0.70929   0.42946   0.00000  Uiso   1.00
C459   C     0.76744   0.55332   0.53989   0.00000  Uiso   1.00
C460   C     0.71861   0.94616   0.47212   0.00000  Uiso   1.00
C461   C     0.73256   0.55333   0.46010   0.00000  Uiso   1.00
C462   C     0.78139   0.94616   0.52786   0.00000  Uiso   1.00
C463   C     0.74991   0.75000   0.40692   0.00000  Uiso   1.00
C464   C     0.75009   0.75000   0.59308   0.00000  Uiso   1.00
Cu465  Cu    0.75000   0.79821   0.50000   0.00000  Uiso   1.00
Cu466  Cu    0.75000   0.70178   0.50000   0.00000  Uiso   1.00
N467   N     0.75000   0.62934   0.50000   0.00000  Uiso   1.00
N468   N     0.75000   0.87065   0.50000   0.00000  Uiso   1.00
C469   C     0.75000   0.52692   0.49999   0.00000  Uiso   1.00
C470   C     0.75000   0.97258   0.49999   0.00000  Uiso   1.00
C471   C     0.74997   0.74998   0.35519   0.00000  Uiso   1.00
C472   C     0.75003   0.74998   0.64481   0.00000  Uiso   1.00
C473   C     0.54813   0.79130   0.51520   0.00000  Uiso   1.00
C474   C     0.95289   0.70937   0.51413   0.00000  Uiso   1.00
C475   C     0.95186   0.79130   0.48480   0.00000  Uiso   1.00
C476   C     0.54711   0.70936   0.48591   0.00000  Uiso   1.00
H477   H     0.53136   0.82313   0.52744   0.00000  Uiso   1.00
H478   H     0.97043   0.67761   0.52655   0.00000  Uiso   1.00
H479   H     0.96864   0.82311   0.47255   0.00000  Uiso   1.00
H480   H     0.52957   0.67759   0.47351   0.00000  Uiso   1.00
C481   C     0.59405   0.79116   0.51528   0.00000  Uiso   1.00
C482   C     0.90704   0.70899   0.51324   0.00000  Uiso   1.00
C483   C     0.90595   0.79115   0.48471   0.00000  Uiso   1.00
C484   C     0.59296   0.70899   0.48680   0.00000  Uiso   1.00
H485   H     0.61176   0.82295   0.52732   0.00000  Uiso   1.00
H486   H     0.89039   0.67670   0.52411   0.00000  Uiso   1.00
H487   H     0.88824   0.82293   0.47266   0.00000  Uiso   1.00
H488   H     0.60961   0.67669   0.47594   0.00000  Uiso   1.00
C489   C     0.61675   0.75005   0.50083   0.00000  Uiso   1.00
C490   C     0.88325   0.75005   0.49918   0.00000  Uiso   1.00
C491   C     0.52428   0.75047   0.50020   0.00000  Uiso   1.00
C492   C     0.97572   0.75047   0.49982   0.00000  Uiso   1.00
C493   C     0.76836   0.60381   0.53911   0.00000  Uiso   1.00
C494   C     0.71943   0.89571   0.47171   0.00000  Uiso   1.00
C495   C     0.73163   0.60382   0.46089   0.00000  Uiso   1.00
C496   C     0.78057   0.89571   0.52828   0.00000  Uiso   1.00
H497   H     0.78081   0.53513   0.57217   0.00000  Uiso   1.00
H498   H     0.69300   0.96420   0.45053   0.00000  Uiso   1.00
H499   H     0.71918   0.53514   0.42782   0.00000  Uiso   1.00
H500   H     0.80701   0.96420   0.54945   0.00000  Uiso   1.00
N501   N     0.78917   0.62734   0.58033   0.00000  Uiso   1.00
O502   O     0.77696   0.61693   0.62438   0.00000  Uiso   1.00
O503   O     0.82675   0.64877   0.57528   0.00000  Uiso   1.00
N504   N     0.68773   0.87135   0.44083   0.00000  Uiso   1.00
O505   O     0.69745   0.86231   0.39563   0.00000  Uiso   1.00
O506   O     0.64634   0.87324   0.45179   0.00000  Uiso   1.00
N507   N     0.71082   0.62736   0.41969   0.00000  Uiso   1.00
O508   O     0.72311   0.61706   0.37564   0.00000  Uiso   1.00
O509   O     0.67317   0.64867   0.42472   0.00000  Uiso   1.00
N510   N     0.81227   0.87135   0.55916   0.00000  Uiso   1.00
O511   O     0.80255   0.86231   0.60436   0.00000  Uiso   1.00
O512   O     0.85366   0.87324   0.54821   0.00000  Uiso   1.00
O513   O     0.18573   0.29071   0.83334   0.00000  Uiso   1.00
O514   O     0.31427   0.20928   0.83333   0.00000  Uiso   1.00
O515   O     0.31427   0.29071   0.83333   0.00000  Uiso   1.00
O516   O     0.18573   0.20928   0.83334   0.00000  Uiso   1.00
C517   C     0.16502   0.25001   0.83363   0.00000  Uiso   1.00
C518   C     0.33498   0.25001   0.83304   0.00000  Uiso   1.00
O519   O     0.25000   0.29071   0.76280   0.00000  Uiso   1.00
O520   O     0.25000   0.20929   0.90387   0.00000  Uiso   1.00
O521   O     0.25000   0.29071   0.90387   0.00000  Uiso   1.00
O522   O     0.25000   0.20929   0.76280   0.00000  Uiso   1.00
C523   C     0.26744   0.05332   0.87323   0.00000  Uiso   1.00
C524   C     0.21861   0.44616   0.80546   0.00000  Uiso   1.00
C525   C     0.23256   0.05333   0.79343   0.00000  Uiso   1.00
C526   C     0.28139   0.44616   0.86119   0.00000  Uiso   1.00
C527   C     0.24991   0.25000   0.74026   0.00000  Uiso   1.00
C528   C     0.25009   0.25000   0.92641   0.00000  Uiso   1.00
Cu529  Cu    0.25000   0.29821   0.83333   0.00000  Uiso   1.00
Cu530  Cu    0.25000   0.20178   0.83333   0.00000  Uiso   1.00
N531   N     0.25000   0.12934   0.83333   0.00000  Uiso   1.00
N532   N     0.25000   0.37065   0.83333   0.00000  Uiso   1.00
C533   C     0.25000   0.02692   0.83332   0.00000  Uiso   1.00
C534   C     0.25000   0.47258   0.83332   0.00000  Uiso   1.00
C535   C     0.24997   0.24998   0.68852   0.00000  Uiso   1.00
C536   C     0.25003   0.24998   0.97814   0.00000  Uiso   1.00
C537   C     0.04813   0.29130   0.84853   0.00000  Uiso   1.00
C538   C     0.45289   0.20937   0.84746   0.00000  Uiso   1.00
C539   C     0.45186   0.29130   0.81814   0.00000  Uiso   1.00
C540   C     0.04711   0.20936   0.81924   0.00000  Uiso   1.00
H541   H     0.03136   0.32313   0.86077   0.00000  Uiso   1.00
H542   H     0.47043   0.17761   0.85988   0.00000  Uiso   1.00
H543   H     0.46864   0.32311   0.80588   0.00000  Uiso   1.00
H544   H     0.02957   0.17759   0.80684   0.00000  Uiso   1.00
C545   C     0.09405   0.29116   0.84862   0.00000  Uiso   1.00
C546   C     0.40704   0.20899   0.84657   0.00000  Uiso   1.00
C547   C     0.40595   0.29115   0.81805   0.00000  Uiso   1.00
C548   C     0.09296   0.20899   0.82013   0.00000  Uiso   1.00
H549   H     0.11176   0.32295   0.86065   0.00000  Uiso   1.00
H550   H     0.39039   0.17670   0.85744   0.00000  Uiso   1.00
H551   H     0.38824   0.32293   0.80599   0.00000  Uiso   1.00
H552   H     0.10961   0.17669   0.80928   0.00000  Uiso   1.00
C553   C     0.11675   0.25005   0.83416   0.00000  Uiso   1.00
C554   C     0.38325   0.25005   0.83252   0.00000  Uiso   1.00
C555   C     0.02428   0.25047   0.83354   0.00000  Uiso   1.00
C556   C     0.47572   0.25047   0.83315   0.00000  Uiso   1.00
C557   C     0.26836   0.10381   0.87244   0.00000  Uiso   1.00
C558   C     0.21943   0.39571   0.80505   0.00000  Uiso   1.00
C559   C     0.23163   0.10382   0.79422   0.00000  Uiso   1.00
C560   C     0.28057   0.39571   0.86161   0.00000  Uiso   1.00
H561   H     0.28081   0.03513   0.90550   0.00000  Uiso   1.00
H562   H     0.19300   0.46420   0.78386   0.00000  Uiso   1.00
H563   H     0.21918   0.03514   0.76115   0.00000  Uiso   1.00
H564   H     0.30701   0.46420   0.88278   0.00000  Uiso   1.00
N565   N     0.28917   0.12734   0.91366   0.00000  Uiso   1.00
O566   O     0.27696   0.11693   0.95771   0.00000  Uiso   1.00
O567   O     0.32675   0.14877   0.90862   0.00000  Uiso   1.00
N568   N     0.18773   0.37135   0.77416   0.00000  Uiso   1.00
O569   O     0.19745   0.36231   0.72896   0.00000  Uiso   1.00
O570   O     0.14634   0.37324   0.78512   0.00000  Uiso   1.00
N571   N     0.21082   0.12736   0.75302   0.00000  Uiso   1.00
O572   O     0.22311   0.11706   0.70897   0.00000  Uiso   1.00
O573   O     0.17317   0.14867   0.75806   0.00000  Uiso   1.00
N574   N     0.31227   0.37135   0.89250   0.00000  Uiso   1.00
O575   O     0.30255   0.36231   0.93770   0.00000  Uiso   1.00
O576   O     0.35366   0.37324   0.88154   0.00000  Uiso   1.00
O577   O     0.68573   0.29071   0.83334   0.00000  Uiso   1.00
O578   O     0.81427   0.20928   0.83333   0.00000  Uiso   1.00
O579   O     0.81427   0.29071   0.83333   0.00000  Uiso   1.00
O580   O     0.68573   0.20928   0.83334   0.00000  Uiso   1.00
C581   C     0.66502   0.25001   0.83363   0.00000  Uiso   1.00
C582   C     0.83498   0.25001   0.83304   0.00000  Uiso   1.00
O583   O     0.75000   0.29071   0.76280   0.00000  Uiso   1.00
O584   O     0.75000   0.20929   0.90387   0.00000  Uiso   1.00
O585   O     0.75000   0.29071   0.90387   0.00000  Uiso   1.00
O586   O     0.75000   0.20929   0.76280   0.00000  Uiso   1.00
C587   C     0.76744   0.05332   0.87323   0.00000  Uiso   1.00
C588   C     0.71861   0.44616   0.80546   0.00000  Uiso   1.00
C589   C     0.73256   0.05333   0.79343   0.00000  Uiso   1.00
C590   C     0.78139   0.44616   0.86119   0.00000  Uiso   1.00
C591   C     0.74991   0.25000   0.74026   0.00000  Uiso   1.00
C592   C     0.75009   0.25000   0.92641   0.00000  Uiso   1.00
Cu593  Cu    0.75000   0.29821   0.83333   0.00000  Uiso   1.00
Cu594  Cu    0.75000   0.20178   0.83333   0.00000  Uiso   1.00
N595   N     0.75000   0.12934   0.83333   0.00000  Uiso   1.00
N596   N     0.75000   0.37065   0.83333   0.00000  Uiso   1.00
C597   C     0.75000   0.02692   0.83332   0.00000  Uiso   1.00
C598   C     0.75000   0.47258   0.83332   0.00000  Uiso   1.00
C599   C     0.74997   0.24998   0.68852   0.00000  Uiso   1.00
C600   C     0.75003   0.24998   0.97814   0.00000  Uiso   1.00
C601   C     0.54813   0.29130   0.84853   0.00000  Uiso   1.00
C602   C     0.95289   0.20937   0.84746   0.00000  Uiso   1.00
C603   C     0.95186   0.29130   0.81814   0.00000  Uiso   1.00
C604   C     0.54711   0.20936   0.81924   0.00000  Uiso   1.00
H605   H     0.53136   0.32313   0.86077   0.00000  Uiso   1.00
H606   H     0.97043   0.17761   0.85988   0.00000  Uiso   1.00
H607   H     0.96864   0.32311   0.80588   0.00000  Uiso   1.00
H608   H     0.52957   0.17759   0.80684   0.00000  Uiso   1.00
C609   C     0.59405   0.29116   0.84862   0.00000  Uiso   1.00
C610   C     0.90704   0.20899   0.84657   0.00000  Uiso   1.00
C611   C     0.90595   0.29115   0.81805   0.00000  Uiso   1.00
C612   C     0.59296   0.20899   0.82013   0.00000  Uiso   1.00
H613   H     0.61176   0.32295   0.86065   0.00000  Uiso   1.00
H614   H     0.89039   0.17670   0.85744   0.00000  Uiso   1.00
H615   H     0.88824   0.32293   0.80599   0.00000  Uiso   1.00
H616   H     0.60961   0.17669   0.80928   0.00000  Uiso   1.00
C617   C     0.61675   0.25005   0.83416   0.00000  Uiso   1.00
C618   C     0.88325   0.25005   0.83252   0.00000  Uiso   1.00
C619   C     0.52428   0.25047   0.83354   0.00000  Uiso   1.00
C620   C     0.97572   0.25047   0.83315   0.00000  Uiso   1.00
C621   C     0.76836   0.10381   0.87244   0.00000  Uiso   1.00
C622   C     0.71943   0.39571   0.80505   0.00000  Uiso   1.00
C623   C     0.73163   0.10382   0.79422   0.00000  Uiso   1.00
C624   C     0.78057   0.39571   0.86161   0.00000  Uiso   1.00
H625   H     0.78081   0.03513   0.90550   0.00000  Uiso   1.00
H626   H     0.69300   0.46420   0.78386   0.00000  Uiso   1.00
H627   H     0.71918   0.03514   0.76115   0.00000  Uiso   1.00
H628   H     0.80701   0.46420   0.88278   0.00000  Uiso   1.00
N629   N     0.78917   0.12734   0.91366   0.00000  Uiso   1.00
O630   O     0.77696   0.11693   0.95771   0.00000  Uiso   1.00
O631   O     0.82675   0.14877   0.90862   0.00000  Uiso   1.00
N632   N     0.68773   0.37135   0.77416   0.00000  Uiso   1.00
O633   O     0.69745   0.36231   0.72896   0.00000  Uiso   1.00
O634   O     0.64634   0.37324   0.78512   0.00000  Uiso   1.00
N635   N     0.71082   0.12736   0.75302   0.00000  Uiso   1.00
O636   O     0.72311   0.11706   0.70897   0.00000  Uiso   1.00
O637   O     0.67317   0.14867   0.75806   0.00000  Uiso   1.00
N638   N     0.81227   0.37135   0.89250   0.00000  Uiso   1.00
O639   O     0.80255   0.36231   0.93770   0.00000  Uiso   1.00
O640   O     0.85366   0.37324   0.88154   0.00000  Uiso   1.00
O641   O     0.18573   0.79071   0.83334   0.00000  Uiso   1.00
O642   O     0.31427   0.70928   0.83333   0.00000  Uiso   1.00
O643   O     0.31427   0.79071   0.83333   0.00000  Uiso   1.00
O644   O     0.18573   0.70928   0.83334   0.00000  Uiso   1.00
C645   C     0.16502   0.75001   0.83363   0.00000  Uiso   1.00
C646   C     0.33498   0.75001   0.83304   0.00000  Uiso   1.00
O647   O     0.25000   0.79071   0.76280   0.00000  Uiso   1.00
O648   O     0.25000   0.70929   0.90387   0.00000  Uiso   1.00
O649   O     0.25000   0.79071   0.90387   0.00000  Uiso   1.00
O650   O     0.25000   0.70929   0.76280   0.00000  Uiso   1.00
C651   C     0.26744   0.55332   0.87323   0.00000  Uiso   1.00
C652   C     0.21861   0.94616   0.80546   0.00000  Uiso   1.00
C653   C     0.23256   0.55333   0.79343   0.00000  Uiso   1.00
C654   C     0.28139   0.94616   0.86119   0.00000  Uiso   1.00
C655   C     0.24991   0.75000   0.74026   0.00000  Uiso   1.00
C656   C     0.25009   0.75000   0.92641   0.00000  Uiso   1.00
Cu657  Cu    0.25000   0.79821   0.83333   0.00000  Uiso   1.00
Cu658  Cu    0.25000   0.70178   0.83333   0.00000  Uiso   1.00
N659   N     0.25000   0.62934   0.83333   0.00000  Uiso   1.00
N660   N     0.25000   0.87065   0.83333   0.00000  Uiso   1.00
C661   C     0.25000   0.52692   0.83332   0.00000  Uiso   1.00
C662   C     0.25000   0.97258   0.83332   0.00000  Uiso   1.00
C663   C     0.24997   0.74998   0.68852   0.00000  Uiso   1.00
C664   C     0.25003   0.74998   0.97814   0.00000  Uiso   1.00
C665   C     0.04813   0.79130   0.84853   0.00000  Uiso   1.00
C666   C     0.45289   0.70937   0.84746   0.00000  Uiso   1.00
C667   C     0.45186   0.79130   0.81814   0.00000  Uiso   1.00
C668   C     0.04711   0.70936   0.81924   0.00000  Uiso   1.00
H669   H     0.03136   0.82313   0.86077   0.00000  Uiso   1.00
H670   H     0.47043   0.67761   0.85988   0.00000  Uiso   1.00
H671   H     0.46864   0.82311   0.80588   0.00000  Uiso   1.00
H672   H     0.02957   0.67759   0.80684   0.00000  Uiso   1.00
C673   C     0.09405   0.79116   0.84862   0.00000  Uiso   1.00
C674   C     0.40704   0.70899   0.84657   0.00000  Uiso   1.00
C675   C     0.40595   0.79115   0.81805   0.00000  Uiso   1.00
C676   C     0.09296   0.70899   0.82013   0.00000  Uiso   1.00
H677   H     0.11176   0.82295   0.86065   0.00000  Uiso   1.00
H678   H     0.39039   0.67670   0.85744   0.00000  Uiso   1.00
H679   H     0.38824   0.82293   0.80599   0.00000  Uiso   1.00
H680   H     0.10961   0.67669   0.80928   0.00000  Uiso   1.00
C681   C     0.11675   0.75005   0.83416   0.00000  Uiso   1.00
C682   C     0.38325   0.75005   0.83252   0.00000  Uiso   1.00
C683   C     0.02428   0.75047   0.83354   0.00000  Uiso   1.00
C684   C     0.47572   0.75047   0.83315   0.00000  Uiso   1.00
C685   C     0.26836   0.60381   0.87244   0.00000  Uiso   1.00
C686   C     0.21943   0.89571   0.80505   0.00000  Uiso   1.00
C687   C     0.23163   0.60382   0.79422   0.00000  Uiso   1.00
C688   C     0.28057   0.89571   0.86161   0.00000  Uiso   1.00
H689   H     0.28081   0.53513   0.90550   0.00000  Uiso   1.00
H690   H     0.19300   0.96420   0.78386   0.00000  Uiso   1.00
H691   H     0.21918   0.53514   0.76115   0.00000  Uiso   1.00
H692   H     0.30701   0.96420   0.88278   0.00000  Uiso   1.00
N693   N     0.28917   0.62734   0.91366   0.00000  Uiso   1.00
O694   O     0.27696   0.61693   0.95771   0.00000  Uiso   1.00
O695   O     0.32675   0.64877   0.90862   0.00000  Uiso   1.00
N696   N     0.18773   0.87135   0.77416   0.00000  Uiso   1.00
O697   O     0.19745   0.86231   0.72896   0.00000  Uiso   1.00
O698   O     0.14634   0.87324   0.78512   0.00000  Uiso   1.00
N699   N     0.21082   0.62736   0.75302   0.00000  Uiso   1.00
O700   O     0.22311   0.61706   0.70897   0.00000  Uiso   1.00
O701   O     0.17317   0.64867   0.75806   0.00000  Uiso   1.00
N702   N     0.31227   0.87135   0.89250   0.00000  Uiso   1.00
O703   O     0.30255   0.86231   0.93770   0.00000  Uiso   1.00
O704   O     0.35366   0.87324   0.88154   0.00000  Uiso   1.00
O705   O     0.68573   0.79071   0.83334   0.00000  Uiso   1.00
O706   O     0.81427   0.70928   0.83333   0.00000  Uiso   1.00
O707   O     0.81427   0.79071   0.83333   0.00000  Uiso   1.00
O708   O     0.68573   0.70928   0.83334   0.00000  Uiso   1.00
C709   C     0.66502   0.75001   0.83363   0.00000  Uiso   1.00
C710   C     0.83498   0.75001   0.83304   0.00000  Uiso   1.00
O711   O     0.75000   0.79071   0.76280   0.00000  Uiso   1.00
O712   O     0.75000   0.70929   0.90387   0.00000  Uiso   1.00
O713   O     0.75000   0.79071   0.90387   0.00000  Uiso   1.00
O714   O     0.75000   0.70929   0.76280   0.00000  Uiso   1.00
C715   C     0.76744   0.55332   0.87323   0.00000  Uiso   1.00
C716   C     0.71861   0.94616   0.80546   0.00000  Uiso   1.00
C717   C     0.73256   0.55333   0.79343   0.00000  Uiso   1.00
C718   C     0.78139   0.94616   0.86119   0.00000  Uiso   1.00
C719   C     0.74991   0.75000   0.74026   0.00000  Uiso   1.00
C720   C     0.75009   0.75000   0.92641   0.00000  Uiso   1.00
Cu721  Cu    0.75000   0.79821   0.83333   0.00000  Uiso   1.00
Cu722  Cu    0.75000   0.70178   0.83333   0.00000  Uiso   1.00
N723   N     0.75000   0.62934   0.83333   0.00000  Uiso   1.00
N724   N     0.75000   0.87065   0.83333   0.00000  Uiso   1.00
C725   C     0.75000   0.52692   0.83332   0.00000  Uiso   1.00
C726   C     0.75000   0.97258   0.83332   0.00000  Uiso   1.00
C727   C     0.74997   0.74998   0.68852   0.00000  Uiso   1.00
C728   C     0.75003   0.74998   0.97814   0.00000  Uiso   1.00
C729   C     0.54813   0.79130   0.84853   0.00000  Uiso   1.00
C730   C     0.95289   0.70937   0.84746   0.00000  Uiso   1.00
C731   C     0.95186   0.79130   0.81814   0.00000  Uiso   1.00
C732   C     0.54711   0.70936   0.81924   0.00000  Uiso   1.00
H733   H     0.53136   0.82313   0.86077   0.00000  Uiso   1.00
H734   H     0.97043   0.67761   0.85988   0.00000  Uiso   1.00
H735   H     0.96864   0.82311   0.80588   0.00000  Uiso   1.00
H736   H     0.52957   0.67759   0.80684   0.00000  Uiso   1.00
C737   C     0.59405   0.79116   0.84862   0.00000  Uiso   1.00
C738   C     0.90704   0.70899   0.84657   0.00000  Uiso   1.00
C739   C     0.90595   0.79115   0.81805   0.00000  Uiso   1.00
C740   C     0.59296   0.70899   0.82013   0.00000  Uiso   1.00
H741   H     0.61176   0.82295   0.86065   0.00000  Uiso   1.00
H742   H     0.89039   0.67670   0.85744   0.00000  Uiso   1.00
H743   H     0.88824   0.82293   0.80599   0.00000  Uiso   1.00
H744   H     0.60961   0.67669   0.80928   0.00000  Uiso   1.00
C745   C     0.61675   0.75005   0.83416   0.00000  Uiso   1.00
C746   C     0.88325   0.75005   0.83252   0.00000  Uiso   1.00
C747   C     0.52428   0.75047   0.83354   0.00000  Uiso   1.00
C748   C     0.97572   0.75047   0.83315   0.00000  Uiso   1.00
C749   C     0.76836   0.60381   0.87244   0.00000  Uiso   1.00
C750   C     0.71943   0.89571   0.80505   0.00000  Uiso   1.00
C751   C     0.73163   0.60382   0.79422   0.00000  Uiso   1.00
C752   C     0.78057   0.89571   0.86161   0.00000  Uiso   1.00
H753   H     0.78081   0.53513   0.90550   0.00000  Uiso   1.00
H754   H     0.69300   0.96420   0.78386   0.00000  Uiso   1.00
H755   H     0.71918   0.53514   0.76115   0.00000  Uiso   1.00
H756   H     0.80701   0.96420   0.88278   0.00000  Uiso   1.00
N757   N     0.78917   0.62734   0.91366   0.00000  Uiso   1.00
O758   O     0.77696   0.61693   0.95771   0.00000  Uiso   1.00
O759   O     0.82675   0.64877   0.90862   0.00000  Uiso   1.00
N760   N     0.68773   0.87135   0.77416   0.00000  Uiso   1.00
O761   O     0.69745   0.86231   0.72896   0.00000  Uiso   1.00
O762   O     0.64634   0.87324   0.78512   0.00000  Uiso   1.00
N763   N     0.71082   0.62736   0.75302   0.00000  Uiso   1.00
O764   O     0.72311   0.61706   0.70897   0.00000  Uiso   1.00
O765   O     0.67317   0.64867   0.75806   0.00000  Uiso   1.00
N766   N     0.81227   0.87135   0.89250   0.00000  Uiso   1.00
O767   O     0.80255   0.86231   0.93770   0.00000  Uiso   1.00
O768   O     0.85366   0.87324   0.88154   0.00000  Uiso   1.00
loop_
_geom_bond_atom_site_label_1
_geom_bond_atom_site_label_2
_geom_bond_distance
_geom_bond_site_symmetry_2
_ccdc_geom_bond_type
O1     C5      1.299   .     A
O1     Cu17    1.959   .     S
O2     Cu18    1.959   .     S
O2     C6      1.300   .     A
O3     C6      1.299   .     A
O3     Cu17    1.959   .     S
O4     Cu18    1.959   .     S
O4     C5      1.300   .     A
C5     C41     1.463   .     S
C6     C42     1.463   .     S
O7     C15     1.293   .     A
O7     Cu17    1.932   .     S
O8     C16     1.293   .     A
O8     Cu18    1.932   .     S
O9     C16     1.293   .     A
O9     Cu17    1.932   .     S
O10    Cu18    1.932   .     S
O10    C15     1.293   .     A
C11    H49     1.082   .     S
C11    C45     1.412   .     A
C11    C21     1.401   .     A
C12    H50     1.082   .     S
C12    C22     1.405   .     A
C12    C46     1.410   .     A
C13    H51     1.082   .     S
C13    C21     1.401   .     A
C13    C47     1.412   .     A
C14    C22     1.405   .     A
C14    C48     1.410   .     A
C14    H52     1.082   .     S
C15    C23     1.409   .     S
C16    C24     1.409   .     S
Cu17   Cu18    2.695   .     S
Cu17   N20     2.025   .     S
Cu18   N19     2.025   .     S
N19    C45     1.382   .     A
N19    C47     1.382   .     A
N20    C48     1.375   .     A
N20    C46     1.375   .     A
C21    C150    1.519   1_545 S
C22    C149    1.519   .     S
C23    C536    1.190   1_554 S
C24    C279    1.190   .     S
C25    C43     1.404   .     A
C25    H29     1.083   .     S
C25    C33     1.391   .     A
C26    H30     1.083   .     S
C26    C34     1.389   .     A
C26    C44     1.403   .     A
C27    H31     1.083   .     S
C27    C35     1.391   .     A
C27    C44     1.404   .     A
C28    C43     1.403   .     A
C28    H32     1.083   .     S
C28    C36     1.389   .     A
C33    H37     1.083   .     S
C33    C41     1.402   .     A
C34    C42     1.401   .     A
C34    H38     1.080   .     S
C35    H39     1.083   .     S
C35    C42     1.402   .     A
C36    H40     1.080   .     S
C36    C41     1.401   .     A
C43    C108    1.471   1_455 S
C44    C107    1.471   .     S
C45    N53     1.428   .     S
C46    N56     1.427   .     S
C47    N59     1.428   .     S
C48    N62     1.427   .     S
N53    O54     1.300   .     A
N53    O55     1.298   .     A
N56    O58     1.300   .     A
N56    O57     1.300   .     A
N59    O60     1.300   .     A
N59    O61     1.298   .     A
N62    O63     1.300   .     A
N62    O64     1.300   .     A
O65    C69     1.299   .     A
O65    Cu81    1.959   .     S
O66    Cu82    1.959   .     S
O66    C70     1.300   .     A
O67    C70     1.299   .     A
O67    Cu81    1.959   .     S
O68    Cu82    1.959   .     S
O68    C69     1.300   .     A
C69    C105    1.463   .     S
C70    C106    1.463   .     S
O71    C79     1.293   .     A
O71    Cu81    1.932   .     S
O72    C80     1.293   .     A
O72    Cu82    1.932   .     S
O73    C80     1.293   .     A
O73    Cu81    1.932   .     S
O74    Cu82    1.932   .     S
O74    C79     1.293   .     A
C75    H113    1.082   .     S
C75    C109    1.412   .     A
C75    C85     1.401   .     A
C76    H114    1.082   .     S
C76    C86     1.405   .     A
C76    C110    1.410   .     A
C77    H115    1.082   .     S
C77    C85     1.401   .     A
C77    C111    1.412   .     A
C78    C86     1.405   .     A
C78    C112    1.410   .     A
C78    H116    1.082   .     S
C79    C87     1.409   .     S
C80    C88     1.409   .     S
Cu81   Cu82    2.695   .     S
Cu81   N84     2.025   .     S
Cu82   N83     2.025   .     S
N83    C109    1.382   .     A
N83    C111    1.382   .     A
N84    C112    1.375   .     A
N84    C110    1.375   .     A
C85    C214    1.519   1_545 S
C86    C213    1.519   .     S
C87    C600    1.190   1_554 S
C88    C343    1.190   .     S
C89    C107    1.404   .     A
C89    H93     1.083   .     S
C89    C97     1.391   .     A
C90    H94     1.083   .     S
C90    C98     1.389   .     A
C90    C108    1.403   .     A
C91    H95     1.083   .     S
C91    C99     1.391   .     A
C91    C108    1.404   .     A
C92    C107    1.403   .     A
C92    H96     1.083   .     S
C92    C100    1.389   .     A
C97    H101    1.083   .     S
C97    C105    1.402   .     A
C98    C106    1.401   .     A
C98    H102    1.080   .     S
C99    H103    1.083   .     S
C99    C106    1.402   .     A
C100   H104    1.080   .     S
C100   C105    1.401   .     A
C108   C43     1.471   1_655 S
C109   N117    1.428   .     S
C110   N120    1.427   .     S
C111   N123    1.428   .     S
C112   N126    1.427   .     S
N117   O118    1.300   .     A
N117   O119    1.298   .     A
N120   O122    1.300   .     A
N120   O121    1.300   .     A
N123   O124    1.300   .     A
N123   O125    1.298   .     A
N126   O127    1.300   .     A
N126   O128    1.300   .     A
O129   C133    1.299   .     A
O129   Cu145   1.959   .     S
O130   Cu146   1.959   .     S
O130   C134    1.300   .     A
O131   C134    1.299   .     A
O131   Cu145   1.959   .     S
O132   Cu146   1.959   .     S
O132   C133    1.300   .     A
C133   C169    1.463   .     S
C134   C170    1.463   .     S
O135   C143    1.293   .     A
O135   Cu145   1.932   .     S
O136   C144    1.293   .     A
O136   Cu146   1.932   .     S
O137   C144    1.293   .     A
O137   Cu145   1.932   .     S
O138   Cu146   1.932   .     S
O138   C143    1.293   .     A
C139   H177    1.082   .     S
C139   C173    1.412   .     A
C139   C149    1.401   .     A
C140   H178    1.082   .     S
C140   C150    1.405   .     A
C140   C174    1.410   .     A
C141   H179    1.082   .     S
C141   C149    1.401   .     A
C141   C175    1.412   .     A
C142   C150    1.405   .     A
C142   C176    1.410   .     A
C142   H180    1.082   .     S
C143   C151    1.409   .     S
C144   C152    1.409   .     S
Cu145  Cu146   2.695   .     S
Cu145  N148    2.025   .     S
Cu146  N147    2.025   .     S
N147   C173    1.382   .     A
N147   C175    1.382   .     A
N148   C176    1.375   .     A
N148   C174    1.375   .     A
C150   C21     1.519   1_565 S
C151   C664    1.190   1_554 S
C152   C407    1.190   .     S
C153   C171    1.404   .     A
C153   H157    1.083   .     S
C153   C161    1.391   .     A
C154   H158    1.083   .     S
C154   C162    1.389   .     A
C154   C172    1.403   .     A
C155   H159    1.083   .     S
C155   C163    1.391   .     A
C155   C172    1.404   .     A
C156   C171    1.403   .     A
C156   H160    1.083   .     S
C156   C164    1.389   .     A
C161   H165    1.083   .     S
C161   C169    1.402   .     A
C162   C170    1.401   .     A
C162   H166    1.080   .     S
C163   H167    1.083   .     S
C163   C170    1.402   .     A
C164   H168    1.080   .     S
C164   C169    1.401   .     A
C171   C236    1.471   1_455 S
C172   C235    1.471   .     S
C173   N181    1.428   .     S
C174   N184    1.427   .     S
C175   N187    1.428   .     S
C176   N190    1.427   .     S
N181   O182    1.300   .     A
N181   O183    1.298   .     A
N184   O186    1.300   .     A
N184   O185    1.300   .     A
N187   O188    1.300   .     A
N187   O189    1.298   .     A
N190   O191    1.300   .     A
N190   O192    1.300   .     A
O193   C197    1.299   .     A
O193   Cu209   1.959   .     S
O194   Cu210   1.959   .     S
O194   C198    1.300   .     A
O195   C198    1.299   .     A
O195   Cu209   1.959   .     S
O196   Cu210   1.959   .     S
O196   C197    1.300   .     A
C197   C233    1.463   .     S
C198   C234    1.463   .     S
O199   C207    1.293   .     A
O199   Cu209   1.932   .     S
O200   C208    1.293   .     A
O200   Cu210   1.932   .     S
O201   C208    1.293   .     A
O201   Cu209   1.932   .     S
O202   Cu210   1.932   .     S
O202   C207    1.293   .     A
C203   H241    1.082   .     S
C203   C237    1.412   .     A
C203   C213    1.401   .     A
C204   H242    1.082   .     S
C204   C214    1.405   .     A
C204   C238    1.410   .     A
C205   H243    1.082   .     S
C205   C213    1.401   .     A
C205   C239    1.412   .     A
C206   C214    1.405   .     A
C206   C240    1.410   .     A
C206   H244    1.082   .     S
C207   C215    1.409   .     S
C208   C216    1.409   .     S
Cu209  Cu210   2.695   .     S
Cu209  N212    2.025   .     S
Cu210  N211    2.025   .     S
N211   C237    1.382   .     A
N211   C239    1.382   .     A
N212   C240    1.375   .     A
N212   C238    1.375   .     A
C214   C85     1.519   1_565 S
C215   C728    1.190   1_554 S
C216   C471    1.190   .     S
C217   C235    1.404   .     A
C217   H221    1.083   .     S
C217   C225    1.391   .     A
C218   H222    1.083   .     S
C218   C226    1.389   .     A
C218   C236    1.403   .     A
C219   H223    1.083   .     S
C219   C227    1.391   .     A
C219   C236    1.404   .     A
C220   C235    1.403   .     A
C220   H224    1.083   .     S
C220   C228    1.389   .     A
C225   H229    1.083   .     S
C225   C233    1.402   .     A
C226   C234    1.401   .     A
C226   H230    1.080   .     S
C227   H231    1.083   .     S
C227   C234    1.402   .     A
C228   H232    1.080   .     S
C228   C233    1.401   .     A
C236   C171    1.471   1_655 S
C237   N245    1.428   .     S
C238   N248    1.427   .     S
C239   N251    1.428   .     S
C240   N254    1.427   .     S
N245   O246    1.300   .     A
N245   O247    1.298   .     A
N248   O250    1.300   .     A
N248   O249    1.300   .     A
N251   O252    1.300   .     A
N251   O253    1.298   .     A
N254   O255    1.300   .     A
N254   O256    1.300   .     A
O257   C261    1.299   .     A
O257   Cu273   1.959   .     S
O258   Cu274   1.959   .     S
O258   C262    1.300   .     A
O259   C262    1.299   .     A
O259   Cu273   1.959   .     S
O260   Cu274   1.959   .     S
O260   C261    1.300   .     A
C261   C297    1.463   .     S
C262   C298    1.463   .     S
O263   C271    1.293   .     A
O263   Cu273   1.932   .     S
O264   C272    1.293   .     A
O264   Cu274   1.932   .     S
O265   C272    1.293   .     A
O265   Cu273   1.932   .     S
O266   Cu274   1.932   .     S
O266   C271    1.293   .     A
C267   H305    1.082   .     S
C267   C301    1.412   .     A
C267   C277    1.401   .     A
C268   H306    1.082   .     S
C268   C278    1.405   .     A
C268   C302    1.410   .     A
C269   H307    1.082   .     S
C269   C277    1.401   .     A
C269   C303    1.412   .     A
C270   C278    1.405   .     A
C270   C304    1.410   .     A
C270   H308    1.082   .     S
C271   C279    1.409   .     S
C272   C280    1.409   .     S
Cu273  Cu274   2.695   .     S
Cu273  N276    2.025   .     S
Cu274  N275    2.025   .     S
N275   C301    1.382   .     A
N275   C303    1.382   .     A
N276   C304    1.375   .     A
N276   C302    1.375   .     A
C277   C406    1.519   1_545 S
C278   C405    1.519   .     S
C280   C535    1.190   .     S
C281   C299    1.404   .     A
C281   H285    1.083   .     S
C281   C289    1.391   .     A
C282   H286    1.083   .     S
C282   C290    1.389   .     A
C282   C300    1.403   .     A
C283   H287    1.083   .     S
C283   C291    1.391   .     A
C283   C300    1.404   .     A
C284   C299    1.403   .     A
C284   H288    1.083   .     S
C284   C292    1.389   .     A
C289   H293    1.083   .     S
C289   C297    1.402   .     A
C290   C298    1.401   .     A
C290   H294    1.080   .     S
C291   H295    1.083   .     S
C291   C298    1.402   .     A
C292   H296    1.080   .     S
C292   C297    1.401   .     A
C299   C364    1.471   1_455 S
C300   C363    1.471   .     S
C301   N309    1.428   .     S
C302   N312    1.427   .     S
C303   N315    1.428   .     S
C304   N318    1.427   .     S
N309   O310    1.300   .     A
N309   O311    1.298   .     A
N312   O314    1.300   .     A
N312   O313    1.300   .     A
N315   O316    1.300   .     A
N315   O317    1.298   .     A
N318   O319    1.300   .     A
N318   O320    1.300   .     A
O321   C325    1.299   .     A
O321   Cu337   1.959   .     S
O322   Cu338   1.959   .     S
O322   C326    1.300   .     A
O323   C326    1.299   .     A
O323   Cu337   1.959   .     S
O324   Cu338   1.959   .     S
O324   C325    1.300   .     A
C325   C361    1.463   .     S
C326   C362    1.463   .     S
O327   C335    1.293   .     A
O327   Cu337   1.932   .     S
O328   C336    1.293   .     A
O328   Cu338   1.932   .     S
O329   C336    1.293   .     A
O329   Cu337   1.932   .     S
O330   Cu338   1.932   .     S
O330   C335    1.293   .     A
C331   H369    1.082   .     S
C331   C365    1.412   .     A
C331   C341    1.401   .     A
C332   H370    1.082   .     S
C332   C342    1.405   .     A
C332   C366    1.410   .     A
C333   H371    1.082   .     S
C333   C341    1.401   .     A
C333   C367    1.412   .     A
C334   C342    1.405   .     A
C334   C368    1.410   .     A
C334   H372    1.082   .     S
C335   C343    1.409   .     S
C336   C344    1.409   .     S
Cu337  Cu338   2.695   .     S
Cu337  N340    2.025   .     S
Cu338  N339    2.025   .     S
N339   C365    1.382   .     A
N339   C367    1.382   .     A
N340   C368    1.375   .     A
N340   C366    1.375   .     A
C341   C470    1.519   1_545 S
C342   C469    1.519   .     S
C344   C599    1.190   .     S
C345   C363    1.404   .     A
C345   H349    1.083   .     S
C345   C353    1.391   .     A
C346   H350    1.083   .     S
C346   C354    1.389   .     A
C346   C364    1.403   .     A
C347   H351    1.083   .     S
C347   C355    1.391   .     A
C347   C364    1.404   .     A
C348   C363    1.403   .     A
C348   H352    1.083   .     S
C348   C356    1.389   .     A
C353   H357    1.083   .     S
C353   C361    1.402   .     A
C354   C362    1.401   .     A
C354   H358    1.080   .     S
C355   H359    1.083   .     S
C355   C362    1.402   .     A
C356   H360    1.080   .     S
C356   C361    1.401   .     A
C364   C299    1.471   1_655 S
C365   N373    1.428   .     S
C366   N376    1.427   .     S
C367   N379    1.428   .     S
C368   N382    1.427   .     S
N373   O374    1.300   .     A
N373   O375    1.298   .     A
N376   O378    1.300   .     A
N376   O377    1.300   .     A
N379   O380    1.300   .     A
N379   O381    1.298   .     A
N382   O383    1.300   .     A
N382   O384    1.300   .     A
O385   C389    1.299   .     A
O385   Cu401   1.959   .     S
O386   Cu402   1.959   .     S
O386   C390    1.300   .     A
O387   C390    1.299   .     A
O387   Cu401   1.959   .     S
O388   Cu402   1.959   .     S
O388   C389    1.300   .     A
C389   C425    1.463   .     S
C390   C426    1.463   .     S
O391   C399    1.293   .     A
O391   Cu401   1.932   .     S
O392   C400    1.293   .     A
O392   Cu402   1.932   .     S
O393   C400    1.293   .     A
O393   Cu401   1.932   .     S
O394   Cu402   1.932   .     S
O394   C399    1.293   .     A
C395   H433    1.082   .     S
C395   C429    1.412   .     A
C395   C405    1.401   .     A
C396   H434    1.082   .     S
C396   C406    1.405   .     A
C396   C430    1.410   .     A
C397   H435    1.082   .     S
C397   C405    1.401   .     A
C397   C431    1.412   .     A
C398   C406    1.405   .     A
C398   C432    1.410   .     A
C398   H436    1.082   .     S
C399   C407    1.409   .     S
C400   C408    1.409   .     S
Cu401  Cu402   2.695   .     S
Cu401  N404    2.025   .     S
Cu402  N403    2.025   .     S
N403   C429    1.382   .     A
N403   C431    1.382   .     A
N404   C432    1.375   .     A
N404   C430    1.375   .     A
C406   C277    1.519   1_565 S
C408   C663    1.190   .     S
C409   C427    1.404   .     A
C409   H413    1.083   .     S
C409   C417    1.391   .     A
C410   H414    1.083   .     S
C410   C418    1.389   .     A
C410   C428    1.403   .     A
C411   H415    1.083   .     S
C411   C419    1.391   .     A
C411   C428    1.404   .     A
C412   C427    1.403   .     A
C412   H416    1.083   .     S
C412   C420    1.389   .     A
C417   H421    1.083   .     S
C417   C425    1.402   .     A
C418   C426    1.401   .     A
C418   H422    1.080   .     S
C419   H423    1.083   .     S
C419   C426    1.402   .     A
C420   H424    1.080   .     S
C420   C425    1.401   .     A
C427   C492    1.471   1_455 S
C428   C491    1.471   .     S
C429   N437    1.428   .     S
C430   N440    1.427   .     S
C431   N443    1.428   .     S
C432   N446    1.427   .     S
N437   O438    1.300   .     A
N437   O439    1.298   .     A
N440   O442    1.300   .     A
N440   O441    1.300   .     A
N443   O444    1.300   .     A
N443   O445    1.298   .     A
N446   O447    1.300   .     A
N446   O448    1.300   .     A
O449   C453    1.299   .     A
O449   Cu465   1.959   .     S
O450   Cu466   1.959   .     S
O450   C454    1.300   .     A
O451   C454    1.299   .     A
O451   Cu465   1.959   .     S
O452   Cu466   1.959   .     S
O452   C453    1.300   .     A
C453   C489    1.463   .     S
C454   C490    1.463   .     S
O455   C463    1.293   .     A
O455   Cu465   1.932   .     S
O456   C464    1.293   .     A
O456   Cu466   1.932   .     S
O457   C464    1.293   .     A
O457   Cu465   1.932   .     S
O458   Cu466   1.932   .     S
O458   C463    1.293   .     A
C459   H497    1.082   .     S
C459   C493    1.412   .     A
C459   C469    1.401   .     A
C460   H498    1.082   .     S
C460   C470    1.405   .     A
C460   C494    1.410   .     A
C461   H499    1.082   .     S
C461   C469    1.401   .     A
C461   C495    1.412   .     A
C462   C470    1.405   .     A
C462   C496    1.410   .     A
C462   H500    1.082   .     S
C463   C471    1.409   .     S
C464   C472    1.409   .     S
Cu465  Cu466   2.695   .     S
Cu465  N468    2.025   .     S
Cu466  N467    2.025   .     S
N467   C493    1.382   .     A
N467   C495    1.382   .     A
N468   C496    1.375   .     A
N468   C494    1.375   .     A
C470   C341    1.519   1_565 S
C472   C727    1.190   .     S
C473   C491    1.404   .     A
C473   H477    1.083   .     S
C473   C481    1.391   .     A
C474   H478    1.083   .     S
C474   C482    1.389   .     A
C474   C492    1.403   .     A
C475   H479    1.083   .     S
C475   C483    1.391   .     A
C475   C492    1.404   .     A
C476   C491    1.403   .     A
C476   H480    1.083   .     S
C476   C484    1.389   .     A
C481   H485    1.083   .     S
C481   C489    1.402   .     A
C482   C490    1.401   .     A
C482   H486    1.080   .     S
C483   H487    1.083   .     S
C483   C490    1.402   .     A
C484   H488    1.080   .     S
C484   C489    1.401   .     A
C492   C427    1.471   1_655 S
C493   N501    1.428   .     S
C494   N504    1.427   .     S
C495   N507    1.428   .     S
C496   N510    1.427   .     S
N501   O502    1.300   .     A
N501   O503    1.298   .     A
N504   O506    1.300   .     A
N504   O505    1.300   .     A
N507   O508    1.300   .     A
N507   O509    1.298   .     A
N510   O511    1.300   .     A
N510   O512    1.300   .     A
O513   C517    1.299   .     A
O513   Cu529   1.959   .     S
O514   Cu530   1.959   .     S
O514   C518    1.300   .     A
O515   C518    1.299   .     A
O515   Cu529   1.959   .     S
O516   Cu530   1.959   .     S
O516   C517    1.300   .     A
C517   C553    1.463   .     S
C518   C554    1.463   .     S
O519   C527    1.293   .     A
O519   Cu529   1.932   .     S
O520   C528    1.293   .     A
O520   Cu530   1.932   .     S
O521   C528    1.293   .     A
O521   Cu529   1.932   .     S
O522   Cu530   1.932   .     S
O522   C527    1.293   .     A
C523   H561    1.082   .     S
C523   C557    1.412   .     A
C523   C533    1.401   .     A
C524   H562    1.082   .     S
C524   C534    1.405   .     A
C524   C558    1.410   .     A
C525   H563    1.082   .     S
C525   C533    1.401   .     A
C525   C559    1.412   .     A
C526   C534    1.405   .     A
C526   C560    1.410   .     A
C526   H564    1.082   .     S
C527   C535    1.409   .     S
C528   C536    1.409   .     S
Cu529  Cu530   2.695   .     S
Cu529  N532    2.025   .     S
Cu530  N531    2.025   .     S
N531   C557    1.382   .     A
N531   C559    1.382   .     A
N532   C560    1.375   .     A
N532   C558    1.375   .     A
C533   C662    1.519   1_545 S
C534   C661    1.519   .     S
C536   C23     1.190   1_556 S
C537   C555    1.404   .     A
C537   H541    1.083   .     S
C537   C545    1.391   .     A
C538   H542    1.083   .     S
C538   C546    1.389   .     A
C538   C556    1.403   .     A
C539   H543    1.083   .     S
C539   C547    1.391   .     A
C539   C556    1.404   .     A
C540   C555    1.403   .     A
C540   H544    1.083   .     S
C540   C548    1.389   .     A
C545   H549    1.083   .     S
C545   C553    1.402   .     A
C546   C554    1.401   .     A
C546   H550    1.080   .     S
C547   H551    1.083   .     S
C547   C554    1.402   .     A
C548   H552    1.080   .     S
C548   C553    1.401   .     A
C555   C620    1.471   1_455 S
C556   C619    1.471   .     S
C557   N565    1.428   .     S
C558   N568    1.427   .     S
C559   N571    1.428   .     S
C560   N574    1.427   .     S
N565   O566    1.300   .     A
N565   O567    1.298   .     A
N568   O570    1.300   .     A
N568   O569    1.300   .     A
N571   O572    1.300   .     A
N571   O573    1.298   .     A
N574   O575    1.300   .     A
N574   O576    1.300   .     A
O577   C581    1.299   .     A
O577   Cu593   1.959   .     S
O578   Cu594   1.959   .     S
O578   C582    1.300   .     A
O579   C582    1.299   .     A
O579   Cu593   1.959   .     S
O580   Cu594   1.959   .     S
O580   C581    1.300   .     A
C581   C617    1.463   .     S
C582   C618    1.463   .     S
O583   C591    1.293   .     A
O583   Cu593   1.932   .     S
O584   C592    1.293   .     A
O584   Cu594   1.932   .     S
O585   C592    1.293   .     A
O585   Cu593   1.932   .     S
O586   Cu594   1.932   .     S
O586   C591    1.293   .     A
C587   H625    1.082   .     S
C587   C621    1.412   .     A
C587   C597    1.401   .     A
C588   H626    1.082   .     S
C588   C598    1.405   .     A
C588   C622    1.410   .     A
C589   H627    1.082   .     S
C589   C597    1.401   .     A
C589   C623    1.412   .     A
C590   C598    1.405   .     A
C590   C624    1.410   .     A
C590   H628    1.082   .     S
C591   C599    1.409   .     S
C592   C600    1.409   .     S
Cu593  Cu594   2.695   .     S
Cu593  N596    2.025   .     S
Cu594  N595    2.025   .     S
N595   C621    1.382   .     A
N595   C623    1.382   .     A
N596   C624    1.375   .     A
N596   C622    1.375   .     A
C597   C726    1.519   1_545 S
C598   C725    1.519   .     S
C600   C87     1.190   1_556 S
C601   C619    1.404   .     A
C601   H605    1.083   .     S
C601   C609    1.391   .     A
C602   H606    1.083   .     S
C602   C610    1.389   .     A
C602   C620    1.403   .     A
C603   H607    1.083   .     S
C603   C611    1.391   .     A
C603   C620    1.404   .     A
C604   C619    1.403   .     A
C604   H608    1.083   .     S
C604   C612    1.389   .     A
C609   H613    1.083   .     S
C609   C617    1.402   .     A
C610   C618    1.401   .     A
C610   H614    1.080   .     S
C611   H615    1.083   .     S
C611   C618    1.402   .     A
C612   H616    1.080   .     S
C612   C617    1.401   .     A
C620   C555    1.471   1_655 S
C621   N629    1.428   .     S
C622   N632    1.427   .     S
C623   N635    1.428   .     S
C624   N638    1.427   .     S
N629   O630    1.300   .     A
N629   O631    1.298   .     A
N632   O634    1.300   .     A
N632   O633    1.300   .     A
N635   O636    1.300   .     A
N635   O637    1.298   .     A
N638   O639    1.300   .     A
N638   O640    1.300   .     A
O641   C645    1.299   .     A
O641   Cu657   1.959   .     S
O642   Cu658   1.959   .     S
O642   C646    1.300   .     A
O643   C646    1.299   .     A
O643   Cu657   1.959   .     S
O644   Cu658   1.959   .     S
O644   C645    1.300   .     A
C645   C681    1.463   .     S
C646   C682    1.463   .     S
O647   C655    1.293   .     A
O647   Cu657   1.932   .     S
O648   C656    1.293   .     A
O648   Cu658   1.932   .     S
O649   C656    1.293   .     A
O649   Cu657   1.932   .     S
O650   Cu658   1.932   .     S
O650   C655    1.293   .     A
C651   H689    1.082   .     S
C651   C685    1.412   .     A
C651   C661    1.401   .     A
C652   H690    1.082   .     S
C652   C662    1.405   .     A
C652   C686    1.410   .     A
C653   H691    1.082   .     S
C653   C661    1.401   .     A
C653   C687    1.412   .     A
C654   C662    1.405   .     A
C654   C688    1.410   .     A
C654   H692    1.082   .     S
C655   C663    1.409   .     S
C656   C664    1.409   .     S
Cu657  Cu658   2.695   .     S
Cu657  N660    2.025   .     S
Cu658  N659    2.025   .     S
N659   C685    1.382   .     A
N659   C687    1.382   .     A
N660   C688    1.375   .     A
N660   C686    1.375   .     A
C662   C533    1.519   1_565 S
C664   C151    1.190   1_556 S
C665   C683    1.404   .     A
C665   H669    1.083   .     S
C665   C673    1.391   .     A
C666   H670    1.083   .     S
C666   C674    1.389   .     A
C666   C684    1.403   .     A
C667   H671    1.083   .     S
C667   C675    1.391   .     A
C667   C684    1.404   .     A
C668   C683    1.403   .     A
C668   H672    1.083   .     S
C668   C676    1.389   .     A
C673   H677    1.083   .     S
C673   C681    1.402   .     A
C674   C682    1.401   .     A
C674   H678    1.080   .     S
C675   H679    1.083   .     S
C675   C682    1.402   .     A
C676   H680    1.080   .     S
C676   C681    1.401   .     A
C683   C748    1.471   1_455 S
C684   C747    1.471   .     S
C685   N693    1.428   .     S
C686   N696    1.427   .     S
C687   N699    1.428   .     S
C688   N702    1.427   .     S
N693   O694    1.300   .     A
N693   O695    1.298   .     A
N696   O698    1.300   .     A
N696   O697    1.300   .     A
N699   O700    1.300   .     A
N699   O701    1.298   .     A
N702   O703    1.300   .     A
N702   O704    1.300   .     A
O705   C709    1.299   .     A
O705   Cu721   1.959   .     S
O706   Cu722   1.959   .     S
O706   C710    1.300   .     A
O707   C710    1.299   .     A
O707   Cu721   1.959   .     S
O708   Cu722   1.959   .     S
O708   C709    1.300   .     A
C709   C745    1.463   .     S
C710   C746    1.463   .     S
O711   C719    1.293   .     A
O711   Cu721   1.932   .     S
O712   C720    1.293   .     A
O712   Cu722   1.932   .     S
O713   C720    1.293   .     A
O713   Cu721   1.932   .     S
O714   Cu722   1.932   .     S
O714   C719    1.293   .     A
C715   H753    1.082   .     S
C715   C749    1.412   .     A
C715   C725    1.401   .     A
C716   H754    1.082   .     S
C716   C726    1.405   .     A
C716   C750    1.410   .     A
C717   H755    1.082   .     S
C717   C725    1.401   .     A
C717   C751    1.412   .     A
C718   C726    1.405   .     A
C718   C752    1.410   .     A
C718   H756    1.082   .     S
C719   C727    1.409   .     S
C720   C728    1.409   .     S
Cu721  Cu722   2.695   .     S
Cu721  N724    2.025   .     S
Cu722  N723    2.025   .     S
N723   C749    1.382   .     A
N723   C751    1.382   .     A
N724   C752    1.375   .     A
N724   C750    1.375   .     A
C726   C597    1.519   1_565 S
C728   C215    1.190   1_556 S
C729   C747    1.404   .     A
C729   H733    1.083   .     S
C729   C737    1.391   .     A
C730   H734    1.083   .     S
C730   C738    1.389   .     A
C730   C748    1.403   .     A
C731   H735    1.083   .     S
C731   C739    1.391   .     A
C731   C748    1.404   .     A
C732   C747    1.403   .     A
C732   H736    1.083   .     S
C732   C740    1.389   .     A
C737   H741    1.083   .     S
C737   C745    1.402   .     A
C738   C746    1.401   .     A
C738   H742    1.080   .     S
C739   H743    1.083   .     S
C739   C746    1.402   .     A
C740   H744    1.080   .     S
C740   C745    1.401   .     A
C748   C683    1.471   1_655 S
C749   N757    1.428   .     S
C750   N760    1.427   .     S
C751   N763    1.428   .     S
C752   N766    1.427   .     S
N757   O758    1.300   .     A
N757   O759    1.298   .     A
N760   O762    1.300   .     A
N760   O761    1.300   .     A
N763   O764    1.300   .     A
N763   O765    1.298   .     A
N766   O767    1.300   .     A
N766   O768    1.300   .     A
