data_str_m1_o10_o18_pcu_sym.91
_audit_creation_date              2020-01-03
_audit_creation_method            'Materials Studio'
_symmetry_space_group_name_H-M    'P1'
_symmetry_Int_Tables_number       1
_symmetry_cell_setting            triclinic
loop_
_symmetry_equiv_pos_as_xyz
  x,y,z
_cell_length_a                    32.5410
_cell_length_b                    32.5237
_cell_length_c                    35.7320
_cell_angle_alpha                 98.1881
_cell_angle_beta                  72.9265
_cell_angle_gamma                 98.5913
loop_
_atom_site_label
_atom_site_type_symbol
_atom_site_fract_x
_atom_site_fract_y
_atom_site_fract_z
_atom_site_U_iso_or_equiv
_atom_site_adp_type
_atom_site_occupancy
Zn1    Zn    0.19244   0.14090   0.28278   0.00000  Uiso   1.00
Zn2    Zn    0.13459   0.12378   0.22258   0.00000  Uiso   1.00
Zn3    Zn    0.21166   0.19664   0.21188   0.00000  Uiso   1.00
Zn4    Zn    0.12798   0.20535   0.28277   0.00000  Uiso   1.00
O5     O     0.16667   0.16667   0.25000   0.00000  Uiso   1.00
O6     O     0.06990   0.18960   0.27820   0.00000  Uiso   1.00
O7     O     0.25440   0.15277   0.26768   0.00000  Uiso   1.00
O8     O     0.13800   0.06903   0.23607   0.00000  Uiso   1.00
O9     O     0.20437   0.25527   0.21806   0.00000  Uiso   1.00
O10    O     0.15693   0.12393   0.16625   0.00000  Uiso   1.00
O11    O     0.12687   0.20646   0.33749   0.00000  Uiso   1.00
O12    O     0.21088   0.17493   0.15877   0.00000  Uiso   1.00
O13    O     0.17198   0.16135   0.33749   0.00000  Uiso   1.00
O14    O     0.17849   0.08101   0.27821   0.00000  Uiso   1.00
O15    O     0.14581   0.26136   0.26767   0.00000  Uiso   1.00
O16    O     0.07452   0.13251   0.23607   0.00000  Uiso   1.00
O17    O     0.26785   0.19179   0.21806   0.00000  Uiso   1.00
C18    C     0.05249   0.15998   0.25873   0.00000  Uiso   1.00
C19    C     0.28108   0.17357   0.24117   0.00000  Uiso   1.00
C20    C     0.15592   0.05612   0.25889   0.00000  Uiso   1.00
C21    C     0.17686   0.27769   0.24134   0.00000  Uiso   1.00
C22    C     0.18833   0.14524   0.14404   0.00000  Uiso   1.00
C23    C     0.14473   0.18724   0.35633   0.00000  Uiso   1.00
C24    C     0.12992   0.19020   0.39981   0.00000  Uiso   1.00
C25    C     0.19764   0.13653   0.10135   0.00000  Uiso   1.00
C26    C     0.07306   0.19646   0.46177   0.00000  Uiso   1.00
C27    C     0.08847   0.20118   0.42139   0.00000  Uiso   1.00
C28    C     0.15604   0.17664   0.41930   0.00000  Uiso   1.00
C29    C     0.14092   0.17032   0.45939   0.00000  Uiso   1.00
C30    C     0.09880   0.18046   0.48074   0.00000  Uiso   1.00
C31    C     0.16662   0.15418   0.47886   0.00000  Uiso   1.00
C32    C     0.15222   0.15372   0.02034   0.00000  Uiso   1.00
C33    C     0.10880   0.15964   0.03960   0.00000  Uiso   1.00
C34    C     0.08281   0.17328   0.02042   0.00000  Uiso   1.00
C35    C     0.20501   0.13647   0.45816   0.00000  Uiso   1.00
C36    C     0.22903   0.12041   0.47779   0.00000  Uiso   1.00
C37    C     0.21793   0.12443   0.01899   0.00000  Uiso   1.00
C38    C     0.18041   0.14371   0.04080   0.00000  Uiso   1.00
C39    C     0.24358   0.10926   0.03868   0.00000  Uiso   1.00
C40    C     0.23240   0.11397   0.08005   0.00000  Uiso   1.00
C41    C     0.17347   0.15352   0.08196   0.00000  Uiso   1.00
H42    H     0.04995   0.17788   0.03714   0.00000  Uiso   1.00
H43    H     0.25694   0.10540   0.46011   0.00000  Uiso   1.00
H44    H     0.18841   0.17122   0.40222   0.00000  Uiso   1.00
H45    H     0.09370   0.15198   0.06935   0.00000  Uiso   1.00
H46    H     0.21609   0.13214   0.42648   0.00000  Uiso   1.00
C47    C     0.32710   0.17617   0.23749   0.00000  Uiso   1.00
H48    H     0.01690   0.19313   0.21460   0.00000  Uiso   1.00
C49    C     0.00709   0.15769   0.26219   0.00000  Uiso   1.00
H50    H     0.31793   0.14079   0.28543   0.00000  Uiso   1.00
C51    C     0.18090   0.32217   0.23806   0.00000  Uiso   1.00
H52    H     0.20803   0.00277   0.21592   0.00000  Uiso   1.00
C53    C     0.15152   0.01209   0.26211   0.00000  Uiso   1.00
H54    H     0.12401   0.33225   0.28433   0.00000  Uiso   1.00
N55    N     0.28019   0.08783   0.01688   0.00000  Uiso   1.00
O56    O     0.28116   0.04917   0.02187   0.00000  Uiso   1.00
O57    O     0.31440   0.10819   0.49531   0.00000  Uiso   1.00
Cl58   Cl    0.14252   0.19439   0.10878   0.00000  Uiso   1.00
N59    N     0.25808   0.09823   0.10029   0.00000  Uiso   1.00
O60    O     0.23957   0.07699   0.13024   0.00000  Uiso   1.00
O61    O     0.30007   0.10575   0.08931   0.00000  Uiso   1.00
Cl62   Cl    0.02115   0.21108   0.48794   0.00000  Uiso   1.00
N63    N     0.06118   0.21587   0.40238   0.00000  Uiso   1.00
O64    O     0.06798   0.25441   0.39411   0.00000  Uiso   1.00
O65    O     0.02692   0.19222   0.39725   0.00000  Uiso   1.00
Zn66   Zn    0.52577   0.14090   0.28278   0.00000  Uiso   1.00
Zn67   Zn    0.46792   0.12378   0.22258   0.00000  Uiso   1.00
Zn68   Zn    0.54500   0.19664   0.21188   0.00000  Uiso   1.00
Zn69   Zn    0.46131   0.20535   0.28277   0.00000  Uiso   1.00
O70    O     0.50000   0.16667   0.25000   0.00000  Uiso   1.00
O71    O     0.40323   0.18960   0.27820   0.00000  Uiso   1.00
O72    O     0.58773   0.15277   0.26768   0.00000  Uiso   1.00
O73    O     0.47133   0.06903   0.23607   0.00000  Uiso   1.00
O74    O     0.53771   0.25527   0.21806   0.00000  Uiso   1.00
O75    O     0.49027   0.12393   0.16625   0.00000  Uiso   1.00
O76    O     0.46020   0.20646   0.33749   0.00000  Uiso   1.00
O77    O     0.54421   0.17493   0.15877   0.00000  Uiso   1.00
O78    O     0.50532   0.16135   0.33749   0.00000  Uiso   1.00
O79    O     0.51182   0.08101   0.27821   0.00000  Uiso   1.00
O80    O     0.47914   0.26136   0.26767   0.00000  Uiso   1.00
O81    O     0.40785   0.13251   0.23607   0.00000  Uiso   1.00
O82    O     0.60119   0.19179   0.21806   0.00000  Uiso   1.00
C83    C     0.38582   0.15998   0.25873   0.00000  Uiso   1.00
C84    C     0.61441   0.17357   0.24117   0.00000  Uiso   1.00
C85    C     0.48926   0.05612   0.25889   0.00000  Uiso   1.00
C86    C     0.51019   0.27769   0.24134   0.00000  Uiso   1.00
C87    C     0.52166   0.14524   0.14404   0.00000  Uiso   1.00
C88    C     0.47806   0.18724   0.35633   0.00000  Uiso   1.00
C89    C     0.46325   0.19020   0.39981   0.00000  Uiso   1.00
C90    C     0.53097   0.13653   0.10135   0.00000  Uiso   1.00
C91    C     0.40639   0.19646   0.46177   0.00000  Uiso   1.00
C92    C     0.42181   0.20118   0.42139   0.00000  Uiso   1.00
C93    C     0.48937   0.17664   0.41930   0.00000  Uiso   1.00
C94    C     0.47425   0.17032   0.45939   0.00000  Uiso   1.00
C95    C     0.43213   0.18046   0.48074   0.00000  Uiso   1.00
C96    C     0.49996   0.15418   0.47886   0.00000  Uiso   1.00
C97    C     0.48555   0.15372   0.02034   0.00000  Uiso   1.00
C98    C     0.44213   0.15964   0.03960   0.00000  Uiso   1.00
C99    C     0.41614   0.17328   0.02042   0.00000  Uiso   1.00
C100   C     0.53835   0.13647   0.45816   0.00000  Uiso   1.00
C101   C     0.56236   0.12041   0.47779   0.00000  Uiso   1.00
C102   C     0.55126   0.12443   0.01899   0.00000  Uiso   1.00
C103   C     0.51374   0.14371   0.04080   0.00000  Uiso   1.00
C104   C     0.57692   0.10926   0.03868   0.00000  Uiso   1.00
C105   C     0.56573   0.11397   0.08005   0.00000  Uiso   1.00
C106   C     0.50680   0.15352   0.08196   0.00000  Uiso   1.00
H107   H     0.38328   0.17788   0.03714   0.00000  Uiso   1.00
H108   H     0.59027   0.10540   0.46011   0.00000  Uiso   1.00
H109   H     0.52175   0.17122   0.40222   0.00000  Uiso   1.00
H110   H     0.42703   0.15198   0.06935   0.00000  Uiso   1.00
H111   H     0.54942   0.13214   0.42648   0.00000  Uiso   1.00
C112   C     0.66043   0.17617   0.23749   0.00000  Uiso   1.00
H113   H     0.35024   0.19313   0.21460   0.00000  Uiso   1.00
C114   C     0.34042   0.15769   0.26219   0.00000  Uiso   1.00
H115   H     0.65126   0.14079   0.28543   0.00000  Uiso   1.00
C116   C     0.51423   0.32217   0.23806   0.00000  Uiso   1.00
H117   H     0.54137   0.00277   0.21592   0.00000  Uiso   1.00
C118   C     0.48486   0.01209   0.26211   0.00000  Uiso   1.00
H119   H     0.45735   0.33225   0.28433   0.00000  Uiso   1.00
N120   N     0.61352   0.08783   0.01688   0.00000  Uiso   1.00
O121   O     0.61449   0.04917   0.02187   0.00000  Uiso   1.00
O122   O     0.64773   0.10819   0.49531   0.00000  Uiso   1.00
Cl123  Cl    0.47585   0.19439   0.10878   0.00000  Uiso   1.00
N124   N     0.59141   0.09823   0.10029   0.00000  Uiso   1.00
O125   O     0.57290   0.07699   0.13024   0.00000  Uiso   1.00
O126   O     0.63340   0.10575   0.08931   0.00000  Uiso   1.00
Cl127  Cl    0.35448   0.21108   0.48794   0.00000  Uiso   1.00
N128   N     0.39452   0.21587   0.40238   0.00000  Uiso   1.00
O129   O     0.40131   0.25441   0.39411   0.00000  Uiso   1.00
O130   O     0.36025   0.19222   0.39725   0.00000  Uiso   1.00
Zn131  Zn    0.85910   0.14090   0.28278   0.00000  Uiso   1.00
Zn132  Zn    0.80125   0.12378   0.22258   0.00000  Uiso   1.00
Zn133  Zn    0.87833   0.19664   0.21188   0.00000  Uiso   1.00
Zn134  Zn    0.79465   0.20535   0.28277   0.00000  Uiso   1.00
O135   O     0.83333   0.16667   0.25000   0.00000  Uiso   1.00
O136   O     0.73656   0.18960   0.27820   0.00000  Uiso   1.00
O137   O     0.92106   0.15277   0.26768   0.00000  Uiso   1.00
O138   O     0.80467   0.06903   0.23607   0.00000  Uiso   1.00
O139   O     0.87104   0.25527   0.21806   0.00000  Uiso   1.00
O140   O     0.82360   0.12393   0.16625   0.00000  Uiso   1.00
O141   O     0.79354   0.20646   0.33749   0.00000  Uiso   1.00
O142   O     0.87755   0.17493   0.15877   0.00000  Uiso   1.00
O143   O     0.83865   0.16135   0.33749   0.00000  Uiso   1.00
O144   O     0.84515   0.08101   0.27821   0.00000  Uiso   1.00
O145   O     0.81247   0.26136   0.26767   0.00000  Uiso   1.00
O146   O     0.74119   0.13251   0.23607   0.00000  Uiso   1.00
O147   O     0.93452   0.19179   0.21806   0.00000  Uiso   1.00
C148   C     0.71915   0.15998   0.25873   0.00000  Uiso   1.00
C149   C     0.94774   0.17357   0.24117   0.00000  Uiso   1.00
C150   C     0.82259   0.05612   0.25889   0.00000  Uiso   1.00
C151   C     0.84353   0.27769   0.24134   0.00000  Uiso   1.00
C152   C     0.85499   0.14524   0.14404   0.00000  Uiso   1.00
C153   C     0.81140   0.18724   0.35633   0.00000  Uiso   1.00
C154   C     0.79659   0.19020   0.39981   0.00000  Uiso   1.00
C155   C     0.86430   0.13653   0.10135   0.00000  Uiso   1.00
C156   C     0.73972   0.19646   0.46177   0.00000  Uiso   1.00
C157   C     0.75514   0.20118   0.42139   0.00000  Uiso   1.00
C158   C     0.82270   0.17664   0.41930   0.00000  Uiso   1.00
C159   C     0.80759   0.17032   0.45939   0.00000  Uiso   1.00
C160   C     0.76546   0.18046   0.48074   0.00000  Uiso   1.00
C161   C     0.83329   0.15418   0.47886   0.00000  Uiso   1.00
C162   C     0.81889   0.15372   0.02034   0.00000  Uiso   1.00
C163   C     0.77547   0.15964   0.03960   0.00000  Uiso   1.00
C164   C     0.74948   0.17328   0.02042   0.00000  Uiso   1.00
C165   C     0.87168   0.13647   0.45816   0.00000  Uiso   1.00
C166   C     0.89569   0.12041   0.47779   0.00000  Uiso   1.00
C167   C     0.88460   0.12443   0.01899   0.00000  Uiso   1.00
C168   C     0.84707   0.14371   0.04080   0.00000  Uiso   1.00
C169   C     0.91025   0.10926   0.03868   0.00000  Uiso   1.00
C170   C     0.89906   0.11397   0.08005   0.00000  Uiso   1.00
C171   C     0.84014   0.15352   0.08196   0.00000  Uiso   1.00
H172   H     0.71661   0.17788   0.03714   0.00000  Uiso   1.00
H173   H     0.92360   0.10540   0.46011   0.00000  Uiso   1.00
H174   H     0.85508   0.17122   0.40222   0.00000  Uiso   1.00
H175   H     0.76037   0.15198   0.06935   0.00000  Uiso   1.00
H176   H     0.88276   0.13214   0.42648   0.00000  Uiso   1.00
C177   C     0.99377   0.17617   0.23749   0.00000  Uiso   1.00
H178   H     0.68357   0.19313   0.21460   0.00000  Uiso   1.00
C179   C     0.67375   0.15769   0.26219   0.00000  Uiso   1.00
H180   H     0.98460   0.14079   0.28543   0.00000  Uiso   1.00
C181   C     0.84756   0.32217   0.23806   0.00000  Uiso   1.00
H182   H     0.87470   0.00277   0.21592   0.00000  Uiso   1.00
C183   C     0.81819   0.01209   0.26211   0.00000  Uiso   1.00
H184   H     0.79068   0.33225   0.28433   0.00000  Uiso   1.00
N185   N     0.94686   0.08783   0.01688   0.00000  Uiso   1.00
O186   O     0.94782   0.04917   0.02187   0.00000  Uiso   1.00
O187   O     0.98106   0.10819   0.49531   0.00000  Uiso   1.00
Cl188  Cl    0.80919   0.19439   0.10878   0.00000  Uiso   1.00
N189   N     0.92474   0.09823   0.10029   0.00000  Uiso   1.00
O190   O     0.90623   0.07699   0.13024   0.00000  Uiso   1.00
O191   O     0.96674   0.10575   0.08931   0.00000  Uiso   1.00
Cl192  Cl    0.68782   0.21108   0.48794   0.00000  Uiso   1.00
N193   N     0.72785   0.21587   0.40238   0.00000  Uiso   1.00
O194   O     0.73465   0.25441   0.39411   0.00000  Uiso   1.00
O195   O     0.69358   0.19222   0.39725   0.00000  Uiso   1.00
Zn196  Zn    0.19244   0.47423   0.28278   0.00000  Uiso   1.00
Zn197  Zn    0.13459   0.45711   0.22258   0.00000  Uiso   1.00
Zn198  Zn    0.21166   0.52997   0.21188   0.00000  Uiso   1.00
Zn199  Zn    0.12798   0.53868   0.28277   0.00000  Uiso   1.00
O200   O     0.16667   0.50000   0.25000   0.00000  Uiso   1.00
O201   O     0.06990   0.52293   0.27820   0.00000  Uiso   1.00
O202   O     0.25440   0.48610   0.26768   0.00000  Uiso   1.00
O203   O     0.13800   0.40236   0.23607   0.00000  Uiso   1.00
O204   O     0.20437   0.58860   0.21806   0.00000  Uiso   1.00
O205   O     0.15693   0.45726   0.16625   0.00000  Uiso   1.00
O206   O     0.12687   0.53979   0.33749   0.00000  Uiso   1.00
O207   O     0.21088   0.50826   0.15877   0.00000  Uiso   1.00
O208   O     0.17198   0.49468   0.33749   0.00000  Uiso   1.00
O209   O     0.17849   0.41434   0.27821   0.00000  Uiso   1.00
O210   O     0.14581   0.59469   0.26767   0.00000  Uiso   1.00
O211   O     0.07452   0.46584   0.23607   0.00000  Uiso   1.00
O212   O     0.26785   0.52512   0.21806   0.00000  Uiso   1.00
C213   C     0.05249   0.49331   0.25873   0.00000  Uiso   1.00
C214   C     0.28108   0.50691   0.24117   0.00000  Uiso   1.00
C215   C     0.15592   0.38945   0.25889   0.00000  Uiso   1.00
C216   C     0.17686   0.61102   0.24134   0.00000  Uiso   1.00
C217   C     0.18833   0.47858   0.14404   0.00000  Uiso   1.00
C218   C     0.14473   0.52057   0.35633   0.00000  Uiso   1.00
C219   C     0.12992   0.52353   0.39981   0.00000  Uiso   1.00
C220   C     0.19764   0.46986   0.10135   0.00000  Uiso   1.00
C221   C     0.07306   0.52979   0.46177   0.00000  Uiso   1.00
C222   C     0.08847   0.53451   0.42139   0.00000  Uiso   1.00
C223   C     0.15604   0.50997   0.41930   0.00000  Uiso   1.00
C224   C     0.14092   0.50365   0.45939   0.00000  Uiso   1.00
C225   C     0.09880   0.51379   0.48074   0.00000  Uiso   1.00
C226   C     0.16662   0.48752   0.47886   0.00000  Uiso   1.00
C227   C     0.15222   0.48705   0.02034   0.00000  Uiso   1.00
C228   C     0.10880   0.49297   0.03960   0.00000  Uiso   1.00
C229   C     0.08281   0.50661   0.02042   0.00000  Uiso   1.00
C230   C     0.20501   0.46980   0.45816   0.00000  Uiso   1.00
C231   C     0.22903   0.45375   0.47779   0.00000  Uiso   1.00
C232   C     0.21793   0.45776   0.01899   0.00000  Uiso   1.00
C233   C     0.18041   0.47704   0.04080   0.00000  Uiso   1.00
C234   C     0.24358   0.44259   0.03868   0.00000  Uiso   1.00
C235   C     0.23240   0.44731   0.08005   0.00000  Uiso   1.00
C236   C     0.17347   0.48685   0.08196   0.00000  Uiso   1.00
H237   H     0.04995   0.51121   0.03714   0.00000  Uiso   1.00
H238   H     0.25694   0.43873   0.46011   0.00000  Uiso   1.00
H239   H     0.18841   0.50455   0.40222   0.00000  Uiso   1.00
H240   H     0.09370   0.48531   0.06935   0.00000  Uiso   1.00
H241   H     0.21609   0.46548   0.42648   0.00000  Uiso   1.00
C242   C     0.32710   0.50950   0.23749   0.00000  Uiso   1.00
H243   H     0.01690   0.52646   0.21460   0.00000  Uiso   1.00
C244   C     0.00709   0.49102   0.26219   0.00000  Uiso   1.00
H245   H     0.31793   0.47412   0.28543   0.00000  Uiso   1.00
C246   C     0.18090   0.65550   0.23806   0.00000  Uiso   1.00
H247   H     0.20803   0.33611   0.21592   0.00000  Uiso   1.00
C248   C     0.15152   0.34542   0.26211   0.00000  Uiso   1.00
H249   H     0.12401   0.66558   0.28433   0.00000  Uiso   1.00
N250   N     0.28019   0.42116   0.01688   0.00000  Uiso   1.00
O251   O     0.28116   0.38250   0.02187   0.00000  Uiso   1.00
O252   O     0.31440   0.44152   0.49531   0.00000  Uiso   1.00
Cl253  Cl    0.14252   0.52772   0.10878   0.00000  Uiso   1.00
N254   N     0.25808   0.43157   0.10029   0.00000  Uiso   1.00
O255   O     0.23957   0.41032   0.13024   0.00000  Uiso   1.00
O256   O     0.30007   0.43908   0.08931   0.00000  Uiso   1.00
Cl257  Cl    0.02115   0.54442   0.48794   0.00000  Uiso   1.00
N258   N     0.06118   0.54920   0.40238   0.00000  Uiso   1.00
O259   O     0.06798   0.58774   0.39411   0.00000  Uiso   1.00
O260   O     0.02692   0.52555   0.39725   0.00000  Uiso   1.00
Zn261  Zn    0.52577   0.47423   0.28278   0.00000  Uiso   1.00
Zn262  Zn    0.46792   0.45711   0.22258   0.00000  Uiso   1.00
Zn263  Zn    0.54500   0.52997   0.21188   0.00000  Uiso   1.00
Zn264  Zn    0.46131   0.53868   0.28277   0.00000  Uiso   1.00
O265   O     0.50000   0.50000   0.25000   0.00000  Uiso   1.00
O266   O     0.40323   0.52293   0.27820   0.00000  Uiso   1.00
O267   O     0.58773   0.48610   0.26768   0.00000  Uiso   1.00
O268   O     0.47133   0.40236   0.23607   0.00000  Uiso   1.00
O269   O     0.53771   0.58860   0.21806   0.00000  Uiso   1.00
O270   O     0.49027   0.45726   0.16625   0.00000  Uiso   1.00
O271   O     0.46020   0.53979   0.33749   0.00000  Uiso   1.00
O272   O     0.54421   0.50826   0.15877   0.00000  Uiso   1.00
O273   O     0.50532   0.49468   0.33749   0.00000  Uiso   1.00
O274   O     0.51182   0.41434   0.27821   0.00000  Uiso   1.00
O275   O     0.47914   0.59469   0.26767   0.00000  Uiso   1.00
O276   O     0.40785   0.46584   0.23607   0.00000  Uiso   1.00
O277   O     0.60119   0.52512   0.21806   0.00000  Uiso   1.00
C278   C     0.38582   0.49331   0.25873   0.00000  Uiso   1.00
C279   C     0.61441   0.50691   0.24117   0.00000  Uiso   1.00
C280   C     0.48926   0.38945   0.25889   0.00000  Uiso   1.00
C281   C     0.51019   0.61102   0.24134   0.00000  Uiso   1.00
C282   C     0.52166   0.47858   0.14404   0.00000  Uiso   1.00
C283   C     0.47806   0.52057   0.35633   0.00000  Uiso   1.00
C284   C     0.46325   0.52353   0.39981   0.00000  Uiso   1.00
C285   C     0.53097   0.46986   0.10135   0.00000  Uiso   1.00
C286   C     0.40639   0.52979   0.46177   0.00000  Uiso   1.00
C287   C     0.42181   0.53451   0.42139   0.00000  Uiso   1.00
C288   C     0.48937   0.50997   0.41930   0.00000  Uiso   1.00
C289   C     0.47425   0.50365   0.45939   0.00000  Uiso   1.00
C290   C     0.43213   0.51379   0.48074   0.00000  Uiso   1.00
C291   C     0.49996   0.48752   0.47886   0.00000  Uiso   1.00
C292   C     0.48555   0.48705   0.02034   0.00000  Uiso   1.00
C293   C     0.44213   0.49297   0.03960   0.00000  Uiso   1.00
C294   C     0.41614   0.50661   0.02042   0.00000  Uiso   1.00
C295   C     0.53835   0.46980   0.45816   0.00000  Uiso   1.00
C296   C     0.56236   0.45375   0.47779   0.00000  Uiso   1.00
C297   C     0.55126   0.45776   0.01899   0.00000  Uiso   1.00
C298   C     0.51374   0.47704   0.04080   0.00000  Uiso   1.00
C299   C     0.57692   0.44259   0.03868   0.00000  Uiso   1.00
C300   C     0.56573   0.44731   0.08005   0.00000  Uiso   1.00
C301   C     0.50680   0.48685   0.08196   0.00000  Uiso   1.00
H302   H     0.38328   0.51121   0.03714   0.00000  Uiso   1.00
H303   H     0.59027   0.43873   0.46011   0.00000  Uiso   1.00
H304   H     0.52175   0.50455   0.40222   0.00000  Uiso   1.00
H305   H     0.42703   0.48531   0.06935   0.00000  Uiso   1.00
H306   H     0.54942   0.46548   0.42648   0.00000  Uiso   1.00
C307   C     0.66043   0.50950   0.23749   0.00000  Uiso   1.00
H308   H     0.35024   0.52646   0.21460   0.00000  Uiso   1.00
C309   C     0.34042   0.49102   0.26219   0.00000  Uiso   1.00
H310   H     0.65126   0.47412   0.28543   0.00000  Uiso   1.00
C311   C     0.51423   0.65550   0.23806   0.00000  Uiso   1.00
H312   H     0.54137   0.33611   0.21592   0.00000  Uiso   1.00
C313   C     0.48486   0.34542   0.26211   0.00000  Uiso   1.00
H314   H     0.45735   0.66558   0.28433   0.00000  Uiso   1.00
N315   N     0.61352   0.42116   0.01688   0.00000  Uiso   1.00
O316   O     0.61449   0.38250   0.02187   0.00000  Uiso   1.00
O317   O     0.64773   0.44152   0.49531   0.00000  Uiso   1.00
Cl318  Cl    0.47585   0.52772   0.10878   0.00000  Uiso   1.00
N319   N     0.59141   0.43157   0.10029   0.00000  Uiso   1.00
O320   O     0.57290   0.41032   0.13024   0.00000  Uiso   1.00
O321   O     0.63340   0.43908   0.08931   0.00000  Uiso   1.00
Cl322  Cl    0.35448   0.54442   0.48794   0.00000  Uiso   1.00
N323   N     0.39452   0.54920   0.40238   0.00000  Uiso   1.00
O324   O     0.40131   0.58774   0.39411   0.00000  Uiso   1.00
O325   O     0.36025   0.52555   0.39725   0.00000  Uiso   1.00
Zn326  Zn    0.85910   0.47423   0.28278   0.00000  Uiso   1.00
Zn327  Zn    0.80125   0.45711   0.22258   0.00000  Uiso   1.00
Zn328  Zn    0.87833   0.52997   0.21188   0.00000  Uiso   1.00
Zn329  Zn    0.79465   0.53868   0.28277   0.00000  Uiso   1.00
O330   O     0.83333   0.50000   0.25000   0.00000  Uiso   1.00
O331   O     0.73656   0.52293   0.27820   0.00000  Uiso   1.00
O332   O     0.92106   0.48610   0.26768   0.00000  Uiso   1.00
O333   O     0.80467   0.40236   0.23607   0.00000  Uiso   1.00
O334   O     0.87104   0.58860   0.21806   0.00000  Uiso   1.00
O335   O     0.82360   0.45726   0.16625   0.00000  Uiso   1.00
O336   O     0.79354   0.53979   0.33749   0.00000  Uiso   1.00
O337   O     0.87755   0.50826   0.15877   0.00000  Uiso   1.00
O338   O     0.83865   0.49468   0.33749   0.00000  Uiso   1.00
O339   O     0.84515   0.41434   0.27821   0.00000  Uiso   1.00
O340   O     0.81247   0.59469   0.26767   0.00000  Uiso   1.00
O341   O     0.74119   0.46584   0.23607   0.00000  Uiso   1.00
O342   O     0.93452   0.52512   0.21806   0.00000  Uiso   1.00
C343   C     0.71915   0.49331   0.25873   0.00000  Uiso   1.00
C344   C     0.94774   0.50691   0.24117   0.00000  Uiso   1.00
C345   C     0.82259   0.38945   0.25889   0.00000  Uiso   1.00
C346   C     0.84353   0.61102   0.24134   0.00000  Uiso   1.00
C347   C     0.85499   0.47858   0.14404   0.00000  Uiso   1.00
C348   C     0.81140   0.52057   0.35633   0.00000  Uiso   1.00
C349   C     0.79659   0.52353   0.39981   0.00000  Uiso   1.00
C350   C     0.86430   0.46986   0.10135   0.00000  Uiso   1.00
C351   C     0.73972   0.52979   0.46177   0.00000  Uiso   1.00
C352   C     0.75514   0.53451   0.42139   0.00000  Uiso   1.00
C353   C     0.82270   0.50997   0.41930   0.00000  Uiso   1.00
C354   C     0.80759   0.50365   0.45939   0.00000  Uiso   1.00
C355   C     0.76546   0.51379   0.48074   0.00000  Uiso   1.00
C356   C     0.83329   0.48752   0.47886   0.00000  Uiso   1.00
C357   C     0.81889   0.48705   0.02034   0.00000  Uiso   1.00
C358   C     0.77547   0.49297   0.03960   0.00000  Uiso   1.00
C359   C     0.74948   0.50661   0.02042   0.00000  Uiso   1.00
C360   C     0.87168   0.46980   0.45816   0.00000  Uiso   1.00
C361   C     0.89569   0.45375   0.47779   0.00000  Uiso   1.00
C362   C     0.88460   0.45776   0.01899   0.00000  Uiso   1.00
C363   C     0.84707   0.47704   0.04080   0.00000  Uiso   1.00
C364   C     0.91025   0.44259   0.03868   0.00000  Uiso   1.00
C365   C     0.89906   0.44731   0.08005   0.00000  Uiso   1.00
C366   C     0.84014   0.48685   0.08196   0.00000  Uiso   1.00
H367   H     0.71661   0.51121   0.03714   0.00000  Uiso   1.00
H368   H     0.92360   0.43873   0.46011   0.00000  Uiso   1.00
H369   H     0.85508   0.50455   0.40222   0.00000  Uiso   1.00
H370   H     0.76037   0.48531   0.06935   0.00000  Uiso   1.00
H371   H     0.88276   0.46548   0.42648   0.00000  Uiso   1.00
C372   C     0.99377   0.50950   0.23749   0.00000  Uiso   1.00
H373   H     0.68357   0.52646   0.21460   0.00000  Uiso   1.00
C374   C     0.67375   0.49102   0.26219   0.00000  Uiso   1.00
H375   H     0.98460   0.47412   0.28543   0.00000  Uiso   1.00
C376   C     0.84756   0.65550   0.23806   0.00000  Uiso   1.00
H377   H     0.87470   0.33611   0.21592   0.00000  Uiso   1.00
C378   C     0.81819   0.34542   0.26211   0.00000  Uiso   1.00
H379   H     0.79068   0.66558   0.28433   0.00000  Uiso   1.00
N380   N     0.94686   0.42116   0.01688   0.00000  Uiso   1.00
O381   O     0.94782   0.38250   0.02187   0.00000  Uiso   1.00
O382   O     0.98106   0.44152   0.49531   0.00000  Uiso   1.00
Cl383  Cl    0.80919   0.52772   0.10878   0.00000  Uiso   1.00
N384   N     0.92474   0.43157   0.10029   0.00000  Uiso   1.00
O385   O     0.90623   0.41032   0.13024   0.00000  Uiso   1.00
O386   O     0.96674   0.43908   0.08931   0.00000  Uiso   1.00
Cl387  Cl    0.68782   0.54442   0.48794   0.00000  Uiso   1.00
N388   N     0.72785   0.54920   0.40238   0.00000  Uiso   1.00
O389   O     0.73465   0.58774   0.39411   0.00000  Uiso   1.00
O390   O     0.69358   0.52555   0.39725   0.00000  Uiso   1.00
Zn391  Zn    0.19244   0.80756   0.28278   0.00000  Uiso   1.00
Zn392  Zn    0.13459   0.79044   0.22258   0.00000  Uiso   1.00
Zn393  Zn    0.21166   0.86331   0.21188   0.00000  Uiso   1.00
Zn394  Zn    0.12798   0.87202   0.28277   0.00000  Uiso   1.00
O395   O     0.16667   0.83333   0.25000   0.00000  Uiso   1.00
O396   O     0.06990   0.85627   0.27820   0.00000  Uiso   1.00
O397   O     0.25440   0.81944   0.26768   0.00000  Uiso   1.00
O398   O     0.13800   0.73570   0.23607   0.00000  Uiso   1.00
O399   O     0.20437   0.92193   0.21806   0.00000  Uiso   1.00
O400   O     0.15693   0.79060   0.16625   0.00000  Uiso   1.00
O401   O     0.12687   0.87313   0.33749   0.00000  Uiso   1.00
O402   O     0.21088   0.84159   0.15877   0.00000  Uiso   1.00
O403   O     0.17198   0.82802   0.33749   0.00000  Uiso   1.00
O404   O     0.17849   0.74768   0.27821   0.00000  Uiso   1.00
O405   O     0.14581   0.92803   0.26767   0.00000  Uiso   1.00
O406   O     0.07452   0.79917   0.23607   0.00000  Uiso   1.00
O407   O     0.26785   0.85845   0.21806   0.00000  Uiso   1.00
C408   C     0.05249   0.82664   0.25873   0.00000  Uiso   1.00
C409   C     0.28108   0.84024   0.24117   0.00000  Uiso   1.00
C410   C     0.15592   0.72279   0.25889   0.00000  Uiso   1.00
C411   C     0.17686   0.94436   0.24134   0.00000  Uiso   1.00
C412   C     0.18833   0.81191   0.14404   0.00000  Uiso   1.00
C413   C     0.14473   0.85390   0.35633   0.00000  Uiso   1.00
C414   C     0.12992   0.85687   0.39981   0.00000  Uiso   1.00
C415   C     0.19764   0.80320   0.10135   0.00000  Uiso   1.00
C416   C     0.07306   0.86313   0.46177   0.00000  Uiso   1.00
C417   C     0.08847   0.86785   0.42139   0.00000  Uiso   1.00
C418   C     0.15604   0.84330   0.41930   0.00000  Uiso   1.00
C419   C     0.14092   0.83698   0.45939   0.00000  Uiso   1.00
C420   C     0.09880   0.84712   0.48074   0.00000  Uiso   1.00
C421   C     0.16662   0.82085   0.47886   0.00000  Uiso   1.00
C422   C     0.15222   0.82038   0.02034   0.00000  Uiso   1.00
C423   C     0.10880   0.82631   0.03960   0.00000  Uiso   1.00
C424   C     0.08281   0.83994   0.02042   0.00000  Uiso   1.00
C425   C     0.20501   0.80314   0.45816   0.00000  Uiso   1.00
C426   C     0.22903   0.78708   0.47779   0.00000  Uiso   1.00
C427   C     0.21793   0.79109   0.01899   0.00000  Uiso   1.00
C428   C     0.18041   0.81037   0.04080   0.00000  Uiso   1.00
C429   C     0.24358   0.77592   0.03868   0.00000  Uiso   1.00
C430   C     0.23240   0.78064   0.08005   0.00000  Uiso   1.00
C431   C     0.17347   0.82019   0.08196   0.00000  Uiso   1.00
H432   H     0.04995   0.84455   0.03714   0.00000  Uiso   1.00
H433   H     0.25694   0.77206   0.46011   0.00000  Uiso   1.00
H434   H     0.18841   0.83789   0.40222   0.00000  Uiso   1.00
H435   H     0.09370   0.81864   0.06935   0.00000  Uiso   1.00
H436   H     0.21609   0.79881   0.42648   0.00000  Uiso   1.00
C437   C     0.32710   0.84283   0.23749   0.00000  Uiso   1.00
H438   H     0.01690   0.85980   0.21460   0.00000  Uiso   1.00
C439   C     0.00709   0.82436   0.26219   0.00000  Uiso   1.00
H440   H     0.31793   0.80746   0.28543   0.00000  Uiso   1.00
C441   C     0.18090   0.98883   0.23806   0.00000  Uiso   1.00
H442   H     0.20803   0.66944   0.21592   0.00000  Uiso   1.00
C443   C     0.15152   0.67876   0.26211   0.00000  Uiso   1.00
H444   H     0.12401   0.99891   0.28433   0.00000  Uiso   1.00
N445   N     0.28019   0.75449   0.01688   0.00000  Uiso   1.00
O446   O     0.28116   0.71584   0.02187   0.00000  Uiso   1.00
O447   O     0.31440   0.77485   0.49531   0.00000  Uiso   1.00
Cl448  Cl    0.14252   0.86106   0.10878   0.00000  Uiso   1.00
N449   N     0.25808   0.76490   0.10029   0.00000  Uiso   1.00
O450   O     0.23957   0.74365   0.13024   0.00000  Uiso   1.00
O451   O     0.30007   0.77242   0.08931   0.00000  Uiso   1.00
Cl452  Cl    0.02115   0.87775   0.48794   0.00000  Uiso   1.00
N453   N     0.06118   0.88253   0.40238   0.00000  Uiso   1.00
O454   O     0.06798   0.92108   0.39411   0.00000  Uiso   1.00
O455   O     0.02692   0.85889   0.39725   0.00000  Uiso   1.00
Zn456  Zn    0.52577   0.80756   0.28278   0.00000  Uiso   1.00
Zn457  Zn    0.46792   0.79044   0.22258   0.00000  Uiso   1.00
Zn458  Zn    0.54500   0.86331   0.21188   0.00000  Uiso   1.00
Zn459  Zn    0.46131   0.87202   0.28277   0.00000  Uiso   1.00
O460   O     0.50000   0.83333   0.25000   0.00000  Uiso   1.00
O461   O     0.40323   0.85627   0.27820   0.00000  Uiso   1.00
O462   O     0.58773   0.81944   0.26768   0.00000  Uiso   1.00
O463   O     0.47133   0.73570   0.23607   0.00000  Uiso   1.00
O464   O     0.53771   0.92193   0.21806   0.00000  Uiso   1.00
O465   O     0.49027   0.79060   0.16625   0.00000  Uiso   1.00
O466   O     0.46020   0.87313   0.33749   0.00000  Uiso   1.00
O467   O     0.54421   0.84159   0.15877   0.00000  Uiso   1.00
O468   O     0.50532   0.82802   0.33749   0.00000  Uiso   1.00
O469   O     0.51182   0.74768   0.27821   0.00000  Uiso   1.00
O470   O     0.47914   0.92803   0.26767   0.00000  Uiso   1.00
O471   O     0.40785   0.79917   0.23607   0.00000  Uiso   1.00
O472   O     0.60119   0.85845   0.21806   0.00000  Uiso   1.00
C473   C     0.38582   0.82664   0.25873   0.00000  Uiso   1.00
C474   C     0.61441   0.84024   0.24117   0.00000  Uiso   1.00
C475   C     0.48926   0.72279   0.25889   0.00000  Uiso   1.00
C476   C     0.51019   0.94436   0.24134   0.00000  Uiso   1.00
C477   C     0.52166   0.81191   0.14404   0.00000  Uiso   1.00
C478   C     0.47806   0.85390   0.35633   0.00000  Uiso   1.00
C479   C     0.46325   0.85687   0.39981   0.00000  Uiso   1.00
C480   C     0.53097   0.80320   0.10135   0.00000  Uiso   1.00
C481   C     0.40639   0.86313   0.46177   0.00000  Uiso   1.00
C482   C     0.42181   0.86785   0.42139   0.00000  Uiso   1.00
C483   C     0.48937   0.84330   0.41930   0.00000  Uiso   1.00
C484   C     0.47425   0.83698   0.45939   0.00000  Uiso   1.00
C485   C     0.43213   0.84712   0.48074   0.00000  Uiso   1.00
C486   C     0.49996   0.82085   0.47886   0.00000  Uiso   1.00
C487   C     0.48555   0.82038   0.02034   0.00000  Uiso   1.00
C488   C     0.44213   0.82631   0.03960   0.00000  Uiso   1.00
C489   C     0.41614   0.83994   0.02042   0.00000  Uiso   1.00
C490   C     0.53835   0.80314   0.45816   0.00000  Uiso   1.00
C491   C     0.56236   0.78708   0.47779   0.00000  Uiso   1.00
C492   C     0.55126   0.79109   0.01899   0.00000  Uiso   1.00
C493   C     0.51374   0.81037   0.04080   0.00000  Uiso   1.00
C494   C     0.57692   0.77592   0.03868   0.00000  Uiso   1.00
C495   C     0.56573   0.78064   0.08005   0.00000  Uiso   1.00
C496   C     0.50680   0.82019   0.08196   0.00000  Uiso   1.00
H497   H     0.38328   0.84455   0.03714   0.00000  Uiso   1.00
H498   H     0.59027   0.77206   0.46011   0.00000  Uiso   1.00
H499   H     0.52175   0.83789   0.40222   0.00000  Uiso   1.00
H500   H     0.42703   0.81864   0.06935   0.00000  Uiso   1.00
H501   H     0.54942   0.79881   0.42648   0.00000  Uiso   1.00
C502   C     0.66043   0.84283   0.23749   0.00000  Uiso   1.00
H503   H     0.35024   0.85980   0.21460   0.00000  Uiso   1.00
C504   C     0.34042   0.82436   0.26219   0.00000  Uiso   1.00
H505   H     0.65126   0.80746   0.28543   0.00000  Uiso   1.00
C506   C     0.51423   0.98883   0.23806   0.00000  Uiso   1.00
H507   H     0.54137   0.66944   0.21592   0.00000  Uiso   1.00
C508   C     0.48486   0.67876   0.26211   0.00000  Uiso   1.00
H509   H     0.45735   0.99891   0.28433   0.00000  Uiso   1.00
N510   N     0.61352   0.75449   0.01688   0.00000  Uiso   1.00
O511   O     0.61449   0.71584   0.02187   0.00000  Uiso   1.00
O512   O     0.64773   0.77485   0.49531   0.00000  Uiso   1.00
Cl513  Cl    0.47585   0.86106   0.10878   0.00000  Uiso   1.00
N514   N     0.59141   0.76490   0.10029   0.00000  Uiso   1.00
O515   O     0.57290   0.74365   0.13024   0.00000  Uiso   1.00
O516   O     0.63340   0.77242   0.08931   0.00000  Uiso   1.00
Cl517  Cl    0.35448   0.87775   0.48794   0.00000  Uiso   1.00
N518   N     0.39452   0.88253   0.40238   0.00000  Uiso   1.00
O519   O     0.40131   0.92108   0.39411   0.00000  Uiso   1.00
O520   O     0.36025   0.85889   0.39725   0.00000  Uiso   1.00
Zn521  Zn    0.85910   0.80756   0.28278   0.00000  Uiso   1.00
Zn522  Zn    0.80125   0.79044   0.22258   0.00000  Uiso   1.00
Zn523  Zn    0.87833   0.86331   0.21188   0.00000  Uiso   1.00
Zn524  Zn    0.79465   0.87202   0.28277   0.00000  Uiso   1.00
O525   O     0.83333   0.83333   0.25000   0.00000  Uiso   1.00
O526   O     0.73656   0.85627   0.27820   0.00000  Uiso   1.00
O527   O     0.92106   0.81944   0.26768   0.00000  Uiso   1.00
O528   O     0.80467   0.73570   0.23607   0.00000  Uiso   1.00
O529   O     0.87104   0.92193   0.21806   0.00000  Uiso   1.00
O530   O     0.82360   0.79060   0.16625   0.00000  Uiso   1.00
O531   O     0.79354   0.87313   0.33749   0.00000  Uiso   1.00
O532   O     0.87755   0.84159   0.15877   0.00000  Uiso   1.00
O533   O     0.83865   0.82802   0.33749   0.00000  Uiso   1.00
O534   O     0.84515   0.74768   0.27821   0.00000  Uiso   1.00
O535   O     0.81247   0.92803   0.26767   0.00000  Uiso   1.00
O536   O     0.74119   0.79917   0.23607   0.00000  Uiso   1.00
O537   O     0.93452   0.85845   0.21806   0.00000  Uiso   1.00
C538   C     0.71915   0.82664   0.25873   0.00000  Uiso   1.00
C539   C     0.94774   0.84024   0.24117   0.00000  Uiso   1.00
C540   C     0.82259   0.72279   0.25889   0.00000  Uiso   1.00
C541   C     0.84353   0.94436   0.24134   0.00000  Uiso   1.00
C542   C     0.85499   0.81191   0.14404   0.00000  Uiso   1.00
C543   C     0.81140   0.85390   0.35633   0.00000  Uiso   1.00
C544   C     0.79659   0.85687   0.39981   0.00000  Uiso   1.00
C545   C     0.86430   0.80320   0.10135   0.00000  Uiso   1.00
C546   C     0.73972   0.86313   0.46177   0.00000  Uiso   1.00
C547   C     0.75514   0.86785   0.42139   0.00000  Uiso   1.00
C548   C     0.82270   0.84330   0.41930   0.00000  Uiso   1.00
C549   C     0.80759   0.83698   0.45939   0.00000  Uiso   1.00
C550   C     0.76546   0.84712   0.48074   0.00000  Uiso   1.00
C551   C     0.83329   0.82085   0.47886   0.00000  Uiso   1.00
C552   C     0.81889   0.82038   0.02034   0.00000  Uiso   1.00
C553   C     0.77547   0.82631   0.03960   0.00000  Uiso   1.00
C554   C     0.74948   0.83994   0.02042   0.00000  Uiso   1.00
C555   C     0.87168   0.80314   0.45816   0.00000  Uiso   1.00
C556   C     0.89569   0.78708   0.47779   0.00000  Uiso   1.00
C557   C     0.88460   0.79109   0.01899   0.00000  Uiso   1.00
C558   C     0.84707   0.81037   0.04080   0.00000  Uiso   1.00
C559   C     0.91025   0.77592   0.03868   0.00000  Uiso   1.00
C560   C     0.89906   0.78064   0.08005   0.00000  Uiso   1.00
C561   C     0.84014   0.82019   0.08196   0.00000  Uiso   1.00
H562   H     0.71661   0.84455   0.03714   0.00000  Uiso   1.00
H563   H     0.92360   0.77206   0.46011   0.00000  Uiso   1.00
H564   H     0.85508   0.83789   0.40222   0.00000  Uiso   1.00
H565   H     0.76037   0.81864   0.06935   0.00000  Uiso   1.00
H566   H     0.88276   0.79881   0.42648   0.00000  Uiso   1.00
C567   C     0.99377   0.84283   0.23749   0.00000  Uiso   1.00
H568   H     0.68357   0.85980   0.21460   0.00000  Uiso   1.00
C569   C     0.67375   0.82436   0.26219   0.00000  Uiso   1.00
H570   H     0.98460   0.80746   0.28543   0.00000  Uiso   1.00
C571   C     0.84756   0.98883   0.23806   0.00000  Uiso   1.00
H572   H     0.87470   0.66944   0.21592   0.00000  Uiso   1.00
C573   C     0.81819   0.67876   0.26211   0.00000  Uiso   1.00
H574   H     0.79068   0.99891   0.28433   0.00000  Uiso   1.00
N575   N     0.94686   0.75449   0.01688   0.00000  Uiso   1.00
O576   O     0.94782   0.71584   0.02187   0.00000  Uiso   1.00
O577   O     0.98106   0.77485   0.49531   0.00000  Uiso   1.00
Cl578  Cl    0.80919   0.86106   0.10878   0.00000  Uiso   1.00
N579   N     0.92474   0.76490   0.10029   0.00000  Uiso   1.00
O580   O     0.90623   0.74365   0.13024   0.00000  Uiso   1.00
O581   O     0.96674   0.77242   0.08931   0.00000  Uiso   1.00
Cl582  Cl    0.68782   0.87775   0.48794   0.00000  Uiso   1.00
N583   N     0.72785   0.88253   0.40238   0.00000  Uiso   1.00
O584   O     0.73465   0.92108   0.39411   0.00000  Uiso   1.00
O585   O     0.69358   0.85889   0.39725   0.00000  Uiso   1.00
Zn586  Zn    0.19244   0.14090   0.78278   0.00000  Uiso   1.00
Zn587  Zn    0.13459   0.12378   0.72258   0.00000  Uiso   1.00
Zn588  Zn    0.21166   0.19664   0.71188   0.00000  Uiso   1.00
Zn589  Zn    0.12798   0.20535   0.78277   0.00000  Uiso   1.00
O590   O     0.16667   0.16667   0.75000   0.00000  Uiso   1.00
O591   O     0.06990   0.18960   0.77820   0.00000  Uiso   1.00
O592   O     0.25440   0.15277   0.76768   0.00000  Uiso   1.00
O593   O     0.13800   0.06903   0.73607   0.00000  Uiso   1.00
O594   O     0.20437   0.25527   0.71806   0.00000  Uiso   1.00
O595   O     0.15693   0.12393   0.66625   0.00000  Uiso   1.00
O596   O     0.12687   0.20646   0.83749   0.00000  Uiso   1.00
O597   O     0.21088   0.17493   0.65877   0.00000  Uiso   1.00
O598   O     0.17198   0.16135   0.83749   0.00000  Uiso   1.00
O599   O     0.17849   0.08101   0.77821   0.00000  Uiso   1.00
O600   O     0.14581   0.26136   0.76767   0.00000  Uiso   1.00
O601   O     0.07452   0.13251   0.73607   0.00000  Uiso   1.00
O602   O     0.26785   0.19179   0.71806   0.00000  Uiso   1.00
C603   C     0.05249   0.15998   0.75873   0.00000  Uiso   1.00
C604   C     0.28108   0.17357   0.74117   0.00000  Uiso   1.00
C605   C     0.15592   0.05612   0.75889   0.00000  Uiso   1.00
C606   C     0.17686   0.27769   0.74134   0.00000  Uiso   1.00
C607   C     0.18833   0.14524   0.64404   0.00000  Uiso   1.00
C608   C     0.14473   0.18724   0.85633   0.00000  Uiso   1.00
C609   C     0.12992   0.19020   0.89981   0.00000  Uiso   1.00
C610   C     0.19764   0.13653   0.60135   0.00000  Uiso   1.00
C611   C     0.07306   0.19646   0.96177   0.00000  Uiso   1.00
C612   C     0.08847   0.20118   0.92139   0.00000  Uiso   1.00
C613   C     0.15604   0.17664   0.91930   0.00000  Uiso   1.00
C614   C     0.14092   0.17032   0.95939   0.00000  Uiso   1.00
C615   C     0.09880   0.18046   0.98074   0.00000  Uiso   1.00
C616   C     0.16662   0.15418   0.97886   0.00000  Uiso   1.00
C617   C     0.15222   0.15372   0.52034   0.00000  Uiso   1.00
C618   C     0.10880   0.15964   0.53960   0.00000  Uiso   1.00
C619   C     0.08281   0.17328   0.52042   0.00000  Uiso   1.00
C620   C     0.20501   0.13647   0.95816   0.00000  Uiso   1.00
C621   C     0.22903   0.12041   0.97779   0.00000  Uiso   1.00
C622   C     0.21793   0.12443   0.51899   0.00000  Uiso   1.00
C623   C     0.18041   0.14371   0.54080   0.00000  Uiso   1.00
C624   C     0.24358   0.10926   0.53868   0.00000  Uiso   1.00
C625   C     0.23240   0.11397   0.58005   0.00000  Uiso   1.00
C626   C     0.17347   0.15352   0.58196   0.00000  Uiso   1.00
H627   H     0.04995   0.17788   0.53714   0.00000  Uiso   1.00
H628   H     0.25694   0.10540   0.96011   0.00000  Uiso   1.00
H629   H     0.18841   0.17122   0.90222   0.00000  Uiso   1.00
H630   H     0.09370   0.15198   0.56935   0.00000  Uiso   1.00
H631   H     0.21609   0.13214   0.92648   0.00000  Uiso   1.00
C632   C     0.32710   0.17617   0.73749   0.00000  Uiso   1.00
H633   H     0.01690   0.19313   0.71460   0.00000  Uiso   1.00
C634   C     0.00709   0.15769   0.76219   0.00000  Uiso   1.00
H635   H     0.31793   0.14079   0.78543   0.00000  Uiso   1.00
C636   C     0.18090   0.32217   0.73806   0.00000  Uiso   1.00
H637   H     0.20803   0.00277   0.71592   0.00000  Uiso   1.00
C638   C     0.15152   0.01209   0.76211   0.00000  Uiso   1.00
H639   H     0.12401   0.33225   0.78433   0.00000  Uiso   1.00
N640   N     0.28019   0.08783   0.51688   0.00000  Uiso   1.00
O641   O     0.28116   0.04917   0.52187   0.00000  Uiso   1.00
O642   O     0.31440   0.10819   0.99531   0.00000  Uiso   1.00
Cl643  Cl    0.14252   0.19439   0.60878   0.00000  Uiso   1.00
N644   N     0.25808   0.09823   0.60029   0.00000  Uiso   1.00
O645   O     0.23957   0.07699   0.63024   0.00000  Uiso   1.00
O646   O     0.30007   0.10575   0.58931   0.00000  Uiso   1.00
Cl647  Cl    0.02115   0.21108   0.98794   0.00000  Uiso   1.00
N648   N     0.06118   0.21587   0.90238   0.00000  Uiso   1.00
O649   O     0.06798   0.25441   0.89411   0.00000  Uiso   1.00
O650   O     0.02692   0.19222   0.89725   0.00000  Uiso   1.00
Zn651  Zn    0.52577   0.14090   0.78278   0.00000  Uiso   1.00
Zn652  Zn    0.46792   0.12378   0.72258   0.00000  Uiso   1.00
Zn653  Zn    0.54500   0.19664   0.71188   0.00000  Uiso   1.00
Zn654  Zn    0.46131   0.20535   0.78277   0.00000  Uiso   1.00
O655   O     0.50000   0.16667   0.75000   0.00000  Uiso   1.00
O656   O     0.40323   0.18960   0.77820   0.00000  Uiso   1.00
O657   O     0.58773   0.15277   0.76768   0.00000  Uiso   1.00
O658   O     0.47133   0.06903   0.73607   0.00000  Uiso   1.00
O659   O     0.53771   0.25527   0.71806   0.00000  Uiso   1.00
O660   O     0.49027   0.12393   0.66625   0.00000  Uiso   1.00
O661   O     0.46020   0.20646   0.83749   0.00000  Uiso   1.00
O662   O     0.54421   0.17493   0.65877   0.00000  Uiso   1.00
O663   O     0.50532   0.16135   0.83749   0.00000  Uiso   1.00
O664   O     0.51182   0.08101   0.77821   0.00000  Uiso   1.00
O665   O     0.47914   0.26136   0.76767   0.00000  Uiso   1.00
O666   O     0.40785   0.13251   0.73607   0.00000  Uiso   1.00
O667   O     0.60119   0.19179   0.71806   0.00000  Uiso   1.00
C668   C     0.38582   0.15998   0.75873   0.00000  Uiso   1.00
C669   C     0.61441   0.17357   0.74117   0.00000  Uiso   1.00
C670   C     0.48926   0.05612   0.75889   0.00000  Uiso   1.00
C671   C     0.51019   0.27769   0.74134   0.00000  Uiso   1.00
C672   C     0.52166   0.14524   0.64404   0.00000  Uiso   1.00
C673   C     0.47806   0.18724   0.85633   0.00000  Uiso   1.00
C674   C     0.46325   0.19020   0.89981   0.00000  Uiso   1.00
C675   C     0.53097   0.13653   0.60135   0.00000  Uiso   1.00
C676   C     0.40639   0.19646   0.96177   0.00000  Uiso   1.00
C677   C     0.42181   0.20118   0.92139   0.00000  Uiso   1.00
C678   C     0.48937   0.17664   0.91930   0.00000  Uiso   1.00
C679   C     0.47425   0.17032   0.95939   0.00000  Uiso   1.00
C680   C     0.43213   0.18046   0.98074   0.00000  Uiso   1.00
C681   C     0.49996   0.15418   0.97886   0.00000  Uiso   1.00
C682   C     0.48555   0.15372   0.52034   0.00000  Uiso   1.00
C683   C     0.44213   0.15964   0.53960   0.00000  Uiso   1.00
C684   C     0.41614   0.17328   0.52042   0.00000  Uiso   1.00
C685   C     0.53835   0.13647   0.95816   0.00000  Uiso   1.00
C686   C     0.56236   0.12041   0.97779   0.00000  Uiso   1.00
C687   C     0.55126   0.12443   0.51899   0.00000  Uiso   1.00
C688   C     0.51374   0.14371   0.54080   0.00000  Uiso   1.00
C689   C     0.57692   0.10926   0.53868   0.00000  Uiso   1.00
C690   C     0.56573   0.11397   0.58005   0.00000  Uiso   1.00
C691   C     0.50680   0.15352   0.58196   0.00000  Uiso   1.00
H692   H     0.38328   0.17788   0.53714   0.00000  Uiso   1.00
H693   H     0.59027   0.10540   0.96011   0.00000  Uiso   1.00
H694   H     0.52175   0.17122   0.90222   0.00000  Uiso   1.00
H695   H     0.42703   0.15198   0.56935   0.00000  Uiso   1.00
H696   H     0.54942   0.13214   0.92648   0.00000  Uiso   1.00
C697   C     0.66043   0.17617   0.73749   0.00000  Uiso   1.00
H698   H     0.35024   0.19313   0.71460   0.00000  Uiso   1.00
C699   C     0.34042   0.15769   0.76219   0.00000  Uiso   1.00
H700   H     0.65126   0.14079   0.78543   0.00000  Uiso   1.00
C701   C     0.51423   0.32217   0.73806   0.00000  Uiso   1.00
H702   H     0.54137   0.00277   0.71592   0.00000  Uiso   1.00
C703   C     0.48486   0.01209   0.76211   0.00000  Uiso   1.00
H704   H     0.45735   0.33225   0.78433   0.00000  Uiso   1.00
N705   N     0.61352   0.08783   0.51688   0.00000  Uiso   1.00
O706   O     0.61449   0.04917   0.52187   0.00000  Uiso   1.00
O707   O     0.64773   0.10819   0.99531   0.00000  Uiso   1.00
Cl708  Cl    0.47585   0.19439   0.60878   0.00000  Uiso   1.00
N709   N     0.59141   0.09823   0.60029   0.00000  Uiso   1.00
O710   O     0.57290   0.07699   0.63024   0.00000  Uiso   1.00
O711   O     0.63340   0.10575   0.58931   0.00000  Uiso   1.00
Cl712  Cl    0.35448   0.21108   0.98794   0.00000  Uiso   1.00
N713   N     0.39452   0.21587   0.90238   0.00000  Uiso   1.00
O714   O     0.40131   0.25441   0.89411   0.00000  Uiso   1.00
O715   O     0.36025   0.19222   0.89725   0.00000  Uiso   1.00
Zn716  Zn    0.85910   0.14090   0.78278   0.00000  Uiso   1.00
Zn717  Zn    0.80125   0.12378   0.72258   0.00000  Uiso   1.00
Zn718  Zn    0.87833   0.19664   0.71188   0.00000  Uiso   1.00
Zn719  Zn    0.79465   0.20535   0.78277   0.00000  Uiso   1.00
O720   O     0.83333   0.16667   0.75000   0.00000  Uiso   1.00
O721   O     0.73656   0.18960   0.77820   0.00000  Uiso   1.00
O722   O     0.92106   0.15277   0.76768   0.00000  Uiso   1.00
O723   O     0.80467   0.06903   0.73607   0.00000  Uiso   1.00
O724   O     0.87104   0.25527   0.71806   0.00000  Uiso   1.00
O725   O     0.82360   0.12393   0.66625   0.00000  Uiso   1.00
O726   O     0.79354   0.20646   0.83749   0.00000  Uiso   1.00
O727   O     0.87755   0.17493   0.65877   0.00000  Uiso   1.00
O728   O     0.83865   0.16135   0.83749   0.00000  Uiso   1.00
O729   O     0.84515   0.08101   0.77821   0.00000  Uiso   1.00
O730   O     0.81247   0.26136   0.76767   0.00000  Uiso   1.00
O731   O     0.74119   0.13251   0.73607   0.00000  Uiso   1.00
O732   O     0.93452   0.19179   0.71806   0.00000  Uiso   1.00
C733   C     0.71915   0.15998   0.75873   0.00000  Uiso   1.00
C734   C     0.94774   0.17357   0.74117   0.00000  Uiso   1.00
C735   C     0.82259   0.05612   0.75889   0.00000  Uiso   1.00
C736   C     0.84353   0.27769   0.74134   0.00000  Uiso   1.00
C737   C     0.85499   0.14524   0.64404   0.00000  Uiso   1.00
C738   C     0.81140   0.18724   0.85633   0.00000  Uiso   1.00
C739   C     0.79659   0.19020   0.89981   0.00000  Uiso   1.00
C740   C     0.86430   0.13653   0.60135   0.00000  Uiso   1.00
C741   C     0.73972   0.19646   0.96177   0.00000  Uiso   1.00
C742   C     0.75514   0.20118   0.92139   0.00000  Uiso   1.00
C743   C     0.82270   0.17664   0.91930   0.00000  Uiso   1.00
C744   C     0.80759   0.17032   0.95939   0.00000  Uiso   1.00
C745   C     0.76546   0.18046   0.98074   0.00000  Uiso   1.00
C746   C     0.83329   0.15418   0.97886   0.00000  Uiso   1.00
C747   C     0.81889   0.15372   0.52034   0.00000  Uiso   1.00
C748   C     0.77547   0.15964   0.53960   0.00000  Uiso   1.00
C749   C     0.74948   0.17328   0.52042   0.00000  Uiso   1.00
C750   C     0.87168   0.13647   0.95816   0.00000  Uiso   1.00
C751   C     0.89569   0.12041   0.97779   0.00000  Uiso   1.00
C752   C     0.88460   0.12443   0.51899   0.00000  Uiso   1.00
C753   C     0.84707   0.14371   0.54080   0.00000  Uiso   1.00
C754   C     0.91025   0.10926   0.53868   0.00000  Uiso   1.00
C755   C     0.89906   0.11397   0.58005   0.00000  Uiso   1.00
C756   C     0.84014   0.15352   0.58196   0.00000  Uiso   1.00
H757   H     0.71661   0.17788   0.53714   0.00000  Uiso   1.00
H758   H     0.92360   0.10540   0.96011   0.00000  Uiso   1.00
H759   H     0.85508   0.17122   0.90222   0.00000  Uiso   1.00
H760   H     0.76037   0.15198   0.56935   0.00000  Uiso   1.00
H761   H     0.88276   0.13214   0.92648   0.00000  Uiso   1.00
C762   C     0.99377   0.17617   0.73749   0.00000  Uiso   1.00
H763   H     0.68357   0.19313   0.71460   0.00000  Uiso   1.00
C764   C     0.67375   0.15769   0.76219   0.00000  Uiso   1.00
H765   H     0.98460   0.14079   0.78543   0.00000  Uiso   1.00
C766   C     0.84756   0.32217   0.73806   0.00000  Uiso   1.00
H767   H     0.87470   0.00277   0.71592   0.00000  Uiso   1.00
C768   C     0.81819   0.01209   0.76211   0.00000  Uiso   1.00
H769   H     0.79068   0.33225   0.78433   0.00000  Uiso   1.00
N770   N     0.94686   0.08783   0.51688   0.00000  Uiso   1.00
O771   O     0.94782   0.04917   0.52187   0.00000  Uiso   1.00
O772   O     0.98106   0.10819   0.99531   0.00000  Uiso   1.00
Cl773  Cl    0.80919   0.19439   0.60878   0.00000  Uiso   1.00
N774   N     0.92474   0.09823   0.60029   0.00000  Uiso   1.00
O775   O     0.90623   0.07699   0.63024   0.00000  Uiso   1.00
O776   O     0.96674   0.10575   0.58931   0.00000  Uiso   1.00
Cl777  Cl    0.68782   0.21108   0.98794   0.00000  Uiso   1.00
N778   N     0.72785   0.21587   0.90238   0.00000  Uiso   1.00
O779   O     0.73465   0.25441   0.89411   0.00000  Uiso   1.00
O780   O     0.69358   0.19222   0.89725   0.00000  Uiso   1.00
Zn781  Zn    0.19244   0.47423   0.78278   0.00000  Uiso   1.00
Zn782  Zn    0.13459   0.45711   0.72258   0.00000  Uiso   1.00
Zn783  Zn    0.21166   0.52997   0.71188   0.00000  Uiso   1.00
Zn784  Zn    0.12798   0.53868   0.78277   0.00000  Uiso   1.00
O785   O     0.16667   0.50000   0.75000   0.00000  Uiso   1.00
O786   O     0.06990   0.52293   0.77820   0.00000  Uiso   1.00
O787   O     0.25440   0.48610   0.76768   0.00000  Uiso   1.00
O788   O     0.13800   0.40236   0.73607   0.00000  Uiso   1.00
O789   O     0.20437   0.58860   0.71806   0.00000  Uiso   1.00
O790   O     0.15693   0.45726   0.66625   0.00000  Uiso   1.00
O791   O     0.12687   0.53979   0.83749   0.00000  Uiso   1.00
O792   O     0.21088   0.50826   0.65877   0.00000  Uiso   1.00
O793   O     0.17198   0.49468   0.83749   0.00000  Uiso   1.00
O794   O     0.17849   0.41434   0.77821   0.00000  Uiso   1.00
O795   O     0.14581   0.59469   0.76767   0.00000  Uiso   1.00
O796   O     0.07452   0.46584   0.73607   0.00000  Uiso   1.00
O797   O     0.26785   0.52512   0.71806   0.00000  Uiso   1.00
C798   C     0.05249   0.49331   0.75873   0.00000  Uiso   1.00
C799   C     0.28108   0.50691   0.74117   0.00000  Uiso   1.00
C800   C     0.15592   0.38945   0.75889   0.00000  Uiso   1.00
C801   C     0.17686   0.61102   0.74134   0.00000  Uiso   1.00
C802   C     0.18833   0.47858   0.64404   0.00000  Uiso   1.00
C803   C     0.14473   0.52057   0.85633   0.00000  Uiso   1.00
C804   C     0.12992   0.52353   0.89981   0.00000  Uiso   1.00
C805   C     0.19764   0.46986   0.60135   0.00000  Uiso   1.00
C806   C     0.07306   0.52979   0.96177   0.00000  Uiso   1.00
C807   C     0.08847   0.53451   0.92139   0.00000  Uiso   1.00
C808   C     0.15604   0.50997   0.91930   0.00000  Uiso   1.00
C809   C     0.14092   0.50365   0.95939   0.00000  Uiso   1.00
C810   C     0.09880   0.51379   0.98074   0.00000  Uiso   1.00
C811   C     0.16662   0.48752   0.97886   0.00000  Uiso   1.00
C812   C     0.15222   0.48705   0.52034   0.00000  Uiso   1.00
C813   C     0.10880   0.49297   0.53960   0.00000  Uiso   1.00
C814   C     0.08281   0.50661   0.52042   0.00000  Uiso   1.00
C815   C     0.20501   0.46980   0.95816   0.00000  Uiso   1.00
C816   C     0.22903   0.45375   0.97779   0.00000  Uiso   1.00
C817   C     0.21793   0.45776   0.51899   0.00000  Uiso   1.00
C818   C     0.18041   0.47704   0.54080   0.00000  Uiso   1.00
C819   C     0.24358   0.44259   0.53868   0.00000  Uiso   1.00
C820   C     0.23240   0.44731   0.58005   0.00000  Uiso   1.00
C821   C     0.17347   0.48685   0.58196   0.00000  Uiso   1.00
H822   H     0.04995   0.51121   0.53714   0.00000  Uiso   1.00
H823   H     0.25694   0.43873   0.96011   0.00000  Uiso   1.00
H824   H     0.18841   0.50455   0.90222   0.00000  Uiso   1.00
H825   H     0.09370   0.48531   0.56935   0.00000  Uiso   1.00
H826   H     0.21609   0.46548   0.92648   0.00000  Uiso   1.00
C827   C     0.32710   0.50950   0.73749   0.00000  Uiso   1.00
H828   H     0.01690   0.52646   0.71460   0.00000  Uiso   1.00
C829   C     0.00709   0.49102   0.76219   0.00000  Uiso   1.00
H830   H     0.31793   0.47412   0.78543   0.00000  Uiso   1.00
C831   C     0.18090   0.65550   0.73806   0.00000  Uiso   1.00
H832   H     0.20803   0.33611   0.71592   0.00000  Uiso   1.00
C833   C     0.15152   0.34542   0.76211   0.00000  Uiso   1.00
H834   H     0.12401   0.66558   0.78433   0.00000  Uiso   1.00
N835   N     0.28019   0.42116   0.51688   0.00000  Uiso   1.00
O836   O     0.28116   0.38250   0.52187   0.00000  Uiso   1.00
O837   O     0.31440   0.44152   0.99531   0.00000  Uiso   1.00
Cl838  Cl    0.14252   0.52772   0.60878   0.00000  Uiso   1.00
N839   N     0.25808   0.43157   0.60029   0.00000  Uiso   1.00
O840   O     0.23957   0.41032   0.63024   0.00000  Uiso   1.00
O841   O     0.30007   0.43908   0.58931   0.00000  Uiso   1.00
Cl842  Cl    0.02115   0.54442   0.98794   0.00000  Uiso   1.00
N843   N     0.06118   0.54920   0.90238   0.00000  Uiso   1.00
O844   O     0.06798   0.58774   0.89411   0.00000  Uiso   1.00
O845   O     0.02692   0.52555   0.89725   0.00000  Uiso   1.00
Zn846  Zn    0.52577   0.47423   0.78278   0.00000  Uiso   1.00
Zn847  Zn    0.46792   0.45711   0.72258   0.00000  Uiso   1.00
Zn848  Zn    0.54500   0.52997   0.71188   0.00000  Uiso   1.00
Zn849  Zn    0.46131   0.53868   0.78277   0.00000  Uiso   1.00
O850   O     0.50000   0.50000   0.75000   0.00000  Uiso   1.00
O851   O     0.40323   0.52293   0.77820   0.00000  Uiso   1.00
O852   O     0.58773   0.48610   0.76768   0.00000  Uiso   1.00
O853   O     0.47133   0.40236   0.73607   0.00000  Uiso   1.00
O854   O     0.53771   0.58860   0.71806   0.00000  Uiso   1.00
O855   O     0.49027   0.45726   0.66625   0.00000  Uiso   1.00
O856   O     0.46020   0.53979   0.83749   0.00000  Uiso   1.00
O857   O     0.54421   0.50826   0.65877   0.00000  Uiso   1.00
O858   O     0.50532   0.49468   0.83749   0.00000  Uiso   1.00
O859   O     0.51182   0.41434   0.77821   0.00000  Uiso   1.00
O860   O     0.47914   0.59469   0.76767   0.00000  Uiso   1.00
O861   O     0.40785   0.46584   0.73607   0.00000  Uiso   1.00
O862   O     0.60119   0.52512   0.71806   0.00000  Uiso   1.00
C863   C     0.38582   0.49331   0.75873   0.00000  Uiso   1.00
C864   C     0.61441   0.50691   0.74117   0.00000  Uiso   1.00
C865   C     0.48926   0.38945   0.75889   0.00000  Uiso   1.00
C866   C     0.51019   0.61102   0.74134   0.00000  Uiso   1.00
C867   C     0.52166   0.47858   0.64404   0.00000  Uiso   1.00
C868   C     0.47806   0.52057   0.85633   0.00000  Uiso   1.00
C869   C     0.46325   0.52353   0.89981   0.00000  Uiso   1.00
C870   C     0.53097   0.46986   0.60135   0.00000  Uiso   1.00
C871   C     0.40639   0.52979   0.96177   0.00000  Uiso   1.00
C872   C     0.42181   0.53451   0.92139   0.00000  Uiso   1.00
C873   C     0.48937   0.50997   0.91930   0.00000  Uiso   1.00
C874   C     0.47425   0.50365   0.95939   0.00000  Uiso   1.00
C875   C     0.43213   0.51379   0.98074   0.00000  Uiso   1.00
C876   C     0.49996   0.48752   0.97886   0.00000  Uiso   1.00
C877   C     0.48555   0.48705   0.52034   0.00000  Uiso   1.00
C878   C     0.44213   0.49297   0.53960   0.00000  Uiso   1.00
C879   C     0.41614   0.50661   0.52042   0.00000  Uiso   1.00
C880   C     0.53835   0.46980   0.95816   0.00000  Uiso   1.00
C881   C     0.56236   0.45375   0.97779   0.00000  Uiso   1.00
C882   C     0.55126   0.45776   0.51899   0.00000  Uiso   1.00
C883   C     0.51374   0.47704   0.54080   0.00000  Uiso   1.00
C884   C     0.57692   0.44259   0.53868   0.00000  Uiso   1.00
C885   C     0.56573   0.44731   0.58005   0.00000  Uiso   1.00
C886   C     0.50680   0.48685   0.58196   0.00000  Uiso   1.00
H887   H     0.38328   0.51121   0.53714   0.00000  Uiso   1.00
H888   H     0.59027   0.43873   0.96011   0.00000  Uiso   1.00
H889   H     0.52175   0.50455   0.90222   0.00000  Uiso   1.00
H890   H     0.42703   0.48531   0.56935   0.00000  Uiso   1.00
H891   H     0.54942   0.46548   0.92648   0.00000  Uiso   1.00
C892   C     0.66043   0.50950   0.73749   0.00000  Uiso   1.00
H893   H     0.35024   0.52646   0.71460   0.00000  Uiso   1.00
C894   C     0.34042   0.49102   0.76219   0.00000  Uiso   1.00
H895   H     0.65126   0.47412   0.78543   0.00000  Uiso   1.00
C896   C     0.51423   0.65550   0.73806   0.00000  Uiso   1.00
H897   H     0.54137   0.33611   0.71592   0.00000  Uiso   1.00
C898   C     0.48486   0.34542   0.76211   0.00000  Uiso   1.00
H899   H     0.45735   0.66558   0.78433   0.00000  Uiso   1.00
N900   N     0.61352   0.42116   0.51688   0.00000  Uiso   1.00
O901   O     0.61449   0.38250   0.52187   0.00000  Uiso   1.00
O902   O     0.64773   0.44152   0.99531   0.00000  Uiso   1.00
Cl903  Cl    0.47585   0.52772   0.60878   0.00000  Uiso   1.00
N904   N     0.59141   0.43157   0.60029   0.00000  Uiso   1.00
O905   O     0.57290   0.41032   0.63024   0.00000  Uiso   1.00
O906   O     0.63340   0.43908   0.58931   0.00000  Uiso   1.00
Cl907  Cl    0.35448   0.54442   0.98794   0.00000  Uiso   1.00
N908   N     0.39452   0.54920   0.90238   0.00000  Uiso   1.00
O909   O     0.40131   0.58774   0.89411   0.00000  Uiso   1.00
O910   O     0.36025   0.52555   0.89725   0.00000  Uiso   1.00
Zn911  Zn    0.85910   0.47423   0.78278   0.00000  Uiso   1.00
Zn912  Zn    0.80125   0.45711   0.72258   0.00000  Uiso   1.00
Zn913  Zn    0.87833   0.52997   0.71188   0.00000  Uiso   1.00
Zn914  Zn    0.79465   0.53868   0.78277   0.00000  Uiso   1.00
O915   O     0.83333   0.50000   0.75000   0.00000  Uiso   1.00
O916   O     0.73656   0.52293   0.77820   0.00000  Uiso   1.00
O917   O     0.92106   0.48610   0.76768   0.00000  Uiso   1.00
O918   O     0.80467   0.40236   0.73607   0.00000  Uiso   1.00
O919   O     0.87104   0.58860   0.71806   0.00000  Uiso   1.00
O920   O     0.82360   0.45726   0.66625   0.00000  Uiso   1.00
O921   O     0.79354   0.53979   0.83749   0.00000  Uiso   1.00
O922   O     0.87755   0.50826   0.65877   0.00000  Uiso   1.00
O923   O     0.83865   0.49468   0.83749   0.00000  Uiso   1.00
O924   O     0.84515   0.41434   0.77821   0.00000  Uiso   1.00
O925   O     0.81247   0.59469   0.76767   0.00000  Uiso   1.00
O926   O     0.74119   0.46584   0.73607   0.00000  Uiso   1.00
O927   O     0.93452   0.52512   0.71806   0.00000  Uiso   1.00
C928   C     0.71915   0.49331   0.75873   0.00000  Uiso   1.00
C929   C     0.94774   0.50691   0.74117   0.00000  Uiso   1.00
C930   C     0.82259   0.38945   0.75889   0.00000  Uiso   1.00
C931   C     0.84353   0.61102   0.74134   0.00000  Uiso   1.00
C932   C     0.85499   0.47858   0.64404   0.00000  Uiso   1.00
C933   C     0.81140   0.52057   0.85633   0.00000  Uiso   1.00
C934   C     0.79659   0.52353   0.89981   0.00000  Uiso   1.00
C935   C     0.86430   0.46986   0.60135   0.00000  Uiso   1.00
C936   C     0.73972   0.52979   0.96177   0.00000  Uiso   1.00
C937   C     0.75514   0.53451   0.92139   0.00000  Uiso   1.00
C938   C     0.82270   0.50997   0.91930   0.00000  Uiso   1.00
C939   C     0.80759   0.50365   0.95939   0.00000  Uiso   1.00
C940   C     0.76546   0.51379   0.98074   0.00000  Uiso   1.00
C941   C     0.83329   0.48752   0.97886   0.00000  Uiso   1.00
C942   C     0.81889   0.48705   0.52034   0.00000  Uiso   1.00
C943   C     0.77547   0.49297   0.53960   0.00000  Uiso   1.00
C944   C     0.74948   0.50661   0.52042   0.00000  Uiso   1.00
C945   C     0.87168   0.46980   0.95816   0.00000  Uiso   1.00
C946   C     0.89569   0.45375   0.97779   0.00000  Uiso   1.00
C947   C     0.88460   0.45776   0.51899   0.00000  Uiso   1.00
C948   C     0.84707   0.47704   0.54080   0.00000  Uiso   1.00
C949   C     0.91025   0.44259   0.53868   0.00000  Uiso   1.00
C950   C     0.89906   0.44731   0.58005   0.00000  Uiso   1.00
C951   C     0.84014   0.48685   0.58196   0.00000  Uiso   1.00
H952   H     0.71661   0.51121   0.53714   0.00000  Uiso   1.00
H953   H     0.92360   0.43873   0.96011   0.00000  Uiso   1.00
H954   H     0.85508   0.50455   0.90222   0.00000  Uiso   1.00
H955   H     0.76037   0.48531   0.56935   0.00000  Uiso   1.00
H956   H     0.88276   0.46548   0.92648   0.00000  Uiso   1.00
C957   C     0.99377   0.50950   0.73749   0.00000  Uiso   1.00
H958   H     0.68357   0.52646   0.71460   0.00000  Uiso   1.00
C959   C     0.67375   0.49102   0.76219   0.00000  Uiso   1.00
H960   H     0.98460   0.47412   0.78543   0.00000  Uiso   1.00
C961   C     0.84756   0.65550   0.73806   0.00000  Uiso   1.00
H962   H     0.87470   0.33611   0.71592   0.00000  Uiso   1.00
C963   C     0.81819   0.34542   0.76211   0.00000  Uiso   1.00
H964   H     0.79068   0.66558   0.78433   0.00000  Uiso   1.00
N965   N     0.94686   0.42116   0.51688   0.00000  Uiso   1.00
O966   O     0.94782   0.38250   0.52187   0.00000  Uiso   1.00
O967   O     0.98106   0.44152   0.99531   0.00000  Uiso   1.00
Cl968  Cl    0.80919   0.52772   0.60878   0.00000  Uiso   1.00
N969   N     0.92474   0.43157   0.60029   0.00000  Uiso   1.00
O970   O     0.90623   0.41032   0.63024   0.00000  Uiso   1.00
O971   O     0.96674   0.43908   0.58931   0.00000  Uiso   1.00
Cl972  Cl    0.68782   0.54442   0.98794   0.00000  Uiso   1.00
N973   N     0.72785   0.54920   0.90238   0.00000  Uiso   1.00
O974   O     0.73465   0.58774   0.89411   0.00000  Uiso   1.00
O975   O     0.69358   0.52555   0.89725   0.00000  Uiso   1.00
Zn976  Zn    0.19244   0.80756   0.78278   0.00000  Uiso   1.00
Zn977  Zn    0.13459   0.79044   0.72258   0.00000  Uiso   1.00
Zn978  Zn    0.21166   0.86331   0.71188   0.00000  Uiso   1.00
Zn979  Zn    0.12798   0.87202   0.78277   0.00000  Uiso   1.00
O980   O     0.16667   0.83333   0.75000   0.00000  Uiso   1.00
O981   O     0.06990   0.85627   0.77820   0.00000  Uiso   1.00
O982   O     0.25440   0.81944   0.76768   0.00000  Uiso   1.00
O983   O     0.13800   0.73570   0.73607   0.00000  Uiso   1.00
O984   O     0.20437   0.92193   0.71806   0.00000  Uiso   1.00
O985   O     0.15693   0.79060   0.66625   0.00000  Uiso   1.00
O986   O     0.12687   0.87313   0.83749   0.00000  Uiso   1.00
O987   O     0.21088   0.84159   0.65877   0.00000  Uiso   1.00
O988   O     0.17198   0.82802   0.83749   0.00000  Uiso   1.00
O989   O     0.17849   0.74768   0.77821   0.00000  Uiso   1.00
O990   O     0.14581   0.92803   0.76767   0.00000  Uiso   1.00
O991   O     0.07452   0.79917   0.73607   0.00000  Uiso   1.00
O992   O     0.26785   0.85845   0.71806   0.00000  Uiso   1.00
C993   C     0.05249   0.82664   0.75873   0.00000  Uiso   1.00
C994   C     0.28108   0.84024   0.74117   0.00000  Uiso   1.00
C995   C     0.15592   0.72279   0.75889   0.00000  Uiso   1.00
C996   C     0.17686   0.94436   0.74134   0.00000  Uiso   1.00
C997   C     0.18833   0.81191   0.64404   0.00000  Uiso   1.00
C998   C     0.14473   0.85390   0.85633   0.00000  Uiso   1.00
C999   C     0.12992   0.85687   0.89981   0.00000  Uiso   1.00
C1000  C     0.19764   0.80320   0.60135   0.00000  Uiso   1.00
C1001  C     0.07306   0.86313   0.96177   0.00000  Uiso   1.00
C1002  C     0.08847   0.86785   0.92139   0.00000  Uiso   1.00
C1003  C     0.15604   0.84330   0.91930   0.00000  Uiso   1.00
C1004  C     0.14092   0.83698   0.95939   0.00000  Uiso   1.00
C1005  C     0.09880   0.84712   0.98074   0.00000  Uiso   1.00
C1006  C     0.16662   0.82085   0.97886   0.00000  Uiso   1.00
C1007  C     0.15222   0.82038   0.52034   0.00000  Uiso   1.00
C1008  C     0.10880   0.82631   0.53960   0.00000  Uiso   1.00
C1009  C     0.08281   0.83994   0.52042   0.00000  Uiso   1.00
C1010  C     0.20501   0.80314   0.95816   0.00000  Uiso   1.00
C1011  C     0.22903   0.78708   0.97779   0.00000  Uiso   1.00
C1012  C     0.21793   0.79109   0.51899   0.00000  Uiso   1.00
C1013  C     0.18041   0.81037   0.54080   0.00000  Uiso   1.00
C1014  C     0.24358   0.77592   0.53868   0.00000  Uiso   1.00
C1015  C     0.23240   0.78064   0.58005   0.00000  Uiso   1.00
C1016  C     0.17347   0.82019   0.58196   0.00000  Uiso   1.00
H1017  H     0.04995   0.84455   0.53714   0.00000  Uiso   1.00
H1018  H     0.25694   0.77206   0.96011   0.00000  Uiso   1.00
H1019  H     0.18841   0.83789   0.90222   0.00000  Uiso   1.00
H1020  H     0.09370   0.81864   0.56935   0.00000  Uiso   1.00
H1021  H     0.21609   0.79881   0.92648   0.00000  Uiso   1.00
C1022  C     0.32710   0.84283   0.73749   0.00000  Uiso   1.00
H1023  H     0.01690   0.85980   0.71460   0.00000  Uiso   1.00
C1024  C     0.00709   0.82436   0.76219   0.00000  Uiso   1.00
H1025  H     0.31793   0.80746   0.78543   0.00000  Uiso   1.00
C1026  C     0.18090   0.98883   0.73806   0.00000  Uiso   1.00
H1027  H     0.20803   0.66944   0.71592   0.00000  Uiso   1.00
C1028  C     0.15152   0.67876   0.76211   0.00000  Uiso   1.00
H1029  H     0.12401   0.99891   0.78433   0.00000  Uiso   1.00
N1030  N     0.28019   0.75449   0.51688   0.00000  Uiso   1.00
O1031  O     0.28116   0.71584   0.52187   0.00000  Uiso   1.00
O1032  O     0.31440   0.77485   0.99531   0.00000  Uiso   1.00
Cl1033 Cl    0.14252   0.86106   0.60878   0.00000  Uiso   1.00
N1034  N     0.25808   0.76490   0.60029   0.00000  Uiso   1.00
O1035  O     0.23957   0.74365   0.63024   0.00000  Uiso   1.00
O1036  O     0.30007   0.77242   0.58931   0.00000  Uiso   1.00
Cl1037 Cl    0.02115   0.87775   0.98794   0.00000  Uiso   1.00
N1038  N     0.06118   0.88253   0.90238   0.00000  Uiso   1.00
O1039  O     0.06798   0.92108   0.89411   0.00000  Uiso   1.00
O1040  O     0.02692   0.85889   0.89725   0.00000  Uiso   1.00
Zn1041 Zn    0.52577   0.80756   0.78278   0.00000  Uiso   1.00
Zn1042 Zn    0.46792   0.79044   0.72258   0.00000  Uiso   1.00
Zn1043 Zn    0.54500   0.86331   0.71188   0.00000  Uiso   1.00
Zn1044 Zn    0.46131   0.87202   0.78277   0.00000  Uiso   1.00
O1045  O     0.50000   0.83333   0.75000   0.00000  Uiso   1.00
O1046  O     0.40323   0.85627   0.77820   0.00000  Uiso   1.00
O1047  O     0.58773   0.81944   0.76768   0.00000  Uiso   1.00
O1048  O     0.47133   0.73570   0.73607   0.00000  Uiso   1.00
O1049  O     0.53771   0.92193   0.71806   0.00000  Uiso   1.00
O1050  O     0.49027   0.79060   0.66625   0.00000  Uiso   1.00
O1051  O     0.46020   0.87313   0.83749   0.00000  Uiso   1.00
O1052  O     0.54421   0.84159   0.65877   0.00000  Uiso   1.00
O1053  O     0.50532   0.82802   0.83749   0.00000  Uiso   1.00
O1054  O     0.51182   0.74768   0.77821   0.00000  Uiso   1.00
O1055  O     0.47914   0.92803   0.76767   0.00000  Uiso   1.00
O1056  O     0.40785   0.79917   0.73607   0.00000  Uiso   1.00
O1057  O     0.60119   0.85845   0.71806   0.00000  Uiso   1.00
C1058  C     0.38582   0.82664   0.75873   0.00000  Uiso   1.00
C1059  C     0.61441   0.84024   0.74117   0.00000  Uiso   1.00
C1060  C     0.48926   0.72279   0.75889   0.00000  Uiso   1.00
C1061  C     0.51019   0.94436   0.74134   0.00000  Uiso   1.00
C1062  C     0.52166   0.81191   0.64404   0.00000  Uiso   1.00
C1063  C     0.47806   0.85390   0.85633   0.00000  Uiso   1.00
C1064  C     0.46325   0.85687   0.89981   0.00000  Uiso   1.00
C1065  C     0.53097   0.80320   0.60135   0.00000  Uiso   1.00
C1066  C     0.40639   0.86313   0.96177   0.00000  Uiso   1.00
C1067  C     0.42181   0.86785   0.92139   0.00000  Uiso   1.00
C1068  C     0.48937   0.84330   0.91930   0.00000  Uiso   1.00
C1069  C     0.47425   0.83698   0.95939   0.00000  Uiso   1.00
C1070  C     0.43213   0.84712   0.98074   0.00000  Uiso   1.00
C1071  C     0.49996   0.82085   0.97886   0.00000  Uiso   1.00
C1072  C     0.48555   0.82038   0.52034   0.00000  Uiso   1.00
C1073  C     0.44213   0.82631   0.53960   0.00000  Uiso   1.00
C1074  C     0.41614   0.83994   0.52042   0.00000  Uiso   1.00
C1075  C     0.53835   0.80314   0.95816   0.00000  Uiso   1.00
C1076  C     0.56236   0.78708   0.97779   0.00000  Uiso   1.00
C1077  C     0.55126   0.79109   0.51899   0.00000  Uiso   1.00
C1078  C     0.51374   0.81037   0.54080   0.00000  Uiso   1.00
C1079  C     0.57692   0.77592   0.53868   0.00000  Uiso   1.00
C1080  C     0.56573   0.78064   0.58005   0.00000  Uiso   1.00
C1081  C     0.50680   0.82019   0.58196   0.00000  Uiso   1.00
H1082  H     0.38328   0.84455   0.53714   0.00000  Uiso   1.00
H1083  H     0.59027   0.77206   0.96011   0.00000  Uiso   1.00
H1084  H     0.52175   0.83789   0.90222   0.00000  Uiso   1.00
H1085  H     0.42703   0.81864   0.56935   0.00000  Uiso   1.00
H1086  H     0.54942   0.79881   0.92648   0.00000  Uiso   1.00
C1087  C     0.66043   0.84283   0.73749   0.00000  Uiso   1.00
H1088  H     0.35024   0.85980   0.71460   0.00000  Uiso   1.00
C1089  C     0.34042   0.82436   0.76219   0.00000  Uiso   1.00
H1090  H     0.65126   0.80746   0.78543   0.00000  Uiso   1.00
C1091  C     0.51423   0.98883   0.73806   0.00000  Uiso   1.00
H1092  H     0.54137   0.66944   0.71592   0.00000  Uiso   1.00
C1093  C     0.48486   0.67876   0.76211   0.00000  Uiso   1.00
H1094  H     0.45735   0.99891   0.78433   0.00000  Uiso   1.00
N1095  N     0.61352   0.75449   0.51688   0.00000  Uiso   1.00
O1096  O     0.61449   0.71584   0.52187   0.00000  Uiso   1.00
O1097  O     0.64773   0.77485   0.99531   0.00000  Uiso   1.00
Cl1098 Cl    0.47585   0.86106   0.60878   0.00000  Uiso   1.00
N1099  N     0.59141   0.76490   0.60029   0.00000  Uiso   1.00
O1100  O     0.57290   0.74365   0.63024   0.00000  Uiso   1.00
O1101  O     0.63340   0.77242   0.58931   0.00000  Uiso   1.00
Cl1102 Cl    0.35448   0.87775   0.98794   0.00000  Uiso   1.00
N1103  N     0.39452   0.88253   0.90238   0.00000  Uiso   1.00
O1104  O     0.40131   0.92108   0.89411   0.00000  Uiso   1.00
O1105  O     0.36025   0.85889   0.89725   0.00000  Uiso   1.00
Zn1106 Zn    0.85910   0.80756   0.78278   0.00000  Uiso   1.00
Zn1107 Zn    0.80125   0.79044   0.72258   0.00000  Uiso   1.00
Zn1108 Zn    0.87833   0.86331   0.71188   0.00000  Uiso   1.00
Zn1109 Zn    0.79465   0.87202   0.78277   0.00000  Uiso   1.00
O1110  O     0.83333   0.83333   0.75000   0.00000  Uiso   1.00
O1111  O     0.73656   0.85627   0.77820   0.00000  Uiso   1.00
O1112  O     0.92106   0.81944   0.76768   0.00000  Uiso   1.00
O1113  O     0.80467   0.73570   0.73607   0.00000  Uiso   1.00
O1114  O     0.87104   0.92193   0.71806   0.00000  Uiso   1.00
O1115  O     0.82360   0.79060   0.66625   0.00000  Uiso   1.00
O1116  O     0.79354   0.87313   0.83749   0.00000  Uiso   1.00
O1117  O     0.87755   0.84159   0.65877   0.00000  Uiso   1.00
O1118  O     0.83865   0.82802   0.83749   0.00000  Uiso   1.00
O1119  O     0.84515   0.74768   0.77821   0.00000  Uiso   1.00
O1120  O     0.81247   0.92803   0.76767   0.00000  Uiso   1.00
O1121  O     0.74119   0.79917   0.73607   0.00000  Uiso   1.00
O1122  O     0.93452   0.85845   0.71806   0.00000  Uiso   1.00
C1123  C     0.71915   0.82664   0.75873   0.00000  Uiso   1.00
C1124  C     0.94774   0.84024   0.74117   0.00000  Uiso   1.00
C1125  C     0.82259   0.72279   0.75889   0.00000  Uiso   1.00
C1126  C     0.84353   0.94436   0.74134   0.00000  Uiso   1.00
C1127  C     0.85499   0.81191   0.64404   0.00000  Uiso   1.00
C1128  C     0.81140   0.85390   0.85633   0.00000  Uiso   1.00
C1129  C     0.79659   0.85687   0.89981   0.00000  Uiso   1.00
C1130  C     0.86430   0.80320   0.60135   0.00000  Uiso   1.00
C1131  C     0.73972   0.86313   0.96177   0.00000  Uiso   1.00
C1132  C     0.75514   0.86785   0.92139   0.00000  Uiso   1.00
C1133  C     0.82270   0.84330   0.91930   0.00000  Uiso   1.00
C1134  C     0.80759   0.83698   0.95939   0.00000  Uiso   1.00
C1135  C     0.76546   0.84712   0.98074   0.00000  Uiso   1.00
C1136  C     0.83329   0.82085   0.97886   0.00000  Uiso   1.00
C1137  C     0.81889   0.82038   0.52034   0.00000  Uiso   1.00
C1138  C     0.77547   0.82631   0.53960   0.00000  Uiso   1.00
C1139  C     0.74948   0.83994   0.52042   0.00000  Uiso   1.00
C1140  C     0.87168   0.80314   0.95816   0.00000  Uiso   1.00
C1141  C     0.89569   0.78708   0.97779   0.00000  Uiso   1.00
C1142  C     0.88460   0.79109   0.51899   0.00000  Uiso   1.00
C1143  C     0.84707   0.81037   0.54080   0.00000  Uiso   1.00
C1144  C     0.91025   0.77592   0.53868   0.00000  Uiso   1.00
C1145  C     0.89906   0.78064   0.58005   0.00000  Uiso   1.00
C1146  C     0.84014   0.82019   0.58196   0.00000  Uiso   1.00
H1147  H     0.71661   0.84455   0.53714   0.00000  Uiso   1.00
H1148  H     0.92360   0.77206   0.96011   0.00000  Uiso   1.00
H1149  H     0.85508   0.83789   0.90222   0.00000  Uiso   1.00
H1150  H     0.76037   0.81864   0.56935   0.00000  Uiso   1.00
H1151  H     0.88276   0.79881   0.92648   0.00000  Uiso   1.00
C1152  C     0.99377   0.84283   0.73749   0.00000  Uiso   1.00
H1153  H     0.68357   0.85980   0.71460   0.00000  Uiso   1.00
C1154  C     0.67375   0.82436   0.76219   0.00000  Uiso   1.00
H1155  H     0.98460   0.80746   0.78543   0.00000  Uiso   1.00
C1156  C     0.84756   0.98883   0.73806   0.00000  Uiso   1.00
H1157  H     0.87470   0.66944   0.71592   0.00000  Uiso   1.00
C1158  C     0.81819   0.67876   0.76211   0.00000  Uiso   1.00
H1159  H     0.79068   0.99891   0.78433   0.00000  Uiso   1.00
N1160  N     0.94686   0.75449   0.51688   0.00000  Uiso   1.00
O1161  O     0.94782   0.71584   0.52187   0.00000  Uiso   1.00
O1162  O     0.98106   0.77485   0.99531   0.00000  Uiso   1.00
Cl1163 Cl    0.80919   0.86106   0.60878   0.00000  Uiso   1.00
N1164  N     0.92474   0.76490   0.60029   0.00000  Uiso   1.00
O1165  O     0.90623   0.74365   0.63024   0.00000  Uiso   1.00
O1166  O     0.96674   0.77242   0.58931   0.00000  Uiso   1.00
Cl1167 Cl    0.68782   0.87775   0.98794   0.00000  Uiso   1.00
N1168  N     0.72785   0.88253   0.90238   0.00000  Uiso   1.00
O1169  O     0.73465   0.92108   0.89411   0.00000  Uiso   1.00
O1170  O     0.69358   0.85889   0.89725   0.00000  Uiso   1.00
loop_
_geom_bond_atom_site_label_1
_geom_bond_atom_site_label_2
_geom_bond_distance
_geom_bond_site_symmetry_2
_ccdc_geom_bond_type
Zn1    O14     1.927   .     S
Zn1    O5      1.960   .     S
Zn1    O13     1.925   .     S
Zn1    O7      1.922   .     S
Zn2    O5      1.942   .     S
Zn2    O10     1.929   .     S
Zn2    O16     1.925   .     S
Zn2    O8      1.937   .     S
Zn3    O9      1.930   .     S
Zn3    O5      1.931   .     S
Zn3    O17     1.936   .     S
Zn3    O12     1.934   .     S
Zn4    O15     1.930   .     S
Zn4    O11     1.940   .     S
Zn4    O6      1.931   .     S
Zn4    O5      1.930   .     S
O6     C18     1.269   .     A
O7     C19     1.278   .     A
O8     C20     1.277   .     A
O9     C21     1.269   .     A
O10    C22     1.274   .     A
O11    C23     1.281   .     A
O12    C22     1.272   .     A
O13    C23     1.288   .     A
O14    C20     1.277   .     A
O15    C21     1.270   .     A
O16    C18     1.270   .     A
O17    C19     1.282   .     A
C18    C49     1.437   .     S
C19    C47     1.455   .     S
C20    C53     1.435   .     S
C21    C51     1.451   .     S
C22    C25     1.460   .     S
C23    C24     1.479   .     S
C24    C27     1.413   .     A
C24    C28     1.396   .     A
C25    C40     1.407   .     A
C25    C41     1.401   .     A
C26    C30     1.413   .     A
C26    Cl62    1.772   .     S
C26    C27     1.404   .     A
C27    N63     1.432   .     S
C28    C29     1.406   .     A
C28    H44     1.077   .     S
C29    C31     1.427   .     A
C29    C30     1.421   .     A
C30    C619    1.400   .     S
C31    C35     1.411   .     A
C31    C617    1.419   .     S
C32    C38     1.426   .     A
C32    C33     1.407   .     A
C32    C616    1.419   1_554 S
C33    H45     1.080   .     S
C33    C34     1.386   .     A
C34    H42     1.082   .     S
C34    C615    1.400   1_554 S
C35    C36     1.387   .     A
C35    H46     1.078   .     S
C36    H43     1.082   .     S
C36    C622    1.401   .     S
C37    C38     1.422   .     A
C37    C39     1.415   .     A
C37    C621    1.401   1_554 S
C38    C41     1.417   .     A
C39    C40     1.406   .     A
C39    N55     1.435   .     S
C40    N59     1.439   .     S
C41    Cl58    1.780   .     S
C47    H113    1.088   .     S
C47    C114    1.335   .     S
H48    C177    1.088   1_455 S
C49    C177    1.335   1_455 S
C49    H180    1.086   1_455 S
H50    C114    1.086   .     S
C51    H247    1.088   .     S
C51    C248    1.331   .     S
H52    C441    1.088   1_545 S
C53    C441    1.331   1_545 S
C53    H444    1.086   1_545 S
H54    C248    1.086   .     S
N55    O56     1.301   .     A
N55    O642    1.301   1_554 S
O57    N640    1.301   .     S
N59    O60     1.301   .     A
N59    O61     1.301   .     A
N63    O65     1.301   .     A
N63    O64     1.301   .     A
Zn66   O79     1.927   .     S
Zn66   O70     1.960   .     S
Zn66   O78     1.925   .     S
Zn66   O72     1.922   .     S
Zn67   O70     1.942   .     S
Zn67   O75     1.929   .     S
Zn67   O81     1.925   .     S
Zn67   O73     1.937   .     S
Zn68   O74     1.930   .     S
Zn68   O70     1.931   .     S
Zn68   O82     1.936   .     S
Zn68   O77     1.934   .     S
Zn69   O80     1.930   .     S
Zn69   O76     1.940   .     S
Zn69   O71     1.931   .     S
Zn69   O70     1.930   .     S
O71    C83     1.269   .     A
O72    C84     1.278   .     A
O73    C85     1.277   .     A
O74    C86     1.269   .     A
O75    C87     1.274   .     A
O76    C88     1.281   .     A
O77    C87     1.272   .     A
O78    C88     1.288   .     A
O79    C85     1.277   .     A
O80    C86     1.270   .     A
O81    C83     1.270   .     A
O82    C84     1.282   .     A
C83    C114    1.437   .     S
C84    C112    1.455   .     S
C85    C118    1.435   .     S
C86    C116    1.451   .     S
C87    C90     1.460   .     S
C88    C89     1.479   .     S
C89    C92     1.413   .     A
C89    C93     1.396   .     A
C90    C105    1.407   .     A
C90    C106    1.401   .     A
C91    C95     1.413   .     A
C91    Cl127   1.772   .     S
C91    C92     1.404   .     A
C92    N128    1.432   .     S
C93    C94     1.406   .     A
C93    H109    1.077   .     S
C94    C96     1.427   .     A
C94    C95     1.421   .     A
C95    C684    1.400   .     S
C96    C100    1.411   .     A
C96    C682    1.419   .     S
C97    C103    1.426   .     A
C97    C98     1.407   .     A
C97    C681    1.419   1_554 S
C98    H110    1.080   .     S
C98    C99     1.386   .     A
C99    H107    1.082   .     S
C99    C680    1.400   1_554 S
C100   C101    1.387   .     A
C100   H111    1.078   .     S
C101   H108    1.082   .     S
C101   C687    1.401   .     S
C102   C103    1.422   .     A
C102   C104    1.415   .     A
C102   C686    1.401   1_554 S
C103   C106    1.417   .     A
C104   C105    1.406   .     A
C104   N120    1.435   .     S
C105   N124    1.439   .     S
C106   Cl123   1.780   .     S
C112   H178    1.088   .     S
C112   C179    1.335   .     S
H115   C179    1.086   .     S
C116   H312    1.088   .     S
C116   C313    1.331   .     S
H117   C506    1.088   1_545 S
C118   C506    1.331   1_545 S
C118   H509    1.086   1_545 S
H119   C313    1.086   .     S
N120   O121    1.301   .     A
N120   O707    1.301   1_554 S
O122   N705    1.301   .     S
N124   O125    1.301   .     A
N124   O126    1.301   .     A
N128   O130    1.301   .     A
N128   O129    1.301   .     A
Zn131  O144    1.927   .     S
Zn131  O135    1.960   .     S
Zn131  O143    1.925   .     S
Zn131  O137    1.922   .     S
Zn132  O135    1.942   .     S
Zn132  O140    1.929   .     S
Zn132  O146    1.925   .     S
Zn132  O138    1.937   .     S
Zn133  O139    1.930   .     S
Zn133  O135    1.931   .     S
Zn133  O147    1.936   .     S
Zn133  O142    1.934   .     S
Zn134  O145    1.930   .     S
Zn134  O141    1.940   .     S
Zn134  O136    1.931   .     S
Zn134  O135    1.930   .     S
O136   C148    1.269   .     A
O137   C149    1.278   .     A
O138   C150    1.277   .     A
O139   C151    1.269   .     A
O140   C152    1.274   .     A
O141   C153    1.281   .     A
O142   C152    1.272   .     A
O143   C153    1.288   .     A
O144   C150    1.277   .     A
O145   C151    1.270   .     A
O146   C148    1.270   .     A
O147   C149    1.282   .     A
C148   C179    1.437   .     S
C149   C177    1.455   .     S
C150   C183    1.435   .     S
C151   C181    1.451   .     S
C152   C155    1.460   .     S
C153   C154    1.479   .     S
C154   C157    1.413   .     A
C154   C158    1.396   .     A
C155   C170    1.407   .     A
C155   C171    1.401   .     A
C156   C160    1.413   .     A
C156   Cl192   1.772   .     S
C156   C157    1.404   .     A
C157   N193    1.432   .     S
C158   C159    1.406   .     A
C158   H174    1.077   .     S
C159   C161    1.427   .     A
C159   C160    1.421   .     A
C160   C749    1.400   .     S
C161   C165    1.411   .     A
C161   C747    1.419   .     S
C162   C168    1.426   .     A
C162   C163    1.407   .     A
C162   C746    1.419   1_554 S
C163   H175    1.080   .     S
C163   C164    1.386   .     A
C164   H172    1.082   .     S
C164   C745    1.400   1_554 S
C165   C166    1.387   .     A
C165   H176    1.078   .     S
C166   H173    1.082   .     S
C166   C752    1.401   .     S
C167   C168    1.422   .     A
C167   C169    1.415   .     A
C167   C751    1.401   1_554 S
C168   C171    1.417   .     A
C169   C170    1.406   .     A
C169   N185    1.435   .     S
C170   N189    1.439   .     S
C171   Cl188   1.780   .     S
C177   H48     1.088   1_655 S
C177   C49     1.335   1_655 S
H180   C49     1.086   1_655 S
C181   H377    1.088   .     S
C181   C378    1.331   .     S
H182   C571    1.088   1_545 S
C183   C571    1.331   1_545 S
C183   H574    1.086   1_545 S
H184   C378    1.086   .     S
N185   O186    1.301   .     A
N185   O772    1.301   1_554 S
O187   N770    1.301   .     S
N189   O190    1.301   .     A
N189   O191    1.301   .     A
N193   O195    1.301   .     A
N193   O194    1.301   .     A
Zn196  O209    1.927   .     S
Zn196  O200    1.960   .     S
Zn196  O208    1.925   .     S
Zn196  O202    1.922   .     S
Zn197  O200    1.942   .     S
Zn197  O205    1.929   .     S
Zn197  O211    1.925   .     S
Zn197  O203    1.937   .     S
Zn198  O204    1.930   .     S
Zn198  O200    1.931   .     S
Zn198  O212    1.936   .     S
Zn198  O207    1.934   .     S
Zn199  O210    1.930   .     S
Zn199  O206    1.940   .     S
Zn199  O201    1.931   .     S
Zn199  O200    1.930   .     S
O201   C213    1.269   .     A
O202   C214    1.278   .     A
O203   C215    1.277   .     A
O204   C216    1.269   .     A
O205   C217    1.274   .     A
O206   C218    1.281   .     A
O207   C217    1.272   .     A
O208   C218    1.288   .     A
O209   C215    1.277   .     A
O210   C216    1.270   .     A
O211   C213    1.270   .     A
O212   C214    1.282   .     A
C213   C244    1.437   .     S
C214   C242    1.455   .     S
C215   C248    1.435   .     S
C216   C246    1.451   .     S
C217   C220    1.460   .     S
C218   C219    1.479   .     S
C219   C222    1.413   .     A
C219   C223    1.396   .     A
C220   C235    1.407   .     A
C220   C236    1.401   .     A
C221   C225    1.413   .     A
C221   Cl257   1.772   .     S
C221   C222    1.404   .     A
C222   N258    1.432   .     S
C223   C224    1.406   .     A
C223   H239    1.077   .     S
C224   C226    1.427   .     A
C224   C225    1.421   .     A
C225   C814    1.400   .     S
C226   C230    1.411   .     A
C226   C812    1.419   .     S
C227   C233    1.426   .     A
C227   C228    1.407   .     A
C227   C811    1.419   1_554 S
C228   H240    1.080   .     S
C228   C229    1.386   .     A
C229   H237    1.082   .     S
C229   C810    1.400   1_554 S
C230   C231    1.387   .     A
C230   H241    1.078   .     S
C231   H238    1.082   .     S
C231   C817    1.401   .     S
C232   C233    1.422   .     A
C232   C234    1.415   .     A
C232   C816    1.401   1_554 S
C233   C236    1.417   .     A
C234   C235    1.406   .     A
C234   N250    1.435   .     S
C235   N254    1.439   .     S
C236   Cl253   1.780   .     S
C242   H308    1.088   .     S
C242   C309    1.335   .     S
H243   C372    1.088   1_455 S
C244   C372    1.335   1_455 S
C244   H375    1.086   1_455 S
H245   C309    1.086   .     S
C246   H442    1.088   .     S
C246   C443    1.331   .     S
H249   C443    1.086   .     S
N250   O251    1.301   .     A
N250   O837    1.301   1_554 S
O252   N835    1.301   .     S
N254   O255    1.301   .     A
N254   O256    1.301   .     A
N258   O260    1.301   .     A
N258   O259    1.301   .     A
Zn261  O274    1.927   .     S
Zn261  O265    1.960   .     S
Zn261  O273    1.925   .     S
Zn261  O267    1.922   .     S
Zn262  O265    1.942   .     S
Zn262  O270    1.929   .     S
Zn262  O276    1.925   .     S
Zn262  O268    1.937   .     S
Zn263  O269    1.930   .     S
Zn263  O265    1.931   .     S
Zn263  O277    1.936   .     S
Zn263  O272    1.934   .     S
Zn264  O275    1.930   .     S
Zn264  O271    1.940   .     S
Zn264  O266    1.931   .     S
Zn264  O265    1.930   .     S
O266   C278    1.269   .     A
O267   C279    1.278   .     A
O268   C280    1.277   .     A
O269   C281    1.269   .     A
O270   C282    1.274   .     A
O271   C283    1.281   .     A
O272   C282    1.272   .     A
O273   C283    1.288   .     A
O274   C280    1.277   .     A
O275   C281    1.270   .     A
O276   C278    1.270   .     A
O277   C279    1.282   .     A
C278   C309    1.437   .     S
C279   C307    1.455   .     S
C280   C313    1.435   .     S
C281   C311    1.451   .     S
C282   C285    1.460   .     S
C283   C284    1.479   .     S
C284   C287    1.413   .     A
C284   C288    1.396   .     A
C285   C300    1.407   .     A
C285   C301    1.401   .     A
C286   C290    1.413   .     A
C286   Cl322   1.772   .     S
C286   C287    1.404   .     A
C287   N323    1.432   .     S
C288   C289    1.406   .     A
C288   H304    1.077   .     S
C289   C291    1.427   .     A
C289   C290    1.421   .     A
C290   C879    1.400   .     S
C291   C295    1.411   .     A
C291   C877    1.419   .     S
C292   C298    1.426   .     A
C292   C293    1.407   .     A
C292   C876    1.419   1_554 S
C293   H305    1.080   .     S
C293   C294    1.386   .     A
C294   H302    1.082   .     S
C294   C875    1.400   1_554 S
C295   C296    1.387   .     A
C295   H306    1.078   .     S
C296   H303    1.082   .     S
C296   C882    1.401   .     S
C297   C298    1.422   .     A
C297   C299    1.415   .     A
C297   C881    1.401   1_554 S
C298   C301    1.417   .     A
C299   C300    1.406   .     A
C299   N315    1.435   .     S
C300   N319    1.439   .     S
C301   Cl318   1.780   .     S
C307   H373    1.088   .     S
C307   C374    1.335   .     S
H310   C374    1.086   .     S
C311   H507    1.088   .     S
C311   C508    1.331   .     S
H314   C508    1.086   .     S
N315   O316    1.301   .     A
N315   O902    1.301   1_554 S
O317   N900    1.301   .     S
N319   O320    1.301   .     A
N319   O321    1.301   .     A
N323   O325    1.301   .     A
N323   O324    1.301   .     A
Zn326  O339    1.927   .     S
Zn326  O330    1.960   .     S
Zn326  O338    1.925   .     S
Zn326  O332    1.922   .     S
Zn327  O330    1.942   .     S
Zn327  O335    1.929   .     S
Zn327  O341    1.925   .     S
Zn327  O333    1.937   .     S
Zn328  O334    1.930   .     S
Zn328  O330    1.931   .     S
Zn328  O342    1.936   .     S
Zn328  O337    1.934   .     S
Zn329  O340    1.930   .     S
Zn329  O336    1.940   .     S
Zn329  O331    1.931   .     S
Zn329  O330    1.930   .     S
O331   C343    1.269   .     A
O332   C344    1.278   .     A
O333   C345    1.277   .     A
O334   C346    1.269   .     A
O335   C347    1.274   .     A
O336   C348    1.281   .     A
O337   C347    1.272   .     A
O338   C348    1.288   .     A
O339   C345    1.277   .     A
O340   C346    1.270   .     A
O341   C343    1.270   .     A
O342   C344    1.282   .     A
C343   C374    1.437   .     S
C344   C372    1.455   .     S
C345   C378    1.435   .     S
C346   C376    1.451   .     S
C347   C350    1.460   .     S
C348   C349    1.479   .     S
C349   C352    1.413   .     A
C349   C353    1.396   .     A
C350   C365    1.407   .     A
C350   C366    1.401   .     A
C351   C355    1.413   .     A
C351   Cl387   1.772   .     S
C351   C352    1.404   .     A
C352   N388    1.432   .     S
C353   C354    1.406   .     A
C353   H369    1.077   .     S
C354   C356    1.427   .     A
C354   C355    1.421   .     A
C355   C944    1.400   .     S
C356   C360    1.411   .     A
C356   C942    1.419   .     S
C357   C363    1.426   .     A
C357   C358    1.407   .     A
C357   C941    1.419   1_554 S
C358   H370    1.080   .     S
C358   C359    1.386   .     A
C359   H367    1.082   .     S
C359   C940    1.400   1_554 S
C360   C361    1.387   .     A
C360   H371    1.078   .     S
C361   H368    1.082   .     S
C361   C947    1.401   .     S
C362   C363    1.422   .     A
C362   C364    1.415   .     A
C362   C946    1.401   1_554 S
C363   C366    1.417   .     A
C364   C365    1.406   .     A
C364   N380    1.435   .     S
C365   N384    1.439   .     S
C366   Cl383   1.780   .     S
C372   H243    1.088   1_655 S
C372   C244    1.335   1_655 S
H375   C244    1.086   1_655 S
C376   H572    1.088   .     S
C376   C573    1.331   .     S
H379   C573    1.086   .     S
N380   O381    1.301   .     A
N380   O967    1.301   1_554 S
O382   N965    1.301   .     S
N384   O385    1.301   .     A
N384   O386    1.301   .     A
N388   O390    1.301   .     A
N388   O389    1.301   .     A
Zn391  O404    1.927   .     S
Zn391  O395    1.960   .     S
Zn391  O403    1.925   .     S
Zn391  O397    1.922   .     S
Zn392  O395    1.942   .     S
Zn392  O400    1.929   .     S
Zn392  O406    1.925   .     S
Zn392  O398    1.937   .     S
Zn393  O399    1.930   .     S
Zn393  O395    1.931   .     S
Zn393  O407    1.936   .     S
Zn393  O402    1.934   .     S
Zn394  O405    1.930   .     S
Zn394  O401    1.940   .     S
Zn394  O396    1.931   .     S
Zn394  O395    1.930   .     S
O396   C408    1.269   .     A
O397   C409    1.278   .     A
O398   C410    1.277   .     A
O399   C411    1.269   .     A
O400   C412    1.274   .     A
O401   C413    1.281   .     A
O402   C412    1.272   .     A
O403   C413    1.288   .     A
O404   C410    1.277   .     A
O405   C411    1.270   .     A
O406   C408    1.270   .     A
O407   C409    1.282   .     A
C408   C439    1.437   .     S
C409   C437    1.455   .     S
C410   C443    1.435   .     S
C411   C441    1.451   .     S
C412   C415    1.460   .     S
C413   C414    1.479   .     S
C414   C417    1.413   .     A
C414   C418    1.396   .     A
C415   C430    1.407   .     A
C415   C431    1.401   .     A
C416   C420    1.413   .     A
C416   Cl452   1.772   .     S
C416   C417    1.404   .     A
C417   N453    1.432   .     S
C418   C419    1.406   .     A
C418   H434    1.077   .     S
C419   C421    1.427   .     A
C419   C420    1.421   .     A
C420   C1009   1.400   .     S
C421   C425    1.411   .     A
C421   C1007   1.419   .     S
C422   C428    1.426   .     A
C422   C423    1.407   .     A
C422   C1006   1.419   1_554 S
C423   H435    1.080   .     S
C423   C424    1.386   .     A
C424   H432    1.082   .     S
C424   C1005   1.400   1_554 S
C425   C426    1.387   .     A
C425   H436    1.078   .     S
C426   H433    1.082   .     S
C426   C1012   1.401   .     S
C427   C428    1.422   .     A
C427   C429    1.415   .     A
C427   C1011   1.401   1_554 S
C428   C431    1.417   .     A
C429   C430    1.406   .     A
C429   N445    1.435   .     S
C430   N449    1.439   .     S
C431   Cl448   1.780   .     S
C437   H503    1.088   .     S
C437   C504    1.335   .     S
H438   C567    1.088   1_455 S
C439   C567    1.335   1_455 S
C439   H570    1.086   1_455 S
H440   C504    1.086   .     S
C441   H52     1.088   1_565 S
C441   C53     1.331   1_565 S
H444   C53     1.086   1_565 S
N445   O446    1.301   .     A
N445   O1032   1.301   1_554 S
O447   N1030   1.301   .     S
N449   O450    1.301   .     A
N449   O451    1.301   .     A
N453   O455    1.301   .     A
N453   O454    1.301   .     A
Zn456  O469    1.927   .     S
Zn456  O460    1.960   .     S
Zn456  O468    1.925   .     S
Zn456  O462    1.922   .     S
Zn457  O460    1.942   .     S
Zn457  O465    1.929   .     S
Zn457  O471    1.925   .     S
Zn457  O463    1.937   .     S
Zn458  O464    1.930   .     S
Zn458  O460    1.931   .     S
Zn458  O472    1.936   .     S
Zn458  O467    1.934   .     S
Zn459  O470    1.930   .     S
Zn459  O466    1.940   .     S
Zn459  O461    1.931   .     S
Zn459  O460    1.930   .     S
O461   C473    1.269   .     A
O462   C474    1.278   .     A
O463   C475    1.277   .     A
O464   C476    1.269   .     A
O465   C477    1.274   .     A
O466   C478    1.281   .     A
O467   C477    1.272   .     A
O468   C478    1.288   .     A
O469   C475    1.277   .     A
O470   C476    1.270   .     A
O471   C473    1.270   .     A
O472   C474    1.282   .     A
C473   C504    1.437   .     S
C474   C502    1.455   .     S
C475   C508    1.435   .     S
C476   C506    1.451   .     S
C477   C480    1.460   .     S
C478   C479    1.479   .     S
C479   C482    1.413   .     A
C479   C483    1.396   .     A
C480   C495    1.407   .     A
C480   C496    1.401   .     A
C481   C485    1.413   .     A
C481   Cl517   1.772   .     S
C481   C482    1.404   .     A
C482   N518    1.432   .     S
C483   C484    1.406   .     A
C483   H499    1.077   .     S
C484   C486    1.427   .     A
C484   C485    1.421   .     A
C485   C1074   1.400   .     S
C486   C490    1.411   .     A
C486   C1072   1.419   .     S
C487   C493    1.426   .     A
C487   C488    1.407   .     A
C487   C1071   1.419   1_554 S
C488   H500    1.080   .     S
C488   C489    1.386   .     A
C489   H497    1.082   .     S
C489   C1070   1.400   1_554 S
C490   C491    1.387   .     A
C490   H501    1.078   .     S
C491   H498    1.082   .     S
C491   C1077   1.401   .     S
C492   C493    1.422   .     A
C492   C494    1.415   .     A
C492   C1076   1.401   1_554 S
C493   C496    1.417   .     A
C494   C495    1.406   .     A
C494   N510    1.435   .     S
C495   N514    1.439   .     S
C496   Cl513   1.780   .     S
C502   H568    1.088   .     S
C502   C569    1.335   .     S
H505   C569    1.086   .     S
C506   H117    1.088   1_565 S
C506   C118    1.331   1_565 S
H509   C118    1.086   1_565 S
N510   O511    1.301   .     A
N510   O1097   1.301   1_554 S
O512   N1095   1.301   .     S
N514   O515    1.301   .     A
N514   O516    1.301   .     A
N518   O520    1.301   .     A
N518   O519    1.301   .     A
Zn521  O534    1.927   .     S
Zn521  O525    1.960   .     S
Zn521  O533    1.925   .     S
Zn521  O527    1.922   .     S
Zn522  O525    1.942   .     S
Zn522  O530    1.929   .     S
Zn522  O536    1.925   .     S
Zn522  O528    1.937   .     S
Zn523  O529    1.930   .     S
Zn523  O525    1.931   .     S
Zn523  O537    1.936   .     S
Zn523  O532    1.934   .     S
Zn524  O535    1.930   .     S
Zn524  O531    1.940   .     S
Zn524  O526    1.931   .     S
Zn524  O525    1.930   .     S
O526   C538    1.269   .     A
O527   C539    1.278   .     A
O528   C540    1.277   .     A
O529   C541    1.269   .     A
O530   C542    1.274   .     A
O531   C543    1.281   .     A
O532   C542    1.272   .     A
O533   C543    1.288   .     A
O534   C540    1.277   .     A
O535   C541    1.270   .     A
O536   C538    1.270   .     A
O537   C539    1.282   .     A
C538   C569    1.437   .     S
C539   C567    1.455   .     S
C540   C573    1.435   .     S
C541   C571    1.451   .     S
C542   C545    1.460   .     S
C543   C544    1.479   .     S
C544   C547    1.413   .     A
C544   C548    1.396   .     A
C545   C560    1.407   .     A
C545   C561    1.401   .     A
C546   C550    1.413   .     A
C546   Cl582   1.772   .     S
C546   C547    1.404   .     A
C547   N583    1.432   .     S
C548   C549    1.406   .     A
C548   H564    1.077   .     S
C549   C551    1.427   .     A
C549   C550    1.421   .     A
C550   C1139   1.400   .     S
C551   C555    1.411   .     A
C551   C1137   1.419   .     S
C552   C558    1.426   .     A
C552   C553    1.407   .     A
C552   C1136   1.419   1_554 S
C553   H565    1.080   .     S
C553   C554    1.386   .     A
C554   H562    1.082   .     S
C554   C1135   1.400   1_554 S
C555   C556    1.387   .     A
C555   H566    1.078   .     S
C556   H563    1.082   .     S
C556   C1142   1.401   .     S
C557   C558    1.422   .     A
C557   C559    1.415   .     A
C557   C1141   1.401   1_554 S
C558   C561    1.417   .     A
C559   C560    1.406   .     A
C559   N575    1.435   .     S
C560   N579    1.439   .     S
C561   Cl578   1.780   .     S
C567   H438    1.088   1_655 S
C567   C439    1.335   1_655 S
H570   C439    1.086   1_655 S
C571   H182    1.088   1_565 S
C571   C183    1.331   1_565 S
H574   C183    1.086   1_565 S
N575   O576    1.301   .     A
N575   O1162   1.301   1_554 S
O577   N1160   1.301   .     S
N579   O580    1.301   .     A
N579   O581    1.301   .     A
N583   O585    1.301   .     A
N583   O584    1.301   .     A
Zn586  O599    1.927   .     S
Zn586  O590    1.960   .     S
Zn586  O598    1.925   .     S
Zn586  O592    1.922   .     S
Zn587  O590    1.942   .     S
Zn587  O595    1.929   .     S
Zn587  O601    1.925   .     S
Zn587  O593    1.937   .     S
Zn588  O594    1.930   .     S
Zn588  O590    1.931   .     S
Zn588  O602    1.936   .     S
Zn588  O597    1.934   .     S
Zn589  O600    1.930   .     S
Zn589  O596    1.940   .     S
Zn589  O591    1.931   .     S
Zn589  O590    1.930   .     S
O591   C603    1.269   .     A
O592   C604    1.278   .     A
O593   C605    1.277   .     A
O594   C606    1.269   .     A
O595   C607    1.274   .     A
O596   C608    1.281   .     A
O597   C607    1.272   .     A
O598   C608    1.288   .     A
O599   C605    1.277   .     A
O600   C606    1.270   .     A
O601   C603    1.270   .     A
O602   C604    1.282   .     A
C603   C634    1.437   .     S
C604   C632    1.455   .     S
C605   C638    1.435   .     S
C606   C636    1.451   .     S
C607   C610    1.460   .     S
C608   C609    1.479   .     S
C609   C612    1.413   .     A
C609   C613    1.396   .     A
C610   C625    1.407   .     A
C610   C626    1.401   .     A
C611   C615    1.413   .     A
C611   Cl647   1.772   .     S
C611   C612    1.404   .     A
C612   N648    1.432   .     S
C613   C614    1.406   .     A
C613   H629    1.077   .     S
C614   C616    1.427   .     A
C614   C615    1.421   .     A
C615   C34     1.400   1_556 S
C616   C620    1.411   .     A
C616   C32     1.419   1_556 S
C617   C623    1.426   .     A
C617   C618    1.407   .     A
C618   H630    1.080   .     S
C618   C619    1.386   .     A
C619   H627    1.082   .     S
C620   C621    1.387   .     A
C620   H631    1.078   .     S
C621   H628    1.082   .     S
C621   C37     1.401   1_556 S
C622   C623    1.422   .     A
C622   C624    1.415   .     A
C623   C626    1.417   .     A
C624   C625    1.406   .     A
C624   N640    1.435   .     S
C625   N644    1.439   .     S
C626   Cl643   1.780   .     S
C632   H698    1.088   .     S
C632   C699    1.335   .     S
H633   C762    1.088   1_455 S
C634   C762    1.335   1_455 S
C634   H765    1.086   1_455 S
H635   C699    1.086   .     S
C636   H832    1.088   .     S
C636   C833    1.331   .     S
H637   C1026   1.088   1_545 S
C638   C1026   1.331   1_545 S
C638   H1029   1.086   1_545 S
H639   C833    1.086   .     S
N640   O641    1.301   .     A
O642   N55     1.301   1_556 S
N644   O645    1.301   .     A
N644   O646    1.301   .     A
N648   O650    1.301   .     A
N648   O649    1.301   .     A
Zn651  O664    1.927   .     S
Zn651  O655    1.960   .     S
Zn651  O663    1.925   .     S
Zn651  O657    1.922   .     S
Zn652  O655    1.942   .     S
Zn652  O660    1.929   .     S
Zn652  O666    1.925   .     S
Zn652  O658    1.937   .     S
Zn653  O659    1.930   .     S
Zn653  O655    1.931   .     S
Zn653  O667    1.936   .     S
Zn653  O662    1.934   .     S
Zn654  O665    1.930   .     S
Zn654  O661    1.940   .     S
Zn654  O656    1.931   .     S
Zn654  O655    1.930   .     S
O656   C668    1.269   .     A
O657   C669    1.278   .     A
O658   C670    1.277   .     A
O659   C671    1.269   .     A
O660   C672    1.274   .     A
O661   C673    1.281   .     A
O662   C672    1.272   .     A
O663   C673    1.288   .     A
O664   C670    1.277   .     A
O665   C671    1.270   .     A
O666   C668    1.270   .     A
O667   C669    1.282   .     A
C668   C699    1.437   .     S
C669   C697    1.455   .     S
C670   C703    1.435   .     S
C671   C701    1.451   .     S
C672   C675    1.460   .     S
C673   C674    1.479   .     S
C674   C677    1.413   .     A
C674   C678    1.396   .     A
C675   C690    1.407   .     A
C675   C691    1.401   .     A
C676   C680    1.413   .     A
C676   Cl712   1.772   .     S
C676   C677    1.404   .     A
C677   N713    1.432   .     S
C678   C679    1.406   .     A
C678   H694    1.077   .     S
C679   C681    1.427   .     A
C679   C680    1.421   .     A
C680   C99     1.400   1_556 S
C681   C685    1.411   .     A
C681   C97     1.419   1_556 S
C682   C688    1.426   .     A
C682   C683    1.407   .     A
C683   H695    1.080   .     S
C683   C684    1.386   .     A
C684   H692    1.082   .     S
C685   C686    1.387   .     A
C685   H696    1.078   .     S
C686   H693    1.082   .     S
C686   C102    1.401   1_556 S
C687   C688    1.422   .     A
C687   C689    1.415   .     A
C688   C691    1.417   .     A
C689   C690    1.406   .     A
C689   N705    1.435   .     S
C690   N709    1.439   .     S
C691   Cl708   1.780   .     S
C697   H763    1.088   .     S
C697   C764    1.335   .     S
H700   C764    1.086   .     S
C701   H897    1.088   .     S
C701   C898    1.331   .     S
H702   C1091   1.088   1_545 S
C703   C1091   1.331   1_545 S
C703   H1094   1.086   1_545 S
H704   C898    1.086   .     S
N705   O706    1.301   .     A
O707   N120    1.301   1_556 S
N709   O710    1.301   .     A
N709   O711    1.301   .     A
N713   O715    1.301   .     A
N713   O714    1.301   .     A
Zn716  O729    1.927   .     S
Zn716  O720    1.960   .     S
Zn716  O728    1.925   .     S
Zn716  O722    1.922   .     S
Zn717  O720    1.942   .     S
Zn717  O725    1.929   .     S
Zn717  O731    1.925   .     S
Zn717  O723    1.937   .     S
Zn718  O724    1.930   .     S
Zn718  O720    1.931   .     S
Zn718  O732    1.936   .     S
Zn718  O727    1.934   .     S
Zn719  O730    1.930   .     S
Zn719  O726    1.940   .     S
Zn719  O721    1.931   .     S
Zn719  O720    1.930   .     S
O721   C733    1.269   .     A
O722   C734    1.278   .     A
O723   C735    1.277   .     A
O724   C736    1.269   .     A
O725   C737    1.274   .     A
O726   C738    1.281   .     A
O727   C737    1.272   .     A
O728   C738    1.288   .     A
O729   C735    1.277   .     A
O730   C736    1.270   .     A
O731   C733    1.270   .     A
O732   C734    1.282   .     A
C733   C764    1.437   .     S
C734   C762    1.455   .     S
C735   C768    1.435   .     S
C736   C766    1.451   .     S
C737   C740    1.460   .     S
C738   C739    1.479   .     S
C739   C742    1.413   .     A
C739   C743    1.396   .     A
C740   C755    1.407   .     A
C740   C756    1.401   .     A
C741   C745    1.413   .     A
C741   Cl777   1.772   .     S
C741   C742    1.404   .     A
C742   N778    1.432   .     S
C743   C744    1.406   .     A
C743   H759    1.077   .     S
C744   C746    1.427   .     A
C744   C745    1.421   .     A
C745   C164    1.400   1_556 S
C746   C750    1.411   .     A
C746   C162    1.419   1_556 S
C747   C753    1.426   .     A
C747   C748    1.407   .     A
C748   H760    1.080   .     S
C748   C749    1.386   .     A
C749   H757    1.082   .     S
C750   C751    1.387   .     A
C750   H761    1.078   .     S
C751   H758    1.082   .     S
C751   C167    1.401   1_556 S
C752   C753    1.422   .     A
C752   C754    1.415   .     A
C753   C756    1.417   .     A
C754   C755    1.406   .     A
C754   N770    1.435   .     S
C755   N774    1.439   .     S
C756   Cl773   1.780   .     S
C762   H633    1.088   1_655 S
C762   C634    1.335   1_655 S
H765   C634    1.086   1_655 S
C766   H962    1.088   .     S
C766   C963    1.331   .     S
H767   C1156   1.088   1_545 S
C768   C1156   1.331   1_545 S
C768   H1159   1.086   1_545 S
H769   C963    1.086   .     S
N770   O771    1.301   .     A
O772   N185    1.301   1_556 S
N774   O775    1.301   .     A
N774   O776    1.301   .     A
N778   O780    1.301   .     A
N778   O779    1.301   .     A
Zn781  O794    1.927   .     S
Zn781  O785    1.960   .     S
Zn781  O793    1.925   .     S
Zn781  O787    1.922   .     S
Zn782  O785    1.942   .     S
Zn782  O790    1.929   .     S
Zn782  O796    1.925   .     S
Zn782  O788    1.937   .     S
Zn783  O789    1.930   .     S
Zn783  O785    1.931   .     S
Zn783  O797    1.936   .     S
Zn783  O792    1.934   .     S
Zn784  O795    1.930   .     S
Zn784  O791    1.940   .     S
Zn784  O786    1.931   .     S
Zn784  O785    1.930   .     S
O786   C798    1.269   .     A
O787   C799    1.278   .     A
O788   C800    1.277   .     A
O789   C801    1.269   .     A
O790   C802    1.274   .     A
O791   C803    1.281   .     A
O792   C802    1.272   .     A
O793   C803    1.288   .     A
O794   C800    1.277   .     A
O795   C801    1.270   .     A
O796   C798    1.270   .     A
O797   C799    1.282   .     A
C798   C829    1.437   .     S
C799   C827    1.455   .     S
C800   C833    1.435   .     S
C801   C831    1.451   .     S
C802   C805    1.460   .     S
C803   C804    1.479   .     S
C804   C807    1.413   .     A
C804   C808    1.396   .     A
C805   C820    1.407   .     A
C805   C821    1.401   .     A
C806   C810    1.413   .     A
C806   Cl842   1.772   .     S
C806   C807    1.404   .     A
C807   N843    1.432   .     S
C808   C809    1.406   .     A
C808   H824    1.077   .     S
C809   C811    1.427   .     A
C809   C810    1.421   .     A
C810   C229    1.400   1_556 S
C811   C815    1.411   .     A
C811   C227    1.419   1_556 S
C812   C818    1.426   .     A
C812   C813    1.407   .     A
C813   H825    1.080   .     S
C813   C814    1.386   .     A
C814   H822    1.082   .     S
C815   C816    1.387   .     A
C815   H826    1.078   .     S
C816   H823    1.082   .     S
C816   C232    1.401   1_556 S
C817   C818    1.422   .     A
C817   C819    1.415   .     A
C818   C821    1.417   .     A
C819   C820    1.406   .     A
C819   N835    1.435   .     S
C820   N839    1.439   .     S
C821   Cl838   1.780   .     S
C827   H893    1.088   .     S
C827   C894    1.335   .     S
H828   C957    1.088   1_455 S
C829   C957    1.335   1_455 S
C829   H960    1.086   1_455 S
H830   C894    1.086   .     S
C831   H1027   1.088   .     S
C831   C1028   1.331   .     S
H834   C1028   1.086   .     S
N835   O836    1.301   .     A
O837   N250    1.301   1_556 S
N839   O840    1.301   .     A
N839   O841    1.301   .     A
N843   O845    1.301   .     A
N843   O844    1.301   .     A
Zn846  O859    1.927   .     S
Zn846  O850    1.960   .     S
Zn846  O858    1.925   .     S
Zn846  O852    1.922   .     S
Zn847  O850    1.942   .     S
Zn847  O855    1.929   .     S
Zn847  O861    1.925   .     S
Zn847  O853    1.937   .     S
Zn848  O854    1.930   .     S
Zn848  O850    1.931   .     S
Zn848  O862    1.936   .     S
Zn848  O857    1.934   .     S
Zn849  O860    1.930   .     S
Zn849  O856    1.940   .     S
Zn849  O851    1.931   .     S
Zn849  O850    1.930   .     S
O851   C863    1.269   .     A
O852   C864    1.278   .     A
O853   C865    1.277   .     A
O854   C866    1.269   .     A
O855   C867    1.274   .     A
O856   C868    1.281   .     A
O857   C867    1.272   .     A
O858   C868    1.288   .     A
O859   C865    1.277   .     A
O860   C866    1.270   .     A
O861   C863    1.270   .     A
O862   C864    1.282   .     A
C863   C894    1.437   .     S
C864   C892    1.455   .     S
C865   C898    1.435   .     S
C866   C896    1.451   .     S
C867   C870    1.460   .     S
C868   C869    1.479   .     S
C869   C872    1.413   .     A
C869   C873    1.396   .     A
C870   C885    1.407   .     A
C870   C886    1.401   .     A
C871   C875    1.413   .     A
C871   Cl907   1.772   .     S
C871   C872    1.404   .     A
C872   N908    1.432   .     S
C873   C874    1.406   .     A
C873   H889    1.077   .     S
C874   C876    1.427   .     A
C874   C875    1.421   .     A
C875   C294    1.400   1_556 S
C876   C880    1.411   .     A
C876   C292    1.419   1_556 S
C877   C883    1.426   .     A
C877   C878    1.407   .     A
C878   H890    1.080   .     S
C878   C879    1.386   .     A
C879   H887    1.082   .     S
C880   C881    1.387   .     A
C880   H891    1.078   .     S
C881   H888    1.082   .     S
C881   C297    1.401   1_556 S
C882   C883    1.422   .     A
C882   C884    1.415   .     A
C883   C886    1.417   .     A
C884   C885    1.406   .     A
C884   N900    1.435   .     S
C885   N904    1.439   .     S
C886   Cl903   1.780   .     S
C892   H958    1.088   .     S
C892   C959    1.335   .     S
H895   C959    1.086   .     S
C896   H1092   1.088   .     S
C896   C1093   1.331   .     S
H899   C1093   1.086   .     S
N900   O901    1.301   .     A
O902   N315    1.301   1_556 S
N904   O905    1.301   .     A
N904   O906    1.301   .     A
N908   O910    1.301   .     A
N908   O909    1.301   .     A
Zn911  O924    1.927   .     S
Zn911  O915    1.960   .     S
Zn911  O923    1.925   .     S
Zn911  O917    1.922   .     S
Zn912  O915    1.942   .     S
Zn912  O920    1.929   .     S
Zn912  O926    1.925   .     S
Zn912  O918    1.937   .     S
Zn913  O919    1.930   .     S
Zn913  O915    1.931   .     S
Zn913  O927    1.936   .     S
Zn913  O922    1.934   .     S
Zn914  O925    1.930   .     S
Zn914  O921    1.940   .     S
Zn914  O916    1.931   .     S
Zn914  O915    1.930   .     S
O916   C928    1.269   .     A
O917   C929    1.278   .     A
O918   C930    1.277   .     A
O919   C931    1.269   .     A
O920   C932    1.274   .     A
O921   C933    1.281   .     A
O922   C932    1.272   .     A
O923   C933    1.288   .     A
O924   C930    1.277   .     A
O925   C931    1.270   .     A
O926   C928    1.270   .     A
O927   C929    1.282   .     A
C928   C959    1.437   .     S
C929   C957    1.455   .     S
C930   C963    1.435   .     S
C931   C961    1.451   .     S
C932   C935    1.460   .     S
C933   C934    1.479   .     S
C934   C937    1.413   .     A
C934   C938    1.396   .     A
C935   C950    1.407   .     A
C935   C951    1.401   .     A
C936   C940    1.413   .     A
C936   Cl972   1.772   .     S
C936   C937    1.404   .     A
C937   N973    1.432   .     S
C938   C939    1.406   .     A
C938   H954    1.077   .     S
C939   C941    1.427   .     A
C939   C940    1.421   .     A
C940   C359    1.400   1_556 S
C941   C945    1.411   .     A
C941   C357    1.419   1_556 S
C942   C948    1.426   .     A
C942   C943    1.407   .     A
C943   H955    1.080   .     S
C943   C944    1.386   .     A
C944   H952    1.082   .     S
C945   C946    1.387   .     A
C945   H956    1.078   .     S
C946   H953    1.082   .     S
C946   C362    1.401   1_556 S
C947   C948    1.422   .     A
C947   C949    1.415   .     A
C948   C951    1.417   .     A
C949   C950    1.406   .     A
C949   N965    1.435   .     S
C950   N969    1.439   .     S
C951   Cl968   1.780   .     S
C957   H828    1.088   1_655 S
C957   C829    1.335   1_655 S
H960   C829    1.086   1_655 S
C961   H1157   1.088   .     S
C961   C1158   1.331   .     S
H964   C1158   1.086   .     S
N965   O966    1.301   .     A
O967   N380    1.301   1_556 S
N969   O970    1.301   .     A
N969   O971    1.301   .     A
N973   O975    1.301   .     A
N973   O974    1.301   .     A
Zn976  O989    1.927   .     S
Zn976  O980    1.960   .     S
Zn976  O988    1.925   .     S
Zn976  O982    1.922   .     S
Zn977  O980    1.942   .     S
Zn977  O985    1.929   .     S
Zn977  O991    1.925   .     S
Zn977  O983    1.937   .     S
Zn978  O984    1.930   .     S
Zn978  O980    1.931   .     S
Zn978  O992    1.936   .     S
Zn978  O987    1.934   .     S
Zn979  O990    1.930   .     S
Zn979  O986    1.940   .     S
Zn979  O981    1.931   .     S
Zn979  O980    1.930   .     S
O981   C993    1.269   .     A
O982   C994    1.278   .     A
O983   C995    1.277   .     A
O984   C996    1.269   .     A
O985   C997    1.274   .     A
O986   C998    1.281   .     A
O987   C997    1.272   .     A
O988   C998    1.288   .     A
O989   C995    1.277   .     A
O990   C996    1.270   .     A
O991   C993    1.270   .     A
O992   C994    1.282   .     A
C993   C1024   1.437   .     S
C994   C1022   1.455   .     S
C995   C1028   1.435   .     S
C996   C1026   1.451   .     S
C997   C1000   1.460   .     S
C998   C999    1.479   .     S
C999   C1002   1.413   .     A
C999   C1003   1.396   .     A
C1000  C1015   1.407   .     A
C1000  C1016   1.401   .     A
C1001  C1005   1.413   .     A
C1001  Cl1037  1.772   .     S
C1001  C1002   1.404   .     A
C1002  N1038   1.432   .     S
C1003  C1004   1.406   .     A
C1003  H1019   1.077   .     S
C1004  C1006   1.427   .     A
C1004  C1005   1.421   .     A
C1005  C424    1.400   1_556 S
C1006  C1010   1.411   .     A
C1006  C422    1.419   1_556 S
C1007  C1013   1.426   .     A
C1007  C1008   1.407   .     A
C1008  H1020   1.080   .     S
C1008  C1009   1.386   .     A
C1009  H1017   1.082   .     S
C1010  C1011   1.387   .     A
C1010  H1021   1.078   .     S
C1011  H1018   1.082   .     S
C1011  C427    1.401   1_556 S
C1012  C1013   1.422   .     A
C1012  C1014   1.415   .     A
C1013  C1016   1.417   .     A
C1014  C1015   1.406   .     A
C1014  N1030   1.435   .     S
C1015  N1034   1.439   .     S
C1016  Cl1033  1.780   .     S
C1022  H1088   1.088   .     S
C1022  C1089   1.335   .     S
H1023  C1152   1.088   1_455 S
C1024  C1152   1.335   1_455 S
C1024  H1155   1.086   1_455 S
H1025  C1089   1.086   .     S
C1026  H637    1.088   1_565 S
C1026  C638    1.331   1_565 S
H1029  C638    1.086   1_565 S
N1030  O1031   1.301   .     A
O1032  N445    1.301   1_556 S
N1034  O1035   1.301   .     A
N1034  O1036   1.301   .     A
N1038  O1040   1.301   .     A
N1038  O1039   1.301   .     A
Zn1041 O1054   1.927   .     S
Zn1041 O1045   1.960   .     S
Zn1041 O1053   1.925   .     S
Zn1041 O1047   1.922   .     S
Zn1042 O1045   1.942   .     S
Zn1042 O1050   1.929   .     S
Zn1042 O1056   1.925   .     S
Zn1042 O1048   1.937   .     S
Zn1043 O1049   1.930   .     S
Zn1043 O1045   1.931   .     S
Zn1043 O1057   1.936   .     S
Zn1043 O1052   1.934   .     S
Zn1044 O1055   1.930   .     S
Zn1044 O1051   1.940   .     S
Zn1044 O1046   1.931   .     S
Zn1044 O1045   1.930   .     S
O1046  C1058   1.269   .     A
O1047  C1059   1.278   .     A
O1048  C1060   1.277   .     A
O1049  C1061   1.269   .     A
O1050  C1062   1.274   .     A
O1051  C1063   1.281   .     A
O1052  C1062   1.272   .     A
O1053  C1063   1.288   .     A
O1054  C1060   1.277   .     A
O1055  C1061   1.270   .     A
O1056  C1058   1.270   .     A
O1057  C1059   1.282   .     A
C1058  C1089   1.437   .     S
C1059  C1087   1.455   .     S
C1060  C1093   1.435   .     S
C1061  C1091   1.451   .     S
C1062  C1065   1.460   .     S
C1063  C1064   1.479   .     S
C1064  C1067   1.413   .     A
C1064  C1068   1.396   .     A
C1065  C1080   1.407   .     A
C1065  C1081   1.401   .     A
C1066  C1070   1.413   .     A
C1066  Cl1102  1.772   .     S
C1066  C1067   1.404   .     A
C1067  N1103   1.432   .     S
C1068  C1069   1.406   .     A
C1068  H1084   1.077   .     S
C1069  C1071   1.427   .     A
C1069  C1070   1.421   .     A
C1070  C489    1.400   1_556 S
C1071  C1075   1.411   .     A
C1071  C487    1.419   1_556 S
C1072  C1078   1.426   .     A
C1072  C1073   1.407   .     A
C1073  H1085   1.080   .     S
C1073  C1074   1.386   .     A
C1074  H1082   1.082   .     S
C1075  C1076   1.387   .     A
C1075  H1086   1.078   .     S
C1076  H1083   1.082   .     S
C1076  C492    1.401   1_556 S
C1077  C1078   1.422   .     A
C1077  C1079   1.415   .     A
C1078  C1081   1.417   .     A
C1079  C1080   1.406   .     A
C1079  N1095   1.435   .     S
C1080  N1099   1.439   .     S
C1081  Cl1098  1.780   .     S
C1087  H1153   1.088   .     S
C1087  C1154   1.335   .     S
H1090  C1154   1.086   .     S
C1091  H702    1.088   1_565 S
C1091  C703    1.331   1_565 S
H1094  C703    1.086   1_565 S
N1095  O1096   1.301   .     A
O1097  N510    1.301   1_556 S
N1099  O1100   1.301   .     A
N1099  O1101   1.301   .     A
N1103  O1105   1.301   .     A
N1103  O1104   1.301   .     A
Zn1106 O1119   1.927   .     S
Zn1106 O1110   1.960   .     S
Zn1106 O1118   1.925   .     S
Zn1106 O1112   1.922   .     S
Zn1107 O1110   1.942   .     S
Zn1107 O1115   1.929   .     S
Zn1107 O1121   1.925   .     S
Zn1107 O1113   1.937   .     S
Zn1108 O1114   1.930   .     S
Zn1108 O1110   1.931   .     S
Zn1108 O1122   1.936   .     S
Zn1108 O1117   1.934   .     S
Zn1109 O1120   1.930   .     S
Zn1109 O1116   1.940   .     S
Zn1109 O1111   1.931   .     S
Zn1109 O1110   1.930   .     S
O1111  C1123   1.269   .     A
O1112  C1124   1.278   .     A
O1113  C1125   1.277   .     A
O1114  C1126   1.269   .     A
O1115  C1127   1.274   .     A
O1116  C1128   1.281   .     A
O1117  C1127   1.272   .     A
O1118  C1128   1.288   .     A
O1119  C1125   1.277   .     A
O1120  C1126   1.270   .     A
O1121  C1123   1.270   .     A
O1122  C1124   1.282   .     A
C1123  C1154   1.437   .     S
C1124  C1152   1.455   .     S
C1125  C1158   1.435   .     S
C1126  C1156   1.451   .     S
C1127  C1130   1.460   .     S
C1128  C1129   1.479   .     S
C1129  C1132   1.413   .     A
C1129  C1133   1.396   .     A
C1130  C1145   1.407   .     A
C1130  C1146   1.401   .     A
C1131  C1135   1.413   .     A
C1131  Cl1167  1.772   .     S
C1131  C1132   1.404   .     A
C1132  N1168   1.432   .     S
C1133  C1134   1.406   .     A
C1133  H1149   1.077   .     S
C1134  C1136   1.427   .     A
C1134  C1135   1.421   .     A
C1135  C554    1.400   1_556 S
C1136  C1140   1.411   .     A
C1136  C552    1.419   1_556 S
C1137  C1143   1.426   .     A
C1137  C1138   1.407   .     A
C1138  H1150   1.080   .     S
C1138  C1139   1.386   .     A
C1139  H1147   1.082   .     S
C1140  C1141   1.387   .     A
C1140  H1151   1.078   .     S
C1141  H1148   1.082   .     S
C1141  C557    1.401   1_556 S
C1142  C1143   1.422   .     A
C1142  C1144   1.415   .     A
C1143  C1146   1.417   .     A
C1144  C1145   1.406   .     A
C1144  N1160   1.435   .     S
C1145  N1164   1.439   .     S
C1146  Cl1163  1.780   .     S
C1152  H1023   1.088   1_655 S
C1152  C1024   1.335   1_655 S
H1155  C1024   1.086   1_655 S
C1156  H767    1.088   1_565 S
C1156  C768    1.331   1_565 S
H1159  C768    1.086   1_565 S
N1160  O1161   1.301   .     A
O1162  N575    1.301   1_556 S
N1164  O1165   1.301   .     A
N1164  O1166   1.301   .     A
N1168  O1170   1.301   .     A
N1168  O1169   1.301   .     A
