data_str_m2_o10_o16_pcu_sym.89
_audit_creation_date              2020-01-03
_audit_creation_method            'Materials Studio'
_symmetry_space_group_name_H-M    'P1'
_symmetry_Int_Tables_number       1
_symmetry_cell_setting            triclinic
loop_
_symmetry_equiv_pos_as_xyz
  x,y,z
_cell_length_a                    22.2961
_cell_length_b                    26.0733
_cell_length_c                    26.6530
_cell_angle_alpha                 93.9696
_cell_angle_beta                  77.1408
_cell_angle_gamma                 103.1823
loop_
_atom_site_label
_atom_site_type_symbol
_atom_site_fract_x
_atom_site_fract_y
_atom_site_fract_z
_atom_site_U_iso_or_equiv
_atom_site_adp_type
_atom_site_occupancy
C1     C     0.18180   0.26674   0.25147   0.00000  Uiso   1.00
C2     C     0.11129   0.16103   0.40361   0.00000  Uiso   1.00
C3     C     0.19031   0.32270   0.25220   0.00000  Uiso   1.00
C4     C     0.13283   0.16503   0.34737   0.00000  Uiso   1.00
C5     C     0.14310   0.01063   0.24760   0.00000  Uiso   1.00
C6     C     0.15155   0.06660   0.24848   0.00000  Uiso   1.00
C7     C     0.20048   0.16855   0.15268   0.00000  Uiso   1.00
C8     C     0.28122   0.24008   0.03278   0.00000  Uiso   1.00
C9     C     0.22201   0.17589   0.09706   0.00000  Uiso   1.00
C10    C     0.05332   0.12716   0.42333   0.00000  Uiso   1.00
C11    C     0.03770   0.11262   0.47459   0.00000  Uiso   1.00
C12    C     0.14032   0.16257   0.48700   0.00000  Uiso   1.00
C13    C     0.08122   0.12890   0.00584   0.00000  Uiso   1.00
C14    C     0.12901   0.07257   0.10541   0.00000  Uiso   1.00
C15    C     0.15199   0.18358   0.43717   0.00000  Uiso   1.00
C16    C     0.18646   0.17828   0.01754   0.00000  Uiso   1.00
C17    C     0.23765   0.22143   0.00172   0.00000  Uiso   1.00
C18    C     0.24458   0.24584   0.45520   0.00000  Uiso   1.00
C19    C     0.20285   0.22716   0.42299   0.00000  Uiso   1.00
C20    C     0.18394   0.15085   0.06222   0.00000  Uiso   1.00
C21    C     0.27203   0.21879   0.08091   0.00000  Uiso   1.00
Cu22   Cu    0.10710   0.16105   0.24435   0.00000  Uiso   1.00
Cu23   Cu    0.22623   0.17228   0.25564   0.00000  Uiso   1.00
F24    F     0.20950   0.25509   0.38020   0.00000  Uiso   1.00
H25    H     0.30203   0.23785   0.10674   0.00000  Uiso   1.00
H26    H     0.23578   0.01319   0.25660   0.00000  Uiso   1.00
H27    H     0.09000   0.09234   0.12318   0.00000  Uiso   1.00
H28    H     0.15990   0.06983   0.13204   0.00000  Uiso   1.00
H29    H     0.10642   0.03148   0.09649   0.00000  Uiso   1.00
H30    H     0.09763   0.32015   0.24318   0.00000  Uiso   1.00
H31    H     0.00356   0.20596   0.28974   0.00000  Uiso   1.00
H32    H     0.32978   0.12736   0.21027   0.00000  Uiso   1.00
H33    H     0.28268   0.27970   0.44358   0.00000  Uiso   1.00
H34    H     0.32017   0.27334   0.02125   0.00000  Uiso   1.00
H35    H     0.02097   0.11035   0.39861   0.00000  Uiso   1.00
H36    H     0.06699   0.11649   0.04531   0.00000  Uiso   1.00
H37    H     0.32591   0.08694   0.48969   0.00000  Uiso   1.00
N38    N     0.31574   0.18074   0.26416   0.00000  Uiso   1.00
N39    N     0.01759   0.15259   0.23584   0.00000  Uiso   1.00
O40    O     0.12797   0.23807   0.24633   0.00000  Uiso   1.00
O41    O     0.22858   0.24755   0.25586   0.00000  Uiso   1.00
O42    O     0.09181   0.15960   0.31839   0.00000  Uiso   1.00
O43    O     0.19242   0.16908   0.32793   0.00000  Uiso   1.00
O44    O     0.10476   0.08578   0.24413   0.00000  Uiso   1.00
O45    O     0.20536   0.09526   0.25367   0.00000  Uiso   1.00
O46    O     0.14092   0.16425   0.17207   0.00000  Uiso   1.00
O47    O     0.24152   0.17373   0.18160   0.00000  Uiso   1.00
O48    O     0.16452   0.09604   0.05900   0.00000  Uiso   1.00
C49    C     0.51513   0.26674   0.25147   0.00000  Uiso   1.00
C50    C     0.44462   0.16103   0.40361   0.00000  Uiso   1.00
C51    C     0.52364   0.32270   0.25220   0.00000  Uiso   1.00
C52    C     0.46616   0.16503   0.34737   0.00000  Uiso   1.00
C53    C     0.47643   0.01063   0.24760   0.00000  Uiso   1.00
C54    C     0.48489   0.06660   0.24848   0.00000  Uiso   1.00
C55    C     0.53382   0.16855   0.15268   0.00000  Uiso   1.00
C56    C     0.61456   0.24008   0.03278   0.00000  Uiso   1.00
C57    C     0.55535   0.17589   0.09706   0.00000  Uiso   1.00
C58    C     0.38665   0.12716   0.42333   0.00000  Uiso   1.00
C59    C     0.37103   0.11262   0.47459   0.00000  Uiso   1.00
C60    C     0.47366   0.16257   0.48700   0.00000  Uiso   1.00
C61    C     0.41455   0.12890   0.00584   0.00000  Uiso   1.00
C62    C     0.46234   0.07257   0.10541   0.00000  Uiso   1.00
C63    C     0.48532   0.18358   0.43717   0.00000  Uiso   1.00
C64    C     0.51980   0.17828   0.01754   0.00000  Uiso   1.00
C65    C     0.57098   0.22143   0.00172   0.00000  Uiso   1.00
C66    C     0.57791   0.24584   0.45520   0.00000  Uiso   1.00
C67    C     0.53619   0.22716   0.42299   0.00000  Uiso   1.00
C68    C     0.51727   0.15085   0.06222   0.00000  Uiso   1.00
C69    C     0.60537   0.21879   0.08091   0.00000  Uiso   1.00
Cu70   Cu    0.44043   0.16105   0.24435   0.00000  Uiso   1.00
Cu71   Cu    0.55957   0.17228   0.25564   0.00000  Uiso   1.00
F72    F     0.54284   0.25509   0.38020   0.00000  Uiso   1.00
H73    H     0.63537   0.23785   0.10674   0.00000  Uiso   1.00
H74    H     0.56912   0.01319   0.25660   0.00000  Uiso   1.00
H75    H     0.42333   0.09234   0.12318   0.00000  Uiso   1.00
H76    H     0.49323   0.06983   0.13204   0.00000  Uiso   1.00
H77    H     0.43975   0.03148   0.09649   0.00000  Uiso   1.00
H78    H     0.43096   0.32015   0.24318   0.00000  Uiso   1.00
H79    H     0.33689   0.20596   0.28974   0.00000  Uiso   1.00
H80    H     0.66311   0.12736   0.21027   0.00000  Uiso   1.00
H81    H     0.61601   0.27970   0.44358   0.00000  Uiso   1.00
H82    H     0.65350   0.27334   0.02125   0.00000  Uiso   1.00
H83    H     0.35430   0.11035   0.39861   0.00000  Uiso   1.00
H84    H     0.40032   0.11649   0.04531   0.00000  Uiso   1.00
H85    H     0.65924   0.08694   0.48969   0.00000  Uiso   1.00
N86    N     0.64908   0.18074   0.26416   0.00000  Uiso   1.00
N87    N     0.35092   0.15259   0.23584   0.00000  Uiso   1.00
O88    O     0.46131   0.23807   0.24633   0.00000  Uiso   1.00
O89    O     0.56191   0.24755   0.25586   0.00000  Uiso   1.00
O90    O     0.42515   0.15960   0.31839   0.00000  Uiso   1.00
O91    O     0.52575   0.16908   0.32793   0.00000  Uiso   1.00
O92    O     0.43809   0.08578   0.24413   0.00000  Uiso   1.00
O93    O     0.53869   0.09526   0.25367   0.00000  Uiso   1.00
O94    O     0.47425   0.16425   0.17207   0.00000  Uiso   1.00
O95    O     0.57485   0.17373   0.18160   0.00000  Uiso   1.00
O96    O     0.49786   0.09604   0.05900   0.00000  Uiso   1.00
C97    C     0.84846   0.26674   0.25147   0.00000  Uiso   1.00
C98    C     0.77795   0.16103   0.40361   0.00000  Uiso   1.00
C99    C     0.85697   0.32270   0.25220   0.00000  Uiso   1.00
C100   C     0.79950   0.16503   0.34737   0.00000  Uiso   1.00
C101   C     0.80976   0.01063   0.24760   0.00000  Uiso   1.00
C102   C     0.81822   0.06660   0.24848   0.00000  Uiso   1.00
C103   C     0.86715   0.16855   0.15268   0.00000  Uiso   1.00
C104   C     0.94789   0.24008   0.03278   0.00000  Uiso   1.00
C105   C     0.88868   0.17589   0.09706   0.00000  Uiso   1.00
C106   C     0.71999   0.12716   0.42333   0.00000  Uiso   1.00
C107   C     0.70436   0.11262   0.47459   0.00000  Uiso   1.00
C108   C     0.80699   0.16257   0.48700   0.00000  Uiso   1.00
C109   C     0.74788   0.12890   0.00584   0.00000  Uiso   1.00
C110   C     0.79568   0.07257   0.10541   0.00000  Uiso   1.00
C111   C     0.81865   0.18358   0.43717   0.00000  Uiso   1.00
C112   C     0.85313   0.17828   0.01754   0.00000  Uiso   1.00
C113   C     0.90432   0.22143   0.00172   0.00000  Uiso   1.00
C114   C     0.91124   0.24584   0.45520   0.00000  Uiso   1.00
C115   C     0.86952   0.22716   0.42299   0.00000  Uiso   1.00
C116   C     0.85060   0.15085   0.06222   0.00000  Uiso   1.00
C117   C     0.93870   0.21879   0.08091   0.00000  Uiso   1.00
Cu118  Cu    0.77377   0.16105   0.24435   0.00000  Uiso   1.00
Cu119  Cu    0.89290   0.17228   0.25564   0.00000  Uiso   1.00
F120   F     0.87617   0.25509   0.38020   0.00000  Uiso   1.00
H121   H     0.96870   0.23785   0.10674   0.00000  Uiso   1.00
H122   H     0.90245   0.01319   0.25660   0.00000  Uiso   1.00
H123   H     0.75667   0.09234   0.12318   0.00000  Uiso   1.00
H124   H     0.82657   0.06983   0.13204   0.00000  Uiso   1.00
H125   H     0.77308   0.03148   0.09649   0.00000  Uiso   1.00
H126   H     0.76429   0.32015   0.24318   0.00000  Uiso   1.00
H127   H     0.67022   0.20596   0.28974   0.00000  Uiso   1.00
H128   H     0.99644   0.12736   0.21027   0.00000  Uiso   1.00
H129   H     0.94934   0.27970   0.44358   0.00000  Uiso   1.00
H130   H     0.98683   0.27334   0.02125   0.00000  Uiso   1.00
H131   H     0.68764   0.11035   0.39861   0.00000  Uiso   1.00
H132   H     0.73366   0.11649   0.04531   0.00000  Uiso   1.00
H133   H     0.99257   0.08694   0.48969   0.00000  Uiso   1.00
N134   N     0.98241   0.18074   0.26416   0.00000  Uiso   1.00
N135   N     0.68426   0.15259   0.23584   0.00000  Uiso   1.00
O136   O     0.79464   0.23807   0.24633   0.00000  Uiso   1.00
O137   O     0.89524   0.24755   0.25586   0.00000  Uiso   1.00
O138   O     0.75848   0.15960   0.31839   0.00000  Uiso   1.00
O139   O     0.85908   0.16908   0.32793   0.00000  Uiso   1.00
O140   O     0.77142   0.08578   0.24413   0.00000  Uiso   1.00
O141   O     0.87203   0.09526   0.25367   0.00000  Uiso   1.00
O142   O     0.80758   0.16425   0.17207   0.00000  Uiso   1.00
O143   O     0.90819   0.17373   0.18160   0.00000  Uiso   1.00
O144   O     0.83119   0.09604   0.05900   0.00000  Uiso   1.00
C145   C     0.18180   0.60007   0.25147   0.00000  Uiso   1.00
C146   C     0.11129   0.49436   0.40361   0.00000  Uiso   1.00
C147   C     0.19031   0.65604   0.25220   0.00000  Uiso   1.00
C148   C     0.13283   0.49836   0.34737   0.00000  Uiso   1.00
C149   C     0.14310   0.34397   0.24760   0.00000  Uiso   1.00
C150   C     0.15155   0.39993   0.24848   0.00000  Uiso   1.00
C151   C     0.20048   0.50188   0.15268   0.00000  Uiso   1.00
C152   C     0.28122   0.57341   0.03278   0.00000  Uiso   1.00
C153   C     0.22201   0.50923   0.09706   0.00000  Uiso   1.00
C154   C     0.05332   0.46050   0.42333   0.00000  Uiso   1.00
C155   C     0.03770   0.44596   0.47459   0.00000  Uiso   1.00
C156   C     0.14032   0.49590   0.48700   0.00000  Uiso   1.00
C157   C     0.08122   0.46224   0.00584   0.00000  Uiso   1.00
C158   C     0.12901   0.40591   0.10541   0.00000  Uiso   1.00
C159   C     0.15199   0.51691   0.43717   0.00000  Uiso   1.00
C160   C     0.18646   0.51162   0.01754   0.00000  Uiso   1.00
C161   C     0.23765   0.55476   0.00172   0.00000  Uiso   1.00
C162   C     0.24458   0.57917   0.45520   0.00000  Uiso   1.00
C163   C     0.20285   0.56049   0.42299   0.00000  Uiso   1.00
C164   C     0.18394   0.48418   0.06222   0.00000  Uiso   1.00
C165   C     0.27203   0.55212   0.08091   0.00000  Uiso   1.00
Cu166  Cu    0.10710   0.49439   0.24435   0.00000  Uiso   1.00
Cu167  Cu    0.22623   0.50561   0.25564   0.00000  Uiso   1.00
F168   F     0.20950   0.58843   0.38020   0.00000  Uiso   1.00
H169   H     0.30203   0.57119   0.10674   0.00000  Uiso   1.00
H170   H     0.23578   0.34652   0.25660   0.00000  Uiso   1.00
H171   H     0.09000   0.42567   0.12318   0.00000  Uiso   1.00
H172   H     0.15990   0.40317   0.13204   0.00000  Uiso   1.00
H173   H     0.10642   0.36481   0.09649   0.00000  Uiso   1.00
H174   H     0.09763   0.65348   0.24318   0.00000  Uiso   1.00
H175   H     0.00356   0.53930   0.28974   0.00000  Uiso   1.00
H176   H     0.32978   0.46070   0.21027   0.00000  Uiso   1.00
H177   H     0.28268   0.61303   0.44358   0.00000  Uiso   1.00
H178   H     0.32017   0.60667   0.02125   0.00000  Uiso   1.00
H179   H     0.02097   0.44369   0.39861   0.00000  Uiso   1.00
H180   H     0.06699   0.44982   0.04531   0.00000  Uiso   1.00
H181   H     0.32591   0.42027   0.48969   0.00000  Uiso   1.00
N182   N     0.31574   0.51407   0.26416   0.00000  Uiso   1.00
N183   N     0.01759   0.48593   0.23584   0.00000  Uiso   1.00
O184   O     0.12797   0.57141   0.24633   0.00000  Uiso   1.00
O185   O     0.22858   0.58089   0.25586   0.00000  Uiso   1.00
O186   O     0.09181   0.49293   0.31839   0.00000  Uiso   1.00
O187   O     0.19242   0.50241   0.32793   0.00000  Uiso   1.00
O188   O     0.10476   0.41911   0.24413   0.00000  Uiso   1.00
O189   O     0.20536   0.42859   0.25367   0.00000  Uiso   1.00
O190   O     0.14092   0.49759   0.17207   0.00000  Uiso   1.00
O191   O     0.24152   0.50707   0.18160   0.00000  Uiso   1.00
O192   O     0.16452   0.42938   0.05900   0.00000  Uiso   1.00
C193   C     0.51513   0.60007   0.25147   0.00000  Uiso   1.00
C194   C     0.44462   0.49436   0.40361   0.00000  Uiso   1.00
C195   C     0.52364   0.65604   0.25220   0.00000  Uiso   1.00
C196   C     0.46616   0.49836   0.34737   0.00000  Uiso   1.00
C197   C     0.47643   0.34397   0.24760   0.00000  Uiso   1.00
C198   C     0.48489   0.39993   0.24848   0.00000  Uiso   1.00
C199   C     0.53382   0.50188   0.15268   0.00000  Uiso   1.00
C200   C     0.61456   0.57341   0.03278   0.00000  Uiso   1.00
C201   C     0.55535   0.50923   0.09706   0.00000  Uiso   1.00
C202   C     0.38665   0.46050   0.42333   0.00000  Uiso   1.00
C203   C     0.37103   0.44596   0.47459   0.00000  Uiso   1.00
C204   C     0.47366   0.49590   0.48700   0.00000  Uiso   1.00
C205   C     0.41455   0.46224   0.00584   0.00000  Uiso   1.00
C206   C     0.46234   0.40591   0.10541   0.00000  Uiso   1.00
C207   C     0.48532   0.51691   0.43717   0.00000  Uiso   1.00
C208   C     0.51980   0.51162   0.01754   0.00000  Uiso   1.00
C209   C     0.57098   0.55476   0.00172   0.00000  Uiso   1.00
C210   C     0.57791   0.57917   0.45520   0.00000  Uiso   1.00
C211   C     0.53619   0.56049   0.42299   0.00000  Uiso   1.00
C212   C     0.51727   0.48418   0.06222   0.00000  Uiso   1.00
C213   C     0.60537   0.55212   0.08091   0.00000  Uiso   1.00
Cu214  Cu    0.44043   0.49439   0.24435   0.00000  Uiso   1.00
Cu215  Cu    0.55957   0.50561   0.25564   0.00000  Uiso   1.00
F216   F     0.54284   0.58843   0.38020   0.00000  Uiso   1.00
H217   H     0.63537   0.57119   0.10674   0.00000  Uiso   1.00
H218   H     0.56912   0.34652   0.25660   0.00000  Uiso   1.00
H219   H     0.42333   0.42567   0.12318   0.00000  Uiso   1.00
H220   H     0.49323   0.40317   0.13204   0.00000  Uiso   1.00
H221   H     0.43975   0.36481   0.09649   0.00000  Uiso   1.00
H222   H     0.43096   0.65348   0.24318   0.00000  Uiso   1.00
H223   H     0.33689   0.53930   0.28974   0.00000  Uiso   1.00
H224   H     0.66311   0.46070   0.21027   0.00000  Uiso   1.00
H225   H     0.61601   0.61303   0.44358   0.00000  Uiso   1.00
H226   H     0.65350   0.60667   0.02125   0.00000  Uiso   1.00
H227   H     0.35430   0.44369   0.39861   0.00000  Uiso   1.00
H228   H     0.40032   0.44982   0.04531   0.00000  Uiso   1.00
H229   H     0.65924   0.42027   0.48969   0.00000  Uiso   1.00
N230   N     0.64908   0.51407   0.26416   0.00000  Uiso   1.00
N231   N     0.35092   0.48593   0.23584   0.00000  Uiso   1.00
O232   O     0.46131   0.57141   0.24633   0.00000  Uiso   1.00
O233   O     0.56191   0.58089   0.25586   0.00000  Uiso   1.00
O234   O     0.42515   0.49293   0.31839   0.00000  Uiso   1.00
O235   O     0.52575   0.50241   0.32793   0.00000  Uiso   1.00
O236   O     0.43809   0.41911   0.24413   0.00000  Uiso   1.00
O237   O     0.53869   0.42859   0.25367   0.00000  Uiso   1.00
O238   O     0.47425   0.49759   0.17207   0.00000  Uiso   1.00
O239   O     0.57485   0.50707   0.18160   0.00000  Uiso   1.00
O240   O     0.49786   0.42938   0.05900   0.00000  Uiso   1.00
C241   C     0.84846   0.60007   0.25147   0.00000  Uiso   1.00
C242   C     0.77795   0.49436   0.40361   0.00000  Uiso   1.00
C243   C     0.85697   0.65604   0.25220   0.00000  Uiso   1.00
C244   C     0.79950   0.49836   0.34737   0.00000  Uiso   1.00
C245   C     0.80976   0.34397   0.24760   0.00000  Uiso   1.00
C246   C     0.81822   0.39993   0.24848   0.00000  Uiso   1.00
C247   C     0.86715   0.50188   0.15268   0.00000  Uiso   1.00
C248   C     0.94789   0.57341   0.03278   0.00000  Uiso   1.00
C249   C     0.88868   0.50923   0.09706   0.00000  Uiso   1.00
C250   C     0.71999   0.46050   0.42333   0.00000  Uiso   1.00
C251   C     0.70436   0.44596   0.47459   0.00000  Uiso   1.00
C252   C     0.80699   0.49590   0.48700   0.00000  Uiso   1.00
C253   C     0.74788   0.46224   0.00584   0.00000  Uiso   1.00
C254   C     0.79568   0.40591   0.10541   0.00000  Uiso   1.00
C255   C     0.81865   0.51691   0.43717   0.00000  Uiso   1.00
C256   C     0.85313   0.51162   0.01754   0.00000  Uiso   1.00
C257   C     0.90432   0.55476   0.00172   0.00000  Uiso   1.00
C258   C     0.91124   0.57917   0.45520   0.00000  Uiso   1.00
C259   C     0.86952   0.56049   0.42299   0.00000  Uiso   1.00
C260   C     0.85060   0.48418   0.06222   0.00000  Uiso   1.00
C261   C     0.93870   0.55212   0.08091   0.00000  Uiso   1.00
Cu262  Cu    0.77377   0.49439   0.24435   0.00000  Uiso   1.00
Cu263  Cu    0.89290   0.50561   0.25564   0.00000  Uiso   1.00
F264   F     0.87617   0.58843   0.38020   0.00000  Uiso   1.00
H265   H     0.96870   0.57119   0.10674   0.00000  Uiso   1.00
H266   H     0.90245   0.34652   0.25660   0.00000  Uiso   1.00
H267   H     0.75667   0.42567   0.12318   0.00000  Uiso   1.00
H268   H     0.82657   0.40317   0.13204   0.00000  Uiso   1.00
H269   H     0.77308   0.36481   0.09649   0.00000  Uiso   1.00
H270   H     0.76429   0.65348   0.24318   0.00000  Uiso   1.00
H271   H     0.67022   0.53930   0.28974   0.00000  Uiso   1.00
H272   H     0.99644   0.46070   0.21027   0.00000  Uiso   1.00
H273   H     0.94934   0.61303   0.44358   0.00000  Uiso   1.00
H274   H     0.98683   0.60667   0.02125   0.00000  Uiso   1.00
H275   H     0.68764   0.44369   0.39861   0.00000  Uiso   1.00
H276   H     0.73366   0.44982   0.04531   0.00000  Uiso   1.00
H277   H     0.99257   0.42027   0.48969   0.00000  Uiso   1.00
N278   N     0.98241   0.51407   0.26416   0.00000  Uiso   1.00
N279   N     0.68426   0.48593   0.23584   0.00000  Uiso   1.00
O280   O     0.79464   0.57141   0.24633   0.00000  Uiso   1.00
O281   O     0.89524   0.58089   0.25586   0.00000  Uiso   1.00
O282   O     0.75848   0.49293   0.31839   0.00000  Uiso   1.00
O283   O     0.85908   0.50241   0.32793   0.00000  Uiso   1.00
O284   O     0.77142   0.41911   0.24413   0.00000  Uiso   1.00
O285   O     0.87203   0.42859   0.25367   0.00000  Uiso   1.00
O286   O     0.80758   0.49759   0.17207   0.00000  Uiso   1.00
O287   O     0.90819   0.50707   0.18160   0.00000  Uiso   1.00
O288   O     0.83119   0.42938   0.05900   0.00000  Uiso   1.00
C289   C     0.18180   0.93340   0.25147   0.00000  Uiso   1.00
C290   C     0.11129   0.82770   0.40361   0.00000  Uiso   1.00
C291   C     0.19031   0.98937   0.25220   0.00000  Uiso   1.00
C292   C     0.13283   0.83169   0.34737   0.00000  Uiso   1.00
C293   C     0.14310   0.67730   0.24760   0.00000  Uiso   1.00
C294   C     0.15155   0.73327   0.24848   0.00000  Uiso   1.00
C295   C     0.20048   0.83522   0.15268   0.00000  Uiso   1.00
C296   C     0.28122   0.90674   0.03278   0.00000  Uiso   1.00
C297   C     0.22201   0.84256   0.09706   0.00000  Uiso   1.00
C298   C     0.05332   0.79383   0.42333   0.00000  Uiso   1.00
C299   C     0.03770   0.77929   0.47459   0.00000  Uiso   1.00
C300   C     0.14032   0.82924   0.48700   0.00000  Uiso   1.00
C301   C     0.08122   0.79557   0.00584   0.00000  Uiso   1.00
C302   C     0.12901   0.73924   0.10541   0.00000  Uiso   1.00
C303   C     0.15199   0.85024   0.43717   0.00000  Uiso   1.00
C304   C     0.18646   0.84495   0.01754   0.00000  Uiso   1.00
C305   C     0.23765   0.88809   0.00172   0.00000  Uiso   1.00
C306   C     0.24458   0.91251   0.45520   0.00000  Uiso   1.00
C307   C     0.20285   0.89383   0.42299   0.00000  Uiso   1.00
C308   C     0.18394   0.81752   0.06222   0.00000  Uiso   1.00
C309   C     0.27203   0.88545   0.08091   0.00000  Uiso   1.00
Cu310  Cu    0.10710   0.82772   0.24435   0.00000  Uiso   1.00
Cu311  Cu    0.22623   0.83895   0.25564   0.00000  Uiso   1.00
F312   F     0.20950   0.92176   0.38020   0.00000  Uiso   1.00
H313   H     0.30203   0.90452   0.10674   0.00000  Uiso   1.00
H314   H     0.23578   0.67986   0.25660   0.00000  Uiso   1.00
H315   H     0.09000   0.75900   0.12318   0.00000  Uiso   1.00
H316   H     0.15990   0.73650   0.13204   0.00000  Uiso   1.00
H317   H     0.10642   0.69814   0.09649   0.00000  Uiso   1.00
H318   H     0.09763   0.98682   0.24318   0.00000  Uiso   1.00
H319   H     0.00356   0.87263   0.28974   0.00000  Uiso   1.00
H320   H     0.32978   0.79403   0.21027   0.00000  Uiso   1.00
H321   H     0.28268   0.94636   0.44358   0.00000  Uiso   1.00
H322   H     0.32017   0.94001   0.02125   0.00000  Uiso   1.00
H323   H     0.02097   0.77702   0.39861   0.00000  Uiso   1.00
H324   H     0.06699   0.78316   0.04531   0.00000  Uiso   1.00
H325   H     0.32591   0.75360   0.48969   0.00000  Uiso   1.00
N326   N     0.31574   0.84741   0.26416   0.00000  Uiso   1.00
N327   N     0.01759   0.81926   0.23584   0.00000  Uiso   1.00
O328   O     0.12797   0.90474   0.24633   0.00000  Uiso   1.00
O329   O     0.22858   0.91422   0.25586   0.00000  Uiso   1.00
O330   O     0.09181   0.82627   0.31839   0.00000  Uiso   1.00
O331   O     0.19242   0.83575   0.32793   0.00000  Uiso   1.00
O332   O     0.10476   0.75245   0.24413   0.00000  Uiso   1.00
O333   O     0.20536   0.76193   0.25367   0.00000  Uiso   1.00
O334   O     0.14092   0.83092   0.17207   0.00000  Uiso   1.00
O335   O     0.24152   0.84040   0.18160   0.00000  Uiso   1.00
O336   O     0.16452   0.76271   0.05900   0.00000  Uiso   1.00
C337   C     0.51513   0.93340   0.25147   0.00000  Uiso   1.00
C338   C     0.44462   0.82770   0.40361   0.00000  Uiso   1.00
C339   C     0.52364   0.98937   0.25220   0.00000  Uiso   1.00
C340   C     0.46616   0.83169   0.34737   0.00000  Uiso   1.00
C341   C     0.47643   0.67730   0.24760   0.00000  Uiso   1.00
C342   C     0.48489   0.73327   0.24848   0.00000  Uiso   1.00
C343   C     0.53382   0.83522   0.15268   0.00000  Uiso   1.00
C344   C     0.61456   0.90674   0.03278   0.00000  Uiso   1.00
C345   C     0.55535   0.84256   0.09706   0.00000  Uiso   1.00
C346   C     0.38665   0.79383   0.42333   0.00000  Uiso   1.00
C347   C     0.37103   0.77929   0.47459   0.00000  Uiso   1.00
C348   C     0.47366   0.82924   0.48700   0.00000  Uiso   1.00
C349   C     0.41455   0.79557   0.00584   0.00000  Uiso   1.00
C350   C     0.46234   0.73924   0.10541   0.00000  Uiso   1.00
C351   C     0.48532   0.85024   0.43717   0.00000  Uiso   1.00
C352   C     0.51980   0.84495   0.01754   0.00000  Uiso   1.00
C353   C     0.57098   0.88809   0.00172   0.00000  Uiso   1.00
C354   C     0.57791   0.91251   0.45520   0.00000  Uiso   1.00
C355   C     0.53619   0.89383   0.42299   0.00000  Uiso   1.00
C356   C     0.51727   0.81752   0.06222   0.00000  Uiso   1.00
C357   C     0.60537   0.88545   0.08091   0.00000  Uiso   1.00
Cu358  Cu    0.44043   0.82772   0.24435   0.00000  Uiso   1.00
Cu359  Cu    0.55957   0.83895   0.25564   0.00000  Uiso   1.00
F360   F     0.54284   0.92176   0.38020   0.00000  Uiso   1.00
H361   H     0.63537   0.90452   0.10674   0.00000  Uiso   1.00
H362   H     0.56912   0.67986   0.25660   0.00000  Uiso   1.00
H363   H     0.42333   0.75900   0.12318   0.00000  Uiso   1.00
H364   H     0.49323   0.73650   0.13204   0.00000  Uiso   1.00
H365   H     0.43975   0.69814   0.09649   0.00000  Uiso   1.00
H366   H     0.43096   0.98682   0.24318   0.00000  Uiso   1.00
H367   H     0.33689   0.87263   0.28974   0.00000  Uiso   1.00
H368   H     0.66311   0.79403   0.21027   0.00000  Uiso   1.00
H369   H     0.61601   0.94636   0.44358   0.00000  Uiso   1.00
H370   H     0.65350   0.94001   0.02125   0.00000  Uiso   1.00
H371   H     0.35430   0.77702   0.39861   0.00000  Uiso   1.00
H372   H     0.40032   0.78316   0.04531   0.00000  Uiso   1.00
H373   H     0.65924   0.75360   0.48969   0.00000  Uiso   1.00
N374   N     0.64908   0.84741   0.26416   0.00000  Uiso   1.00
N375   N     0.35092   0.81926   0.23584   0.00000  Uiso   1.00
O376   O     0.46131   0.90474   0.24633   0.00000  Uiso   1.00
O377   O     0.56191   0.91422   0.25586   0.00000  Uiso   1.00
O378   O     0.42515   0.82627   0.31839   0.00000  Uiso   1.00
O379   O     0.52575   0.83575   0.32793   0.00000  Uiso   1.00
O380   O     0.43809   0.75245   0.24413   0.00000  Uiso   1.00
O381   O     0.53869   0.76193   0.25367   0.00000  Uiso   1.00
O382   O     0.47425   0.83092   0.17207   0.00000  Uiso   1.00
O383   O     0.57485   0.84040   0.18160   0.00000  Uiso   1.00
O384   O     0.49786   0.76271   0.05900   0.00000  Uiso   1.00
C385   C     0.84846   0.93340   0.25147   0.00000  Uiso   1.00
C386   C     0.77795   0.82770   0.40361   0.00000  Uiso   1.00
C387   C     0.85697   0.98937   0.25220   0.00000  Uiso   1.00
C388   C     0.79950   0.83169   0.34737   0.00000  Uiso   1.00
C389   C     0.80976   0.67730   0.24760   0.00000  Uiso   1.00
C390   C     0.81822   0.73327   0.24848   0.00000  Uiso   1.00
C391   C     0.86715   0.83522   0.15268   0.00000  Uiso   1.00
C392   C     0.94789   0.90674   0.03278   0.00000  Uiso   1.00
C393   C     0.88868   0.84256   0.09706   0.00000  Uiso   1.00
C394   C     0.71999   0.79383   0.42333   0.00000  Uiso   1.00
C395   C     0.70436   0.77929   0.47459   0.00000  Uiso   1.00
C396   C     0.80699   0.82924   0.48700   0.00000  Uiso   1.00
C397   C     0.74788   0.79557   0.00584   0.00000  Uiso   1.00
C398   C     0.79568   0.73924   0.10541   0.00000  Uiso   1.00
C399   C     0.81865   0.85024   0.43717   0.00000  Uiso   1.00
C400   C     0.85313   0.84495   0.01754   0.00000  Uiso   1.00
C401   C     0.90432   0.88809   0.00172   0.00000  Uiso   1.00
C402   C     0.91124   0.91251   0.45520   0.00000  Uiso   1.00
C403   C     0.86952   0.89383   0.42299   0.00000  Uiso   1.00
C404   C     0.85060   0.81752   0.06222   0.00000  Uiso   1.00
C405   C     0.93870   0.88545   0.08091   0.00000  Uiso   1.00
Cu406  Cu    0.77377   0.82772   0.24435   0.00000  Uiso   1.00
Cu407  Cu    0.89290   0.83895   0.25564   0.00000  Uiso   1.00
F408   F     0.87617   0.92176   0.38020   0.00000  Uiso   1.00
H409   H     0.96870   0.90452   0.10674   0.00000  Uiso   1.00
H410   H     0.90245   0.67986   0.25660   0.00000  Uiso   1.00
H411   H     0.75667   0.75900   0.12318   0.00000  Uiso   1.00
H412   H     0.82657   0.73650   0.13204   0.00000  Uiso   1.00
H413   H     0.77308   0.69814   0.09649   0.00000  Uiso   1.00
H414   H     0.76429   0.98682   0.24318   0.00000  Uiso   1.00
H415   H     0.67022   0.87263   0.28974   0.00000  Uiso   1.00
H416   H     0.99644   0.79403   0.21027   0.00000  Uiso   1.00
H417   H     0.94934   0.94636   0.44358   0.00000  Uiso   1.00
H418   H     0.98683   0.94001   0.02125   0.00000  Uiso   1.00
H419   H     0.68764   0.77702   0.39861   0.00000  Uiso   1.00
H420   H     0.73366   0.78316   0.04531   0.00000  Uiso   1.00
H421   H     0.99257   0.75360   0.48969   0.00000  Uiso   1.00
N422   N     0.98241   0.84741   0.26416   0.00000  Uiso   1.00
N423   N     0.68426   0.81926   0.23584   0.00000  Uiso   1.00
O424   O     0.79464   0.90474   0.24633   0.00000  Uiso   1.00
O425   O     0.89524   0.91422   0.25586   0.00000  Uiso   1.00
O426   O     0.75848   0.82627   0.31839   0.00000  Uiso   1.00
O427   O     0.85908   0.83575   0.32793   0.00000  Uiso   1.00
O428   O     0.77142   0.75245   0.24413   0.00000  Uiso   1.00
O429   O     0.87203   0.76193   0.25367   0.00000  Uiso   1.00
O430   O     0.80758   0.83092   0.17207   0.00000  Uiso   1.00
O431   O     0.90819   0.84040   0.18160   0.00000  Uiso   1.00
O432   O     0.83119   0.76271   0.05900   0.00000  Uiso   1.00
C433   C     0.18180   0.26674   0.75147   0.00000  Uiso   1.00
C434   C     0.11129   0.16103   0.90361   0.00000  Uiso   1.00
C435   C     0.19031   0.32270   0.75220   0.00000  Uiso   1.00
C436   C     0.13283   0.16503   0.84737   0.00000  Uiso   1.00
C437   C     0.14310   0.01063   0.74760   0.00000  Uiso   1.00
C438   C     0.15155   0.06660   0.74848   0.00000  Uiso   1.00
C439   C     0.20048   0.16855   0.65268   0.00000  Uiso   1.00
C440   C     0.28122   0.24008   0.53278   0.00000  Uiso   1.00
C441   C     0.22201   0.17589   0.59706   0.00000  Uiso   1.00
C442   C     0.05332   0.12716   0.92333   0.00000  Uiso   1.00
C443   C     0.03770   0.11262   0.97459   0.00000  Uiso   1.00
C444   C     0.14032   0.16257   0.98700   0.00000  Uiso   1.00
C445   C     0.08122   0.12890   0.50584   0.00000  Uiso   1.00
C446   C     0.12901   0.07257   0.60541   0.00000  Uiso   1.00
C447   C     0.15199   0.18358   0.93717   0.00000  Uiso   1.00
C448   C     0.18646   0.17828   0.51754   0.00000  Uiso   1.00
C449   C     0.23765   0.22143   0.50172   0.00000  Uiso   1.00
C450   C     0.24458   0.24584   0.95520   0.00000  Uiso   1.00
C451   C     0.20285   0.22716   0.92299   0.00000  Uiso   1.00
C452   C     0.18394   0.15085   0.56222   0.00000  Uiso   1.00
C453   C     0.27203   0.21879   0.58091   0.00000  Uiso   1.00
Cu454  Cu    0.10710   0.16105   0.74435   0.00000  Uiso   1.00
Cu455  Cu    0.22623   0.17228   0.75564   0.00000  Uiso   1.00
F456   F     0.20950   0.25509   0.88020   0.00000  Uiso   1.00
H457   H     0.30203   0.23785   0.60674   0.00000  Uiso   1.00
H458   H     0.23578   0.01319   0.75660   0.00000  Uiso   1.00
H459   H     0.09000   0.09234   0.62318   0.00000  Uiso   1.00
H460   H     0.15990   0.06983   0.63204   0.00000  Uiso   1.00
H461   H     0.10642   0.03148   0.59649   0.00000  Uiso   1.00
H462   H     0.09763   0.32015   0.74318   0.00000  Uiso   1.00
H463   H     0.00356   0.20596   0.78974   0.00000  Uiso   1.00
H464   H     0.32978   0.12736   0.71027   0.00000  Uiso   1.00
H465   H     0.28268   0.27970   0.94358   0.00000  Uiso   1.00
H466   H     0.32017   0.27334   0.52125   0.00000  Uiso   1.00
H467   H     0.02097   0.11035   0.89861   0.00000  Uiso   1.00
H468   H     0.06699   0.11649   0.54531   0.00000  Uiso   1.00
H469   H     0.32591   0.08694   0.98969   0.00000  Uiso   1.00
N470   N     0.31574   0.18074   0.76416   0.00000  Uiso   1.00
N471   N     0.01759   0.15259   0.73584   0.00000  Uiso   1.00
O472   O     0.12797   0.23807   0.74633   0.00000  Uiso   1.00
O473   O     0.22858   0.24755   0.75586   0.00000  Uiso   1.00
O474   O     0.09181   0.15960   0.81839   0.00000  Uiso   1.00
O475   O     0.19242   0.16908   0.82793   0.00000  Uiso   1.00
O476   O     0.10476   0.08578   0.74413   0.00000  Uiso   1.00
O477   O     0.20536   0.09526   0.75367   0.00000  Uiso   1.00
O478   O     0.14092   0.16425   0.67207   0.00000  Uiso   1.00
O479   O     0.24152   0.17373   0.68160   0.00000  Uiso   1.00
O480   O     0.16452   0.09604   0.55900   0.00000  Uiso   1.00
C481   C     0.51513   0.26674   0.75147   0.00000  Uiso   1.00
C482   C     0.44462   0.16103   0.90361   0.00000  Uiso   1.00
C483   C     0.52364   0.32270   0.75220   0.00000  Uiso   1.00
C484   C     0.46616   0.16503   0.84737   0.00000  Uiso   1.00
C485   C     0.47643   0.01063   0.74760   0.00000  Uiso   1.00
C486   C     0.48489   0.06660   0.74848   0.00000  Uiso   1.00
C487   C     0.53382   0.16855   0.65268   0.00000  Uiso   1.00
C488   C     0.61456   0.24008   0.53278   0.00000  Uiso   1.00
C489   C     0.55535   0.17589   0.59706   0.00000  Uiso   1.00
C490   C     0.38665   0.12716   0.92333   0.00000  Uiso   1.00
C491   C     0.37103   0.11262   0.97459   0.00000  Uiso   1.00
C492   C     0.47366   0.16257   0.98700   0.00000  Uiso   1.00
C493   C     0.41455   0.12890   0.50584   0.00000  Uiso   1.00
C494   C     0.46234   0.07257   0.60541   0.00000  Uiso   1.00
C495   C     0.48532   0.18358   0.93717   0.00000  Uiso   1.00
C496   C     0.51980   0.17828   0.51754   0.00000  Uiso   1.00
C497   C     0.57098   0.22143   0.50172   0.00000  Uiso   1.00
C498   C     0.57791   0.24584   0.95520   0.00000  Uiso   1.00
C499   C     0.53619   0.22716   0.92299   0.00000  Uiso   1.00
C500   C     0.51727   0.15085   0.56222   0.00000  Uiso   1.00
C501   C     0.60537   0.21879   0.58091   0.00000  Uiso   1.00
Cu502  Cu    0.44043   0.16105   0.74435   0.00000  Uiso   1.00
Cu503  Cu    0.55957   0.17228   0.75564   0.00000  Uiso   1.00
F504   F     0.54284   0.25509   0.88020   0.00000  Uiso   1.00
H505   H     0.63537   0.23785   0.60674   0.00000  Uiso   1.00
H506   H     0.56912   0.01319   0.75660   0.00000  Uiso   1.00
H507   H     0.42333   0.09234   0.62318   0.00000  Uiso   1.00
H508   H     0.49323   0.06983   0.63204   0.00000  Uiso   1.00
H509   H     0.43975   0.03148   0.59649   0.00000  Uiso   1.00
H510   H     0.43096   0.32015   0.74318   0.00000  Uiso   1.00
H511   H     0.33689   0.20596   0.78974   0.00000  Uiso   1.00
H512   H     0.66311   0.12736   0.71027   0.00000  Uiso   1.00
H513   H     0.61601   0.27970   0.94358   0.00000  Uiso   1.00
H514   H     0.65350   0.27334   0.52125   0.00000  Uiso   1.00
H515   H     0.35430   0.11035   0.89861   0.00000  Uiso   1.00
H516   H     0.40032   0.11649   0.54531   0.00000  Uiso   1.00
H517   H     0.65924   0.08694   0.98969   0.00000  Uiso   1.00
N518   N     0.64908   0.18074   0.76416   0.00000  Uiso   1.00
N519   N     0.35092   0.15259   0.73584   0.00000  Uiso   1.00
O520   O     0.46131   0.23807   0.74633   0.00000  Uiso   1.00
O521   O     0.56191   0.24755   0.75586   0.00000  Uiso   1.00
O522   O     0.42515   0.15960   0.81839   0.00000  Uiso   1.00
O523   O     0.52575   0.16908   0.82793   0.00000  Uiso   1.00
O524   O     0.43809   0.08578   0.74413   0.00000  Uiso   1.00
O525   O     0.53869   0.09526   0.75367   0.00000  Uiso   1.00
O526   O     0.47425   0.16425   0.67207   0.00000  Uiso   1.00
O527   O     0.57485   0.17373   0.68160   0.00000  Uiso   1.00
O528   O     0.49786   0.09604   0.55900   0.00000  Uiso   1.00
C529   C     0.84846   0.26674   0.75147   0.00000  Uiso   1.00
C530   C     0.77795   0.16103   0.90361   0.00000  Uiso   1.00
C531   C     0.85697   0.32270   0.75220   0.00000  Uiso   1.00
C532   C     0.79950   0.16503   0.84737   0.00000  Uiso   1.00
C533   C     0.80976   0.01063   0.74760   0.00000  Uiso   1.00
C534   C     0.81822   0.06660   0.74848   0.00000  Uiso   1.00
C535   C     0.86715   0.16855   0.65268   0.00000  Uiso   1.00
C536   C     0.94789   0.24008   0.53278   0.00000  Uiso   1.00
C537   C     0.88868   0.17589   0.59706   0.00000  Uiso   1.00
C538   C     0.71999   0.12716   0.92333   0.00000  Uiso   1.00
C539   C     0.70436   0.11262   0.97459   0.00000  Uiso   1.00
C540   C     0.80699   0.16257   0.98700   0.00000  Uiso   1.00
C541   C     0.74788   0.12890   0.50584   0.00000  Uiso   1.00
C542   C     0.79568   0.07257   0.60541   0.00000  Uiso   1.00
C543   C     0.81865   0.18358   0.93717   0.00000  Uiso   1.00
C544   C     0.85313   0.17828   0.51754   0.00000  Uiso   1.00
C545   C     0.90432   0.22143   0.50172   0.00000  Uiso   1.00
C546   C     0.91124   0.24584   0.95520   0.00000  Uiso   1.00
C547   C     0.86952   0.22716   0.92299   0.00000  Uiso   1.00
C548   C     0.85060   0.15085   0.56222   0.00000  Uiso   1.00
C549   C     0.93870   0.21879   0.58091   0.00000  Uiso   1.00
Cu550  Cu    0.77377   0.16105   0.74435   0.00000  Uiso   1.00
Cu551  Cu    0.89290   0.17228   0.75564   0.00000  Uiso   1.00
F552   F     0.87617   0.25509   0.88020   0.00000  Uiso   1.00
H553   H     0.96870   0.23785   0.60674   0.00000  Uiso   1.00
H554   H     0.90245   0.01319   0.75660   0.00000  Uiso   1.00
H555   H     0.75667   0.09234   0.62318   0.00000  Uiso   1.00
H556   H     0.82657   0.06983   0.63204   0.00000  Uiso   1.00
H557   H     0.77308   0.03148   0.59649   0.00000  Uiso   1.00
H558   H     0.76429   0.32015   0.74318   0.00000  Uiso   1.00
H559   H     0.67022   0.20596   0.78974   0.00000  Uiso   1.00
H560   H     0.99644   0.12736   0.71027   0.00000  Uiso   1.00
H561   H     0.94934   0.27970   0.94358   0.00000  Uiso   1.00
H562   H     0.98683   0.27334   0.52125   0.00000  Uiso   1.00
H563   H     0.68764   0.11035   0.89861   0.00000  Uiso   1.00
H564   H     0.73366   0.11649   0.54531   0.00000  Uiso   1.00
H565   H     0.99257   0.08694   0.98969   0.00000  Uiso   1.00
N566   N     0.98241   0.18074   0.76416   0.00000  Uiso   1.00
N567   N     0.68426   0.15259   0.73584   0.00000  Uiso   1.00
O568   O     0.79464   0.23807   0.74633   0.00000  Uiso   1.00
O569   O     0.89524   0.24755   0.75586   0.00000  Uiso   1.00
O570   O     0.75848   0.15960   0.81839   0.00000  Uiso   1.00
O571   O     0.85908   0.16908   0.82793   0.00000  Uiso   1.00
O572   O     0.77142   0.08578   0.74413   0.00000  Uiso   1.00
O573   O     0.87203   0.09526   0.75367   0.00000  Uiso   1.00
O574   O     0.80758   0.16425   0.67207   0.00000  Uiso   1.00
O575   O     0.90819   0.17373   0.68160   0.00000  Uiso   1.00
O576   O     0.83119   0.09604   0.55900   0.00000  Uiso   1.00
C577   C     0.18180   0.60007   0.75147   0.00000  Uiso   1.00
C578   C     0.11129   0.49436   0.90361   0.00000  Uiso   1.00
C579   C     0.19031   0.65604   0.75220   0.00000  Uiso   1.00
C580   C     0.13283   0.49836   0.84737   0.00000  Uiso   1.00
C581   C     0.14310   0.34397   0.74760   0.00000  Uiso   1.00
C582   C     0.15155   0.39993   0.74848   0.00000  Uiso   1.00
C583   C     0.20048   0.50188   0.65268   0.00000  Uiso   1.00
C584   C     0.28122   0.57341   0.53278   0.00000  Uiso   1.00
C585   C     0.22201   0.50923   0.59706   0.00000  Uiso   1.00
C586   C     0.05332   0.46050   0.92333   0.00000  Uiso   1.00
C587   C     0.03770   0.44596   0.97459   0.00000  Uiso   1.00
C588   C     0.14032   0.49590   0.98700   0.00000  Uiso   1.00
C589   C     0.08122   0.46224   0.50584   0.00000  Uiso   1.00
C590   C     0.12901   0.40591   0.60541   0.00000  Uiso   1.00
C591   C     0.15199   0.51691   0.93717   0.00000  Uiso   1.00
C592   C     0.18646   0.51162   0.51754   0.00000  Uiso   1.00
C593   C     0.23765   0.55476   0.50172   0.00000  Uiso   1.00
C594   C     0.24458   0.57917   0.95520   0.00000  Uiso   1.00
C595   C     0.20285   0.56049   0.92299   0.00000  Uiso   1.00
C596   C     0.18394   0.48418   0.56222   0.00000  Uiso   1.00
C597   C     0.27203   0.55212   0.58091   0.00000  Uiso   1.00
Cu598  Cu    0.10710   0.49439   0.74435   0.00000  Uiso   1.00
Cu599  Cu    0.22623   0.50561   0.75564   0.00000  Uiso   1.00
F600   F     0.20950   0.58843   0.88020   0.00000  Uiso   1.00
H601   H     0.30203   0.57119   0.60674   0.00000  Uiso   1.00
H602   H     0.23578   0.34652   0.75660   0.00000  Uiso   1.00
H603   H     0.09000   0.42567   0.62318   0.00000  Uiso   1.00
H604   H     0.15990   0.40317   0.63204   0.00000  Uiso   1.00
H605   H     0.10642   0.36481   0.59649   0.00000  Uiso   1.00
H606   H     0.09763   0.65348   0.74318   0.00000  Uiso   1.00
H607   H     0.00356   0.53930   0.78974   0.00000  Uiso   1.00
H608   H     0.32978   0.46070   0.71027   0.00000  Uiso   1.00
H609   H     0.28268   0.61303   0.94358   0.00000  Uiso   1.00
H610   H     0.32017   0.60667   0.52125   0.00000  Uiso   1.00
H611   H     0.02097   0.44369   0.89861   0.00000  Uiso   1.00
H612   H     0.06699   0.44982   0.54531   0.00000  Uiso   1.00
H613   H     0.32591   0.42027   0.98969   0.00000  Uiso   1.00
N614   N     0.31574   0.51407   0.76416   0.00000  Uiso   1.00
N615   N     0.01759   0.48593   0.73584   0.00000  Uiso   1.00
O616   O     0.12797   0.57141   0.74633   0.00000  Uiso   1.00
O617   O     0.22858   0.58089   0.75586   0.00000  Uiso   1.00
O618   O     0.09181   0.49293   0.81839   0.00000  Uiso   1.00
O619   O     0.19242   0.50241   0.82793   0.00000  Uiso   1.00
O620   O     0.10476   0.41911   0.74413   0.00000  Uiso   1.00
O621   O     0.20536   0.42859   0.75367   0.00000  Uiso   1.00
O622   O     0.14092   0.49759   0.67207   0.00000  Uiso   1.00
O623   O     0.24152   0.50707   0.68160   0.00000  Uiso   1.00
O624   O     0.16452   0.42938   0.55900   0.00000  Uiso   1.00
C625   C     0.51513   0.60007   0.75147   0.00000  Uiso   1.00
C626   C     0.44462   0.49436   0.90361   0.00000  Uiso   1.00
C627   C     0.52364   0.65604   0.75220   0.00000  Uiso   1.00
C628   C     0.46616   0.49836   0.84737   0.00000  Uiso   1.00
C629   C     0.47643   0.34397   0.74760   0.00000  Uiso   1.00
C630   C     0.48489   0.39993   0.74848   0.00000  Uiso   1.00
C631   C     0.53382   0.50188   0.65268   0.00000  Uiso   1.00
C632   C     0.61456   0.57341   0.53278   0.00000  Uiso   1.00
C633   C     0.55535   0.50923   0.59706   0.00000  Uiso   1.00
C634   C     0.38665   0.46050   0.92333   0.00000  Uiso   1.00
C635   C     0.37103   0.44596   0.97459   0.00000  Uiso   1.00
C636   C     0.47366   0.49590   0.98700   0.00000  Uiso   1.00
C637   C     0.41455   0.46224   0.50584   0.00000  Uiso   1.00
C638   C     0.46234   0.40591   0.60541   0.00000  Uiso   1.00
C639   C     0.48532   0.51691   0.93717   0.00000  Uiso   1.00
C640   C     0.51980   0.51162   0.51754   0.00000  Uiso   1.00
C641   C     0.57098   0.55476   0.50172   0.00000  Uiso   1.00
C642   C     0.57791   0.57917   0.95520   0.00000  Uiso   1.00
C643   C     0.53619   0.56049   0.92299   0.00000  Uiso   1.00
C644   C     0.51727   0.48418   0.56222   0.00000  Uiso   1.00
C645   C     0.60537   0.55212   0.58091   0.00000  Uiso   1.00
Cu646  Cu    0.44043   0.49439   0.74435   0.00000  Uiso   1.00
Cu647  Cu    0.55957   0.50561   0.75564   0.00000  Uiso   1.00
F648   F     0.54284   0.58843   0.88020   0.00000  Uiso   1.00
H649   H     0.63537   0.57119   0.60674   0.00000  Uiso   1.00
H650   H     0.56912   0.34652   0.75660   0.00000  Uiso   1.00
H651   H     0.42333   0.42567   0.62318   0.00000  Uiso   1.00
H652   H     0.49323   0.40317   0.63204   0.00000  Uiso   1.00
H653   H     0.43975   0.36481   0.59649   0.00000  Uiso   1.00
H654   H     0.43096   0.65348   0.74318   0.00000  Uiso   1.00
H655   H     0.33689   0.53930   0.78974   0.00000  Uiso   1.00
H656   H     0.66311   0.46070   0.71027   0.00000  Uiso   1.00
H657   H     0.61601   0.61303   0.94358   0.00000  Uiso   1.00
H658   H     0.65350   0.60667   0.52125   0.00000  Uiso   1.00
H659   H     0.35430   0.44369   0.89861   0.00000  Uiso   1.00
H660   H     0.40032   0.44982   0.54531   0.00000  Uiso   1.00
H661   H     0.65924   0.42027   0.98969   0.00000  Uiso   1.00
N662   N     0.64908   0.51407   0.76416   0.00000  Uiso   1.00
N663   N     0.35092   0.48593   0.73584   0.00000  Uiso   1.00
O664   O     0.46131   0.57141   0.74633   0.00000  Uiso   1.00
O665   O     0.56191   0.58089   0.75586   0.00000  Uiso   1.00
O666   O     0.42515   0.49293   0.81839   0.00000  Uiso   1.00
O667   O     0.52575   0.50241   0.82793   0.00000  Uiso   1.00
O668   O     0.43809   0.41911   0.74413   0.00000  Uiso   1.00
O669   O     0.53869   0.42859   0.75367   0.00000  Uiso   1.00
O670   O     0.47425   0.49759   0.67207   0.00000  Uiso   1.00
O671   O     0.57485   0.50707   0.68160   0.00000  Uiso   1.00
O672   O     0.49786   0.42938   0.55900   0.00000  Uiso   1.00
C673   C     0.84846   0.60007   0.75147   0.00000  Uiso   1.00
C674   C     0.77795   0.49436   0.90361   0.00000  Uiso   1.00
C675   C     0.85697   0.65604   0.75220   0.00000  Uiso   1.00
C676   C     0.79950   0.49836   0.84737   0.00000  Uiso   1.00
C677   C     0.80976   0.34397   0.74760   0.00000  Uiso   1.00
C678   C     0.81822   0.39993   0.74848   0.00000  Uiso   1.00
C679   C     0.86715   0.50188   0.65268   0.00000  Uiso   1.00
C680   C     0.94789   0.57341   0.53278   0.00000  Uiso   1.00
C681   C     0.88868   0.50923   0.59706   0.00000  Uiso   1.00
C682   C     0.71999   0.46050   0.92333   0.00000  Uiso   1.00
C683   C     0.70436   0.44596   0.97459   0.00000  Uiso   1.00
C684   C     0.80699   0.49590   0.98700   0.00000  Uiso   1.00
C685   C     0.74788   0.46224   0.50584   0.00000  Uiso   1.00
C686   C     0.79568   0.40591   0.60541   0.00000  Uiso   1.00
C687   C     0.81865   0.51691   0.93717   0.00000  Uiso   1.00
C688   C     0.85313   0.51162   0.51754   0.00000  Uiso   1.00
C689   C     0.90432   0.55476   0.50172   0.00000  Uiso   1.00
C690   C     0.91124   0.57917   0.95520   0.00000  Uiso   1.00
C691   C     0.86952   0.56049   0.92299   0.00000  Uiso   1.00
C692   C     0.85060   0.48418   0.56222   0.00000  Uiso   1.00
C693   C     0.93870   0.55212   0.58091   0.00000  Uiso   1.00
Cu694  Cu    0.77377   0.49439   0.74435   0.00000  Uiso   1.00
Cu695  Cu    0.89290   0.50561   0.75564   0.00000  Uiso   1.00
F696   F     0.87617   0.58843   0.88020   0.00000  Uiso   1.00
H697   H     0.96870   0.57119   0.60674   0.00000  Uiso   1.00
H698   H     0.90245   0.34652   0.75660   0.00000  Uiso   1.00
H699   H     0.75667   0.42567   0.62318   0.00000  Uiso   1.00
H700   H     0.82657   0.40317   0.63204   0.00000  Uiso   1.00
H701   H     0.77308   0.36481   0.59649   0.00000  Uiso   1.00
H702   H     0.76429   0.65348   0.74318   0.00000  Uiso   1.00
H703   H     0.67022   0.53930   0.78974   0.00000  Uiso   1.00
H704   H     0.99644   0.46070   0.71027   0.00000  Uiso   1.00
H705   H     0.94934   0.61303   0.94358   0.00000  Uiso   1.00
H706   H     0.98683   0.60667   0.52125   0.00000  Uiso   1.00
H707   H     0.68764   0.44369   0.89861   0.00000  Uiso   1.00
H708   H     0.73366   0.44982   0.54531   0.00000  Uiso   1.00
H709   H     0.99257   0.42027   0.98969   0.00000  Uiso   1.00
N710   N     0.98241   0.51407   0.76416   0.00000  Uiso   1.00
N711   N     0.68426   0.48593   0.73584   0.00000  Uiso   1.00
O712   O     0.79464   0.57141   0.74633   0.00000  Uiso   1.00
O713   O     0.89524   0.58089   0.75586   0.00000  Uiso   1.00
O714   O     0.75848   0.49293   0.81839   0.00000  Uiso   1.00
O715   O     0.85908   0.50241   0.82793   0.00000  Uiso   1.00
O716   O     0.77142   0.41911   0.74413   0.00000  Uiso   1.00
O717   O     0.87203   0.42859   0.75367   0.00000  Uiso   1.00
O718   O     0.80758   0.49759   0.67207   0.00000  Uiso   1.00
O719   O     0.90819   0.50707   0.68160   0.00000  Uiso   1.00
O720   O     0.83119   0.42938   0.55900   0.00000  Uiso   1.00
C721   C     0.18180   0.93340   0.75147   0.00000  Uiso   1.00
C722   C     0.11129   0.82770   0.90361   0.00000  Uiso   1.00
C723   C     0.19031   0.98937   0.75220   0.00000  Uiso   1.00
C724   C     0.13283   0.83169   0.84737   0.00000  Uiso   1.00
C725   C     0.14310   0.67730   0.74760   0.00000  Uiso   1.00
C726   C     0.15155   0.73327   0.74848   0.00000  Uiso   1.00
C727   C     0.20048   0.83522   0.65268   0.00000  Uiso   1.00
C728   C     0.28122   0.90674   0.53278   0.00000  Uiso   1.00
C729   C     0.22201   0.84256   0.59706   0.00000  Uiso   1.00
C730   C     0.05332   0.79383   0.92333   0.00000  Uiso   1.00
C731   C     0.03770   0.77929   0.97459   0.00000  Uiso   1.00
C732   C     0.14032   0.82924   0.98700   0.00000  Uiso   1.00
C733   C     0.08122   0.79557   0.50584   0.00000  Uiso   1.00
C734   C     0.12901   0.73924   0.60541   0.00000  Uiso   1.00
C735   C     0.15199   0.85024   0.93717   0.00000  Uiso   1.00
C736   C     0.18646   0.84495   0.51754   0.00000  Uiso   1.00
C737   C     0.23765   0.88809   0.50172   0.00000  Uiso   1.00
C738   C     0.24458   0.91251   0.95520   0.00000  Uiso   1.00
C739   C     0.20285   0.89383   0.92299   0.00000  Uiso   1.00
C740   C     0.18394   0.81752   0.56222   0.00000  Uiso   1.00
C741   C     0.27203   0.88545   0.58091   0.00000  Uiso   1.00
Cu742  Cu    0.10710   0.82772   0.74435   0.00000  Uiso   1.00
Cu743  Cu    0.22623   0.83895   0.75564   0.00000  Uiso   1.00
F744   F     0.20950   0.92176   0.88020   0.00000  Uiso   1.00
H745   H     0.30203   0.90452   0.60674   0.00000  Uiso   1.00
H746   H     0.23578   0.67986   0.75660   0.00000  Uiso   1.00
H747   H     0.09000   0.75900   0.62318   0.00000  Uiso   1.00
H748   H     0.15990   0.73650   0.63204   0.00000  Uiso   1.00
H749   H     0.10642   0.69814   0.59649   0.00000  Uiso   1.00
H750   H     0.09763   0.98682   0.74318   0.00000  Uiso   1.00
H751   H     0.00356   0.87263   0.78974   0.00000  Uiso   1.00
H752   H     0.32978   0.79403   0.71027   0.00000  Uiso   1.00
H753   H     0.28268   0.94636   0.94358   0.00000  Uiso   1.00
H754   H     0.32017   0.94001   0.52125   0.00000  Uiso   1.00
H755   H     0.02097   0.77702   0.89861   0.00000  Uiso   1.00
H756   H     0.06699   0.78316   0.54531   0.00000  Uiso   1.00
H757   H     0.32591   0.75360   0.98969   0.00000  Uiso   1.00
N758   N     0.31574   0.84741   0.76416   0.00000  Uiso   1.00
N759   N     0.01759   0.81926   0.73584   0.00000  Uiso   1.00
O760   O     0.12797   0.90474   0.74633   0.00000  Uiso   1.00
O761   O     0.22858   0.91422   0.75586   0.00000  Uiso   1.00
O762   O     0.09181   0.82627   0.81839   0.00000  Uiso   1.00
O763   O     0.19242   0.83575   0.82793   0.00000  Uiso   1.00
O764   O     0.10476   0.75245   0.74413   0.00000  Uiso   1.00
O765   O     0.20536   0.76193   0.75367   0.00000  Uiso   1.00
O766   O     0.14092   0.83092   0.67207   0.00000  Uiso   1.00
O767   O     0.24152   0.84040   0.68160   0.00000  Uiso   1.00
O768   O     0.16452   0.76271   0.55900   0.00000  Uiso   1.00
C769   C     0.51513   0.93340   0.75147   0.00000  Uiso   1.00
C770   C     0.44462   0.82770   0.90361   0.00000  Uiso   1.00
C771   C     0.52364   0.98937   0.75220   0.00000  Uiso   1.00
C772   C     0.46616   0.83169   0.84737   0.00000  Uiso   1.00
C773   C     0.47643   0.67730   0.74760   0.00000  Uiso   1.00
C774   C     0.48489   0.73327   0.74848   0.00000  Uiso   1.00
C775   C     0.53382   0.83522   0.65268   0.00000  Uiso   1.00
C776   C     0.61456   0.90674   0.53278   0.00000  Uiso   1.00
C777   C     0.55535   0.84256   0.59706   0.00000  Uiso   1.00
C778   C     0.38665   0.79383   0.92333   0.00000  Uiso   1.00
C779   C     0.37103   0.77929   0.97459   0.00000  Uiso   1.00
C780   C     0.47366   0.82924   0.98700   0.00000  Uiso   1.00
C781   C     0.41455   0.79557   0.50584   0.00000  Uiso   1.00
C782   C     0.46234   0.73924   0.60541   0.00000  Uiso   1.00
C783   C     0.48532   0.85024   0.93717   0.00000  Uiso   1.00
C784   C     0.51980   0.84495   0.51754   0.00000  Uiso   1.00
C785   C     0.57098   0.88809   0.50172   0.00000  Uiso   1.00
C786   C     0.57791   0.91251   0.95520   0.00000  Uiso   1.00
C787   C     0.53619   0.89383   0.92299   0.00000  Uiso   1.00
C788   C     0.51727   0.81752   0.56222   0.00000  Uiso   1.00
C789   C     0.60537   0.88545   0.58091   0.00000  Uiso   1.00
Cu790  Cu    0.44043   0.82772   0.74435   0.00000  Uiso   1.00
Cu791  Cu    0.55957   0.83895   0.75564   0.00000  Uiso   1.00
F792   F     0.54284   0.92176   0.88020   0.00000  Uiso   1.00
H793   H     0.63537   0.90452   0.60674   0.00000  Uiso   1.00
H794   H     0.56912   0.67986   0.75660   0.00000  Uiso   1.00
H795   H     0.42333   0.75900   0.62318   0.00000  Uiso   1.00
H796   H     0.49323   0.73650   0.63204   0.00000  Uiso   1.00
H797   H     0.43975   0.69814   0.59649   0.00000  Uiso   1.00
H798   H     0.43096   0.98682   0.74318   0.00000  Uiso   1.00
H799   H     0.33689   0.87263   0.78974   0.00000  Uiso   1.00
H800   H     0.66311   0.79403   0.71027   0.00000  Uiso   1.00
H801   H     0.61601   0.94636   0.94358   0.00000  Uiso   1.00
H802   H     0.65350   0.94001   0.52125   0.00000  Uiso   1.00
H803   H     0.35430   0.77702   0.89861   0.00000  Uiso   1.00
H804   H     0.40032   0.78316   0.54531   0.00000  Uiso   1.00
H805   H     0.65924   0.75360   0.98969   0.00000  Uiso   1.00
N806   N     0.64908   0.84741   0.76416   0.00000  Uiso   1.00
N807   N     0.35092   0.81926   0.73584   0.00000  Uiso   1.00
O808   O     0.46131   0.90474   0.74633   0.00000  Uiso   1.00
O809   O     0.56191   0.91422   0.75586   0.00000  Uiso   1.00
O810   O     0.42515   0.82627   0.81839   0.00000  Uiso   1.00
O811   O     0.52575   0.83575   0.82793   0.00000  Uiso   1.00
O812   O     0.43809   0.75245   0.74413   0.00000  Uiso   1.00
O813   O     0.53869   0.76193   0.75367   0.00000  Uiso   1.00
O814   O     0.47425   0.83092   0.67207   0.00000  Uiso   1.00
O815   O     0.57485   0.84040   0.68160   0.00000  Uiso   1.00
O816   O     0.49786   0.76271   0.55900   0.00000  Uiso   1.00
C817   C     0.84846   0.93340   0.75147   0.00000  Uiso   1.00
C818   C     0.77795   0.82770   0.90361   0.00000  Uiso   1.00
C819   C     0.85697   0.98937   0.75220   0.00000  Uiso   1.00
C820   C     0.79950   0.83169   0.84737   0.00000  Uiso   1.00
C821   C     0.80976   0.67730   0.74760   0.00000  Uiso   1.00
C822   C     0.81822   0.73327   0.74848   0.00000  Uiso   1.00
C823   C     0.86715   0.83522   0.65268   0.00000  Uiso   1.00
C824   C     0.94789   0.90674   0.53278   0.00000  Uiso   1.00
C825   C     0.88868   0.84256   0.59706   0.00000  Uiso   1.00
C826   C     0.71999   0.79383   0.92333   0.00000  Uiso   1.00
C827   C     0.70436   0.77929   0.97459   0.00000  Uiso   1.00
C828   C     0.80699   0.82924   0.98700   0.00000  Uiso   1.00
C829   C     0.74788   0.79557   0.50584   0.00000  Uiso   1.00
C830   C     0.79568   0.73924   0.60541   0.00000  Uiso   1.00
C831   C     0.81865   0.85024   0.93717   0.00000  Uiso   1.00
C832   C     0.85313   0.84495   0.51754   0.00000  Uiso   1.00
C833   C     0.90432   0.88809   0.50172   0.00000  Uiso   1.00
C834   C     0.91124   0.91251   0.95520   0.00000  Uiso   1.00
C835   C     0.86952   0.89383   0.92299   0.00000  Uiso   1.00
C836   C     0.85060   0.81752   0.56222   0.00000  Uiso   1.00
C837   C     0.93870   0.88545   0.58091   0.00000  Uiso   1.00
Cu838  Cu    0.77377   0.82772   0.74435   0.00000  Uiso   1.00
Cu839  Cu    0.89290   0.83895   0.75564   0.00000  Uiso   1.00
F840   F     0.87617   0.92176   0.88020   0.00000  Uiso   1.00
H841   H     0.96870   0.90452   0.60674   0.00000  Uiso   1.00
H842   H     0.90245   0.67986   0.75660   0.00000  Uiso   1.00
H843   H     0.75667   0.75900   0.62318   0.00000  Uiso   1.00
H844   H     0.82657   0.73650   0.63204   0.00000  Uiso   1.00
H845   H     0.77308   0.69814   0.59649   0.00000  Uiso   1.00
H846   H     0.76429   0.98682   0.74318   0.00000  Uiso   1.00
H847   H     0.67022   0.87263   0.78974   0.00000  Uiso   1.00
H848   H     0.99644   0.79403   0.71027   0.00000  Uiso   1.00
H849   H     0.94934   0.94636   0.94358   0.00000  Uiso   1.00
H850   H     0.98683   0.94001   0.52125   0.00000  Uiso   1.00
H851   H     0.68764   0.77702   0.89861   0.00000  Uiso   1.00
H852   H     0.73366   0.78316   0.54531   0.00000  Uiso   1.00
H853   H     0.99257   0.75360   0.98969   0.00000  Uiso   1.00
N854   N     0.98241   0.84741   0.76416   0.00000  Uiso   1.00
N855   N     0.68426   0.81926   0.73584   0.00000  Uiso   1.00
O856   O     0.79464   0.90474   0.74633   0.00000  Uiso   1.00
O857   O     0.89524   0.91422   0.75586   0.00000  Uiso   1.00
O858   O     0.75848   0.82627   0.81839   0.00000  Uiso   1.00
O859   O     0.85908   0.83575   0.82793   0.00000  Uiso   1.00
O860   O     0.77142   0.75245   0.74413   0.00000  Uiso   1.00
O861   O     0.87203   0.76193   0.75367   0.00000  Uiso   1.00
O862   O     0.80758   0.83092   0.67207   0.00000  Uiso   1.00
O863   O     0.90819   0.84040   0.68160   0.00000  Uiso   1.00
O864   O     0.83119   0.76271   0.55900   0.00000  Uiso   1.00
loop_
_geom_bond_atom_site_label_1
_geom_bond_atom_site_label_2
_geom_bond_distance
_geom_bond_site_symmetry_2
_ccdc_geom_bond_type
C1     O41     1.285   .     A
C1     O40     1.291   .     A
C1     C3      1.427   .     S
C2     C4      1.472   .     S
C2     C15     1.419   .     A
C2     C10     1.403   .     A
C3     C149    1.328   .     S
C3     H170    1.088   .     S
C4     O43     1.297   .     A
C4     O42     1.301   .     A
C5     C6      1.427   .     S
C5     C291    1.328   1_545 S
C5     H318    1.088   1_545 S
C6     O44     1.285   .     A
C6     O45     1.291   .     A
C7     O46     1.295   .     A
C7     C9      1.465   .     S
C7     O47     1.301   .     A
C8     C17     1.397   .     A
C8     C21     1.388   .     A
C8     H34     1.084   .     S
C9     C20     1.422   .     A
C9     C21     1.401   .     A
C10    H35     1.083   .     S
C10    C11     1.390   .     A
C11    C445    1.392   .     S
C11    H133    1.083   1_455 S
C12    C15     1.419   .     A
C12    C445    1.414   .     S
C12    C448    1.422   .     S
C13    H36     1.079   .     S
C13    C444    1.414   1_554 S
C13    C443    1.392   1_554 S
C14    H27     1.111   .     S
C14    H29     1.109   .     S
C14    O48     1.407   .     S
C14    H28     1.109   .     S
C15    C19     1.415   .     A
C16    C20     1.415   .     A
C16    C17     1.418   .     A
C16    C444    1.422   1_554 S
C17    C450    1.395   1_554 S
C18    H33     1.084   .     S
C18    C19     1.389   .     A
C18    C449    1.395   .     S
C19    F24     1.358   .     S
C20    O48     1.398   .     S
C21    H25     1.084   .     S
Cu22   O40     1.955   .     S
Cu22   O42     1.928   .     S
Cu22   O46     1.906   .     S
Cu22   N39     2.019   .     S
Cu22   Cu23    2.687   .     S
Cu22   O44     1.951   .     S
Cu23   O45     1.955   .     S
Cu23   N38     2.019   .     S
Cu23   O41     1.951   .     S
Cu23   O47     1.928   .     S
Cu23   O43     1.906   .     S
H26    C291    1.088   1_545 S
H30    C149    1.088   .     S
H31    N134    1.029   1_455 S
H32    N87     1.029   .     S
H37    C59     1.083   .     S
N38    H79     1.029   .     S
N38    N87     1.283   .     S
N39    N134    1.283   1_455 S
N39    H128    1.029   1_455 S
C49    O89     1.285   .     A
C49    O88     1.291   .     A
C49    C51     1.427   .     S
C50    C52     1.472   .     S
C50    C63     1.419   .     A
C50    C58     1.403   .     A
C51    C197    1.328   .     S
C51    H218    1.088   .     S
C52    O91     1.297   .     A
C52    O90     1.301   .     A
C53    C54     1.427   .     S
C53    C339    1.328   1_545 S
C53    H366    1.088   1_545 S
C54    O92     1.285   .     A
C54    O93     1.291   .     A
C55    O94     1.295   .     A
C55    C57     1.465   .     S
C55    O95     1.301   .     A
C56    C65     1.397   .     A
C56    C69     1.388   .     A
C56    H82     1.084   .     S
C57    C68     1.422   .     A
C57    C69     1.401   .     A
C58    H83     1.083   .     S
C58    C59     1.390   .     A
C59    C493    1.392   .     S
C60    C63     1.419   .     A
C60    C493    1.414   .     S
C60    C496    1.422   .     S
C61    H84     1.079   .     S
C61    C492    1.414   1_554 S
C61    C491    1.392   1_554 S
C62    H75     1.111   .     S
C62    H77     1.109   .     S
C62    O96     1.407   .     S
C62    H76     1.109   .     S
C63    C67     1.415   .     A
C64    C68     1.415   .     A
C64    C65     1.418   .     A
C64    C492    1.422   1_554 S
C65    C498    1.395   1_554 S
C66    H81     1.084   .     S
C66    C67     1.389   .     A
C66    C497    1.395   .     S
C67    F72     1.358   .     S
C68    O96     1.398   .     S
C69    H73     1.084   .     S
Cu70   O88     1.955   .     S
Cu70   O90     1.928   .     S
Cu70   O94     1.906   .     S
Cu70   N87     2.019   .     S
Cu70   Cu71    2.687   .     S
Cu70   O92     1.951   .     S
Cu71   O93     1.955   .     S
Cu71   N86     2.019   .     S
Cu71   O89     1.951   .     S
Cu71   O95     1.928   .     S
Cu71   O91     1.906   .     S
H74    C339    1.088   1_545 S
H78    C197    1.088   .     S
H80    N135    1.029   .     S
H85    C107    1.083   .     S
N86    H127    1.029   .     S
N86    N135    1.283   .     S
C97    O137    1.285   .     A
C97    O136    1.291   .     A
C97    C99     1.427   .     S
C98    C100    1.472   .     S
C98    C111    1.419   .     A
C98    C106    1.403   .     A
C99    C245    1.328   .     S
C99    H266    1.088   .     S
C100   O139    1.297   .     A
C100   O138    1.301   .     A
C101   C102    1.427   .     S
C101   C387    1.328   1_545 S
C101   H414    1.088   1_545 S
C102   O140    1.285   .     A
C102   O141    1.291   .     A
C103   O142    1.295   .     A
C103   C105    1.465   .     S
C103   O143    1.301   .     A
C104   C113    1.397   .     A
C104   C117    1.388   .     A
C104   H130    1.084   .     S
C105   C116    1.422   .     A
C105   C117    1.401   .     A
C106   H131    1.083   .     S
C106   C107    1.390   .     A
C107   C541    1.392   .     S
C108   C111    1.419   .     A
C108   C541    1.414   .     S
C108   C544    1.422   .     S
C109   H132    1.079   .     S
C109   C540    1.414   1_554 S
C109   C539    1.392   1_554 S
C110   H123    1.111   .     S
C110   H125    1.109   .     S
C110   O144    1.407   .     S
C110   H124    1.109   .     S
C111   C115    1.415   .     A
C112   C116    1.415   .     A
C112   C113    1.418   .     A
C112   C540    1.422   1_554 S
C113   C546    1.395   1_554 S
C114   H129    1.084   .     S
C114   C115    1.389   .     A
C114   C545    1.395   .     S
C115   F120    1.358   .     S
C116   O144    1.398   .     S
C117   H121    1.084   .     S
Cu118  O136    1.955   .     S
Cu118  O138    1.928   .     S
Cu118  O142    1.906   .     S
Cu118  N135    2.019   .     S
Cu118  Cu119   2.687   .     S
Cu118  O140    1.951   .     S
Cu119  O141    1.955   .     S
Cu119  N134    2.019   .     S
Cu119  O137    1.951   .     S
Cu119  O143    1.928   .     S
Cu119  O139    1.906   .     S
H122   C387    1.088   1_545 S
H126   C245    1.088   .     S
H128   N39     1.029   1_655 S
H133   C11     1.083   1_655 S
N134   H31     1.029   1_655 S
N134   N39     1.283   1_655 S
C145   O185    1.285   .     A
C145   O184    1.291   .     A
C145   C147    1.427   .     S
C146   C148    1.472   .     S
C146   C159    1.419   .     A
C146   C154    1.403   .     A
C147   C293    1.328   .     S
C147   H314    1.088   .     S
C148   O187    1.297   .     A
C148   O186    1.301   .     A
C149   C150    1.427   .     S
C150   O188    1.285   .     A
C150   O189    1.291   .     A
C151   O190    1.295   .     A
C151   C153    1.465   .     S
C151   O191    1.301   .     A
C152   C161    1.397   .     A
C152   C165    1.388   .     A
C152   H178    1.084   .     S
C153   C164    1.422   .     A
C153   C165    1.401   .     A
C154   H179    1.083   .     S
C154   C155    1.390   .     A
C155   C589    1.392   .     S
C155   H277    1.083   1_455 S
C156   C159    1.419   .     A
C156   C589    1.414   .     S
C156   C592    1.422   .     S
C157   H180    1.079   .     S
C157   C588    1.414   1_554 S
C157   C587    1.392   1_554 S
C158   H171    1.111   .     S
C158   H173    1.109   .     S
C158   O192    1.407   .     S
C158   H172    1.109   .     S
C159   C163    1.415   .     A
C160   C164    1.415   .     A
C160   C161    1.418   .     A
C160   C588    1.422   1_554 S
C161   C594    1.395   1_554 S
C162   H177    1.084   .     S
C162   C163    1.389   .     A
C162   C593    1.395   .     S
C163   F168    1.358   .     S
C164   O192    1.398   .     S
C165   H169    1.084   .     S
Cu166  O184    1.955   .     S
Cu166  O186    1.928   .     S
Cu166  O190    1.906   .     S
Cu166  N183    2.019   .     S
Cu166  Cu167   2.687   .     S
Cu166  O188    1.951   .     S
Cu167  O189    1.955   .     S
Cu167  N182    2.019   .     S
Cu167  O185    1.951   .     S
Cu167  O191    1.928   .     S
Cu167  O187    1.906   .     S
H174   C293    1.088   .     S
H175   N278    1.029   1_455 S
H176   N231    1.029   .     S
H181   C203    1.083   .     S
N182   H223    1.029   .     S
N182   N231    1.283   .     S
N183   N278    1.283   1_455 S
N183   H272    1.029   1_455 S
C193   O233    1.285   .     A
C193   O232    1.291   .     A
C193   C195    1.427   .     S
C194   C196    1.472   .     S
C194   C207    1.419   .     A
C194   C202    1.403   .     A
C195   C341    1.328   .     S
C195   H362    1.088   .     S
C196   O235    1.297   .     A
C196   O234    1.301   .     A
C197   C198    1.427   .     S
C198   O236    1.285   .     A
C198   O237    1.291   .     A
C199   O238    1.295   .     A
C199   C201    1.465   .     S
C199   O239    1.301   .     A
C200   C209    1.397   .     A
C200   C213    1.388   .     A
C200   H226    1.084   .     S
C201   C212    1.422   .     A
C201   C213    1.401   .     A
C202   H227    1.083   .     S
C202   C203    1.390   .     A
C203   C637    1.392   .     S
C204   C207    1.419   .     A
C204   C637    1.414   .     S
C204   C640    1.422   .     S
C205   H228    1.079   .     S
C205   C636    1.414   1_554 S
C205   C635    1.392   1_554 S
C206   H219    1.111   .     S
C206   H221    1.109   .     S
C206   O240    1.407   .     S
C206   H220    1.109   .     S
C207   C211    1.415   .     A
C208   C212    1.415   .     A
C208   C209    1.418   .     A
C208   C636    1.422   1_554 S
C209   C642    1.395   1_554 S
C210   H225    1.084   .     S
C210   C211    1.389   .     A
C210   C641    1.395   .     S
C211   F216    1.358   .     S
C212   O240    1.398   .     S
C213   H217    1.084   .     S
Cu214  O232    1.955   .     S
Cu214  O234    1.928   .     S
Cu214  O238    1.906   .     S
Cu214  N231    2.019   .     S
Cu214  Cu215   2.687   .     S
Cu214  O236    1.951   .     S
Cu215  O237    1.955   .     S
Cu215  N230    2.019   .     S
Cu215  O233    1.951   .     S
Cu215  O239    1.928   .     S
Cu215  O235    1.906   .     S
H222   C341    1.088   .     S
H224   N279    1.029   .     S
H229   C251    1.083   .     S
N230   H271    1.029   .     S
N230   N279    1.283   .     S
C241   O281    1.285   .     A
C241   O280    1.291   .     A
C241   C243    1.427   .     S
C242   C244    1.472   .     S
C242   C255    1.419   .     A
C242   C250    1.403   .     A
C243   C389    1.328   .     S
C243   H410    1.088   .     S
C244   O283    1.297   .     A
C244   O282    1.301   .     A
C245   C246    1.427   .     S
C246   O284    1.285   .     A
C246   O285    1.291   .     A
C247   O286    1.295   .     A
C247   C249    1.465   .     S
C247   O287    1.301   .     A
C248   C257    1.397   .     A
C248   C261    1.388   .     A
C248   H274    1.084   .     S
C249   C260    1.422   .     A
C249   C261    1.401   .     A
C250   H275    1.083   .     S
C250   C251    1.390   .     A
C251   C685    1.392   .     S
C252   C255    1.419   .     A
C252   C685    1.414   .     S
C252   C688    1.422   .     S
C253   H276    1.079   .     S
C253   C684    1.414   1_554 S
C253   C683    1.392   1_554 S
C254   H267    1.111   .     S
C254   H269    1.109   .     S
C254   O288    1.407   .     S
C254   H268    1.109   .     S
C255   C259    1.415   .     A
C256   C260    1.415   .     A
C256   C257    1.418   .     A
C256   C684    1.422   1_554 S
C257   C690    1.395   1_554 S
C258   H273    1.084   .     S
C258   C259    1.389   .     A
C258   C689    1.395   .     S
C259   F264    1.358   .     S
C260   O288    1.398   .     S
C261   H265    1.084   .     S
Cu262  O280    1.955   .     S
Cu262  O282    1.928   .     S
Cu262  O286    1.906   .     S
Cu262  N279    2.019   .     S
Cu262  Cu263   2.687   .     S
Cu262  O284    1.951   .     S
Cu263  O285    1.955   .     S
Cu263  N278    2.019   .     S
Cu263  O281    1.951   .     S
Cu263  O287    1.928   .     S
Cu263  O283    1.906   .     S
H270   C389    1.088   .     S
H272   N183    1.029   1_655 S
H277   C155    1.083   1_655 S
N278   H175    1.029   1_655 S
N278   N183    1.283   1_655 S
C289   O329    1.285   .     A
C289   O328    1.291   .     A
C289   C291    1.427   .     S
C290   C292    1.472   .     S
C290   C303    1.419   .     A
C290   C298    1.403   .     A
C291   C5      1.328   1_565 S
C291   H26     1.088   1_565 S
C292   O331    1.297   .     A
C292   O330    1.301   .     A
C293   C294    1.427   .     S
C294   O332    1.285   .     A
C294   O333    1.291   .     A
C295   O334    1.295   .     A
C295   C297    1.465   .     S
C295   O335    1.301   .     A
C296   C305    1.397   .     A
C296   C309    1.388   .     A
C296   H322    1.084   .     S
C297   C308    1.422   .     A
C297   C309    1.401   .     A
C298   H323    1.083   .     S
C298   C299    1.390   .     A
C299   C733    1.392   .     S
C299   H421    1.083   1_455 S
C300   C303    1.419   .     A
C300   C733    1.414   .     S
C300   C736    1.422   .     S
C301   H324    1.079   .     S
C301   C732    1.414   1_554 S
C301   C731    1.392   1_554 S
C302   H315    1.111   .     S
C302   H317    1.109   .     S
C302   O336    1.407   .     S
C302   H316    1.109   .     S
C303   C307    1.415   .     A
C304   C308    1.415   .     A
C304   C305    1.418   .     A
C304   C732    1.422   1_554 S
C305   C738    1.395   1_554 S
C306   H321    1.084   .     S
C306   C307    1.389   .     A
C306   C737    1.395   .     S
C307   F312    1.358   .     S
C308   O336    1.398   .     S
C309   H313    1.084   .     S
Cu310  O328    1.955   .     S
Cu310  O330    1.928   .     S
Cu310  O334    1.906   .     S
Cu310  N327    2.019   .     S
Cu310  Cu311   2.687   .     S
Cu310  O332    1.951   .     S
Cu311  O333    1.955   .     S
Cu311  N326    2.019   .     S
Cu311  O329    1.951   .     S
Cu311  O335    1.928   .     S
Cu311  O331    1.906   .     S
H318   C5      1.088   1_565 S
H319   N422    1.029   1_455 S
H320   N375    1.029   .     S
H325   C347    1.083   .     S
N326   H367    1.029   .     S
N326   N375    1.283   .     S
N327   N422    1.283   1_455 S
N327   H416    1.029   1_455 S
C337   O377    1.285   .     A
C337   O376    1.291   .     A
C337   C339    1.427   .     S
C338   C340    1.472   .     S
C338   C351    1.419   .     A
C338   C346    1.403   .     A
C339   C53     1.328   1_565 S
C339   H74     1.088   1_565 S
C340   O379    1.297   .     A
C340   O378    1.301   .     A
C341   C342    1.427   .     S
C342   O380    1.285   .     A
C342   O381    1.291   .     A
C343   O382    1.295   .     A
C343   C345    1.465   .     S
C343   O383    1.301   .     A
C344   C353    1.397   .     A
C344   C357    1.388   .     A
C344   H370    1.084   .     S
C345   C356    1.422   .     A
C345   C357    1.401   .     A
C346   H371    1.083   .     S
C346   C347    1.390   .     A
C347   C781    1.392   .     S
C348   C351    1.419   .     A
C348   C781    1.414   .     S
C348   C784    1.422   .     S
C349   H372    1.079   .     S
C349   C780    1.414   1_554 S
C349   C779    1.392   1_554 S
C350   H363    1.111   .     S
C350   H365    1.109   .     S
C350   O384    1.407   .     S
C350   H364    1.109   .     S
C351   C355    1.415   .     A
C352   C356    1.415   .     A
C352   C353    1.418   .     A
C352   C780    1.422   1_554 S
C353   C786    1.395   1_554 S
C354   H369    1.084   .     S
C354   C355    1.389   .     A
C354   C785    1.395   .     S
C355   F360    1.358   .     S
C356   O384    1.398   .     S
C357   H361    1.084   .     S
Cu358  O376    1.955   .     S
Cu358  O378    1.928   .     S
Cu358  O382    1.906   .     S
Cu358  N375    2.019   .     S
Cu358  Cu359   2.687   .     S
Cu358  O380    1.951   .     S
Cu359  O381    1.955   .     S
Cu359  N374    2.019   .     S
Cu359  O377    1.951   .     S
Cu359  O383    1.928   .     S
Cu359  O379    1.906   .     S
H366   C53     1.088   1_565 S
H368   N423    1.029   .     S
H373   C395    1.083   .     S
N374   H415    1.029   .     S
N374   N423    1.283   .     S
C385   O425    1.285   .     A
C385   O424    1.291   .     A
C385   C387    1.427   .     S
C386   C388    1.472   .     S
C386   C399    1.419   .     A
C386   C394    1.403   .     A
C387   C101    1.328   1_565 S
C387   H122    1.088   1_565 S
C388   O427    1.297   .     A
C388   O426    1.301   .     A
C389   C390    1.427   .     S
C390   O428    1.285   .     A
C390   O429    1.291   .     A
C391   O430    1.295   .     A
C391   C393    1.465   .     S
C391   O431    1.301   .     A
C392   C401    1.397   .     A
C392   C405    1.388   .     A
C392   H418    1.084   .     S
C393   C404    1.422   .     A
C393   C405    1.401   .     A
C394   H419    1.083   .     S
C394   C395    1.390   .     A
C395   C829    1.392   .     S
C396   C399    1.419   .     A
C396   C829    1.414   .     S
C396   C832    1.422   .     S
C397   H420    1.079   .     S
C397   C828    1.414   1_554 S
C397   C827    1.392   1_554 S
C398   H411    1.111   .     S
C398   H413    1.109   .     S
C398   O432    1.407   .     S
C398   H412    1.109   .     S
C399   C403    1.415   .     A
C400   C404    1.415   .     A
C400   C401    1.418   .     A
C400   C828    1.422   1_554 S
C401   C834    1.395   1_554 S
C402   H417    1.084   .     S
C402   C403    1.389   .     A
C402   C833    1.395   .     S
C403   F408    1.358   .     S
C404   O432    1.398   .     S
C405   H409    1.084   .     S
Cu406  O424    1.955   .     S
Cu406  O426    1.928   .     S
Cu406  O430    1.906   .     S
Cu406  N423    2.019   .     S
Cu406  Cu407   2.687   .     S
Cu406  O428    1.951   .     S
Cu407  O429    1.955   .     S
Cu407  N422    2.019   .     S
Cu407  O425    1.951   .     S
Cu407  O431    1.928   .     S
Cu407  O427    1.906   .     S
H414   C101    1.088   1_565 S
H416   N327    1.029   1_655 S
H421   C299    1.083   1_655 S
N422   H319    1.029   1_655 S
N422   N327    1.283   1_655 S
C433   O473    1.285   .     A
C433   O472    1.291   .     A
C433   C435    1.427   .     S
C434   C436    1.472   .     S
C434   C447    1.419   .     A
C434   C442    1.403   .     A
C435   C581    1.328   .     S
C435   H602    1.088   .     S
C436   O475    1.297   .     A
C436   O474    1.301   .     A
C437   C438    1.427   .     S
C437   C723    1.328   1_545 S
C437   H750    1.088   1_545 S
C438   O476    1.285   .     A
C438   O477    1.291   .     A
C439   O478    1.295   .     A
C439   C441    1.465   .     S
C439   O479    1.301   .     A
C440   C449    1.397   .     A
C440   C453    1.388   .     A
C440   H466    1.084   .     S
C441   C452    1.422   .     A
C441   C453    1.401   .     A
C442   H467    1.083   .     S
C442   C443    1.390   .     A
C443   C13     1.392   1_556 S
C443   H565    1.083   1_455 S
C444   C447    1.419   .     A
C444   C13     1.414   1_556 S
C444   C16     1.422   1_556 S
C445   H468    1.079   .     S
C446   H459    1.111   .     S
C446   H461    1.109   .     S
C446   O480    1.407   .     S
C446   H460    1.109   .     S
C447   C451    1.415   .     A
C448   C452    1.415   .     A
C448   C449    1.418   .     A
C450   H465    1.084   .     S
C450   C451    1.389   .     A
C450   C17     1.395   1_556 S
C451   F456    1.358   .     S
C452   O480    1.398   .     S
C453   H457    1.084   .     S
Cu454  O472    1.955   .     S
Cu454  O474    1.928   .     S
Cu454  O478    1.906   .     S
Cu454  N471    2.019   .     S
Cu454  Cu455   2.687   .     S
Cu454  O476    1.951   .     S
Cu455  O477    1.955   .     S
Cu455  N470    2.019   .     S
Cu455  O473    1.951   .     S
Cu455  O479    1.928   .     S
Cu455  O475    1.906   .     S
H458   C723    1.088   1_545 S
H462   C581    1.088   .     S
H463   N566    1.029   1_455 S
H464   N519    1.029   .     S
H469   C491    1.083   .     S
N470   H511    1.029   .     S
N470   N519    1.283   .     S
N471   N566    1.283   1_455 S
N471   H560    1.029   1_455 S
C481   O521    1.285   .     A
C481   O520    1.291   .     A
C481   C483    1.427   .     S
C482   C484    1.472   .     S
C482   C495    1.419   .     A
C482   C490    1.403   .     A
C483   C629    1.328   .     S
C483   H650    1.088   .     S
C484   O523    1.297   .     A
C484   O522    1.301   .     A
C485   C486    1.427   .     S
C485   C771    1.328   1_545 S
C485   H798    1.088   1_545 S
C486   O524    1.285   .     A
C486   O525    1.291   .     A
C487   O526    1.295   .     A
C487   C489    1.465   .     S
C487   O527    1.301   .     A
C488   C497    1.397   .     A
C488   C501    1.388   .     A
C488   H514    1.084   .     S
C489   C500    1.422   .     A
C489   C501    1.401   .     A
C490   H515    1.083   .     S
C490   C491    1.390   .     A
C491   C61     1.392   1_556 S
C492   C495    1.419   .     A
C492   C61     1.414   1_556 S
C492   C64     1.422   1_556 S
C493   H516    1.079   .     S
C494   H507    1.111   .     S
C494   H509    1.109   .     S
C494   O528    1.407   .     S
C494   H508    1.109   .     S
C495   C499    1.415   .     A
C496   C500    1.415   .     A
C496   C497    1.418   .     A
C498   H513    1.084   .     S
C498   C499    1.389   .     A
C498   C65     1.395   1_556 S
C499   F504    1.358   .     S
C500   O528    1.398   .     S
C501   H505    1.084   .     S
Cu502  O520    1.955   .     S
Cu502  O522    1.928   .     S
Cu502  O526    1.906   .     S
Cu502  N519    2.019   .     S
Cu502  Cu503   2.687   .     S
Cu502  O524    1.951   .     S
Cu503  O525    1.955   .     S
Cu503  N518    2.019   .     S
Cu503  O521    1.951   .     S
Cu503  O527    1.928   .     S
Cu503  O523    1.906   .     S
H506   C771    1.088   1_545 S
H510   C629    1.088   .     S
H512   N567    1.029   .     S
H517   C539    1.083   .     S
N518   H559    1.029   .     S
N518   N567    1.283   .     S
C529   O569    1.285   .     A
C529   O568    1.291   .     A
C529   C531    1.427   .     S
C530   C532    1.472   .     S
C530   C543    1.419   .     A
C530   C538    1.403   .     A
C531   C677    1.328   .     S
C531   H698    1.088   .     S
C532   O571    1.297   .     A
C532   O570    1.301   .     A
C533   C534    1.427   .     S
C533   C819    1.328   1_545 S
C533   H846    1.088   1_545 S
C534   O572    1.285   .     A
C534   O573    1.291   .     A
C535   O574    1.295   .     A
C535   C537    1.465   .     S
C535   O575    1.301   .     A
C536   C545    1.397   .     A
C536   C549    1.388   .     A
C536   H562    1.084   .     S
C537   C548    1.422   .     A
C537   C549    1.401   .     A
C538   H563    1.083   .     S
C538   C539    1.390   .     A
C539   C109    1.392   1_556 S
C540   C543    1.419   .     A
C540   C109    1.414   1_556 S
C540   C112    1.422   1_556 S
C541   H564    1.079   .     S
C542   H555    1.111   .     S
C542   H557    1.109   .     S
C542   O576    1.407   .     S
C542   H556    1.109   .     S
C543   C547    1.415   .     A
C544   C548    1.415   .     A
C544   C545    1.418   .     A
C546   H561    1.084   .     S
C546   C547    1.389   .     A
C546   C113    1.395   1_556 S
C547   F552    1.358   .     S
C548   O576    1.398   .     S
C549   H553    1.084   .     S
Cu550  O568    1.955   .     S
Cu550  O570    1.928   .     S
Cu550  O574    1.906   .     S
Cu550  N567    2.019   .     S
Cu550  Cu551   2.687   .     S
Cu550  O572    1.951   .     S
Cu551  O573    1.955   .     S
Cu551  N566    2.019   .     S
Cu551  O569    1.951   .     S
Cu551  O575    1.928   .     S
Cu551  O571    1.906   .     S
H554   C819    1.088   1_545 S
H558   C677    1.088   .     S
H560   N471    1.029   1_655 S
H565   C443    1.083   1_655 S
N566   H463    1.029   1_655 S
N566   N471    1.283   1_655 S
C577   O617    1.285   .     A
C577   O616    1.291   .     A
C577   C579    1.427   .     S
C578   C580    1.472   .     S
C578   C591    1.419   .     A
C578   C586    1.403   .     A
C579   C725    1.328   .     S
C579   H746    1.088   .     S
C580   O619    1.297   .     A
C580   O618    1.301   .     A
C581   C582    1.427   .     S
C582   O620    1.285   .     A
C582   O621    1.291   .     A
C583   O622    1.295   .     A
C583   C585    1.465   .     S
C583   O623    1.301   .     A
C584   C593    1.397   .     A
C584   C597    1.388   .     A
C584   H610    1.084   .     S
C585   C596    1.422   .     A
C585   C597    1.401   .     A
C586   H611    1.083   .     S
C586   C587    1.390   .     A
C587   C157    1.392   1_556 S
C587   H709    1.083   1_455 S
C588   C591    1.419   .     A
C588   C157    1.414   1_556 S
C588   C160    1.422   1_556 S
C589   H612    1.079   .     S
C590   H603    1.111   .     S
C590   H605    1.109   .     S
C590   O624    1.407   .     S
C590   H604    1.109   .     S
C591   C595    1.415   .     A
C592   C596    1.415   .     A
C592   C593    1.418   .     A
C594   H609    1.084   .     S
C594   C595    1.389   .     A
C594   C161    1.395   1_556 S
C595   F600    1.358   .     S
C596   O624    1.398   .     S
C597   H601    1.084   .     S
Cu598  O616    1.955   .     S
Cu598  O618    1.928   .     S
Cu598  O622    1.906   .     S
Cu598  N615    2.019   .     S
Cu598  Cu599   2.687   .     S
Cu598  O620    1.951   .     S
Cu599  O621    1.955   .     S
Cu599  N614    2.019   .     S
Cu599  O617    1.951   .     S
Cu599  O623    1.928   .     S
Cu599  O619    1.906   .     S
H606   C725    1.088   .     S
H607   N710    1.029   1_455 S
H608   N663    1.029   .     S
H613   C635    1.083   .     S
N614   H655    1.029   .     S
N614   N663    1.283   .     S
N615   N710    1.283   1_455 S
N615   H704    1.029   1_455 S
C625   O665    1.285   .     A
C625   O664    1.291   .     A
C625   C627    1.427   .     S
C626   C628    1.472   .     S
C626   C639    1.419   .     A
C626   C634    1.403   .     A
C627   C773    1.328   .     S
C627   H794    1.088   .     S
C628   O667    1.297   .     A
C628   O666    1.301   .     A
C629   C630    1.427   .     S
C630   O668    1.285   .     A
C630   O669    1.291   .     A
C631   O670    1.295   .     A
C631   C633    1.465   .     S
C631   O671    1.301   .     A
C632   C641    1.397   .     A
C632   C645    1.388   .     A
C632   H658    1.084   .     S
C633   C644    1.422   .     A
C633   C645    1.401   .     A
C634   H659    1.083   .     S
C634   C635    1.390   .     A
C635   C205    1.392   1_556 S
C636   C639    1.419   .     A
C636   C205    1.414   1_556 S
C636   C208    1.422   1_556 S
C637   H660    1.079   .     S
C638   H651    1.111   .     S
C638   H653    1.109   .     S
C638   O672    1.407   .     S
C638   H652    1.109   .     S
C639   C643    1.415   .     A
C640   C644    1.415   .     A
C640   C641    1.418   .     A
C642   H657    1.084   .     S
C642   C643    1.389   .     A
C642   C209    1.395   1_556 S
C643   F648    1.358   .     S
C644   O672    1.398   .     S
C645   H649    1.084   .     S
Cu646  O664    1.955   .     S
Cu646  O666    1.928   .     S
Cu646  O670    1.906   .     S
Cu646  N663    2.019   .     S
Cu646  Cu647   2.687   .     S
Cu646  O668    1.951   .     S
Cu647  O669    1.955   .     S
Cu647  N662    2.019   .     S
Cu647  O665    1.951   .     S
Cu647  O671    1.928   .     S
Cu647  O667    1.906   .     S
H654   C773    1.088   .     S
H656   N711    1.029   .     S
H661   C683    1.083   .     S
N662   H703    1.029   .     S
N662   N711    1.283   .     S
C673   O713    1.285   .     A
C673   O712    1.291   .     A
C673   C675    1.427   .     S
C674   C676    1.472   .     S
C674   C687    1.419   .     A
C674   C682    1.403   .     A
C675   C821    1.328   .     S
C675   H842    1.088   .     S
C676   O715    1.297   .     A
C676   O714    1.301   .     A
C677   C678    1.427   .     S
C678   O716    1.285   .     A
C678   O717    1.291   .     A
C679   O718    1.295   .     A
C679   C681    1.465   .     S
C679   O719    1.301   .     A
C680   C689    1.397   .     A
C680   C693    1.388   .     A
C680   H706    1.084   .     S
C681   C692    1.422   .     A
C681   C693    1.401   .     A
C682   H707    1.083   .     S
C682   C683    1.390   .     A
C683   C253    1.392   1_556 S
C684   C687    1.419   .     A
C684   C253    1.414   1_556 S
C684   C256    1.422   1_556 S
C685   H708    1.079   .     S
C686   H699    1.111   .     S
C686   H701    1.109   .     S
C686   O720    1.407   .     S
C686   H700    1.109   .     S
C687   C691    1.415   .     A
C688   C692    1.415   .     A
C688   C689    1.418   .     A
C690   H705    1.084   .     S
C690   C691    1.389   .     A
C690   C257    1.395   1_556 S
C691   F696    1.358   .     S
C692   O720    1.398   .     S
C693   H697    1.084   .     S
Cu694  O712    1.955   .     S
Cu694  O714    1.928   .     S
Cu694  O718    1.906   .     S
Cu694  N711    2.019   .     S
Cu694  Cu695   2.687   .     S
Cu694  O716    1.951   .     S
Cu695  O717    1.955   .     S
Cu695  N710    2.019   .     S
Cu695  O713    1.951   .     S
Cu695  O719    1.928   .     S
Cu695  O715    1.906   .     S
H702   C821    1.088   .     S
H704   N615    1.029   1_655 S
H709   C587    1.083   1_655 S
N710   H607    1.029   1_655 S
N710   N615    1.283   1_655 S
C721   O761    1.285   .     A
C721   O760    1.291   .     A
C721   C723    1.427   .     S
C722   C724    1.472   .     S
C722   C735    1.419   .     A
C722   C730    1.403   .     A
C723   C437    1.328   1_565 S
C723   H458    1.088   1_565 S
C724   O763    1.297   .     A
C724   O762    1.301   .     A
C725   C726    1.427   .     S
C726   O764    1.285   .     A
C726   O765    1.291   .     A
C727   O766    1.295   .     A
C727   C729    1.465   .     S
C727   O767    1.301   .     A
C728   C737    1.397   .     A
C728   C741    1.388   .     A
C728   H754    1.084   .     S
C729   C740    1.422   .     A
C729   C741    1.401   .     A
C730   H755    1.083   .     S
C730   C731    1.390   .     A
C731   C301    1.392   1_556 S
C731   H853    1.083   1_455 S
C732   C735    1.419   .     A
C732   C301    1.414   1_556 S
C732   C304    1.422   1_556 S
C733   H756    1.079   .     S
C734   H747    1.111   .     S
C734   H749    1.109   .     S
C734   O768    1.407   .     S
C734   H748    1.109   .     S
C735   C739    1.415   .     A
C736   C740    1.415   .     A
C736   C737    1.418   .     A
C738   H753    1.084   .     S
C738   C739    1.389   .     A
C738   C305    1.395   1_556 S
C739   F744    1.358   .     S
C740   O768    1.398   .     S
C741   H745    1.084   .     S
Cu742  O760    1.955   .     S
Cu742  O762    1.928   .     S
Cu742  O766    1.906   .     S
Cu742  N759    2.019   .     S
Cu742  Cu743   2.687   .     S
Cu742  O764    1.951   .     S
Cu743  O765    1.955   .     S
Cu743  N758    2.019   .     S
Cu743  O761    1.951   .     S
Cu743  O767    1.928   .     S
Cu743  O763    1.906   .     S
H750   C437    1.088   1_565 S
H751   N854    1.029   1_455 S
H752   N807    1.029   .     S
H757   C779    1.083   .     S
N758   H799    1.029   .     S
N758   N807    1.283   .     S
N759   N854    1.283   1_455 S
N759   H848    1.029   1_455 S
C769   O809    1.285   .     A
C769   O808    1.291   .     A
C769   C771    1.427   .     S
C770   C772    1.472   .     S
C770   C783    1.419   .     A
C770   C778    1.403   .     A
C771   C485    1.328   1_565 S
C771   H506    1.088   1_565 S
C772   O811    1.297   .     A
C772   O810    1.301   .     A
C773   C774    1.427   .     S
C774   O812    1.285   .     A
C774   O813    1.291   .     A
C775   O814    1.295   .     A
C775   C777    1.465   .     S
C775   O815    1.301   .     A
C776   C785    1.397   .     A
C776   C789    1.388   .     A
C776   H802    1.084   .     S
C777   C788    1.422   .     A
C777   C789    1.401   .     A
C778   H803    1.083   .     S
C778   C779    1.390   .     A
C779   C349    1.392   1_556 S
C780   C783    1.419   .     A
C780   C349    1.414   1_556 S
C780   C352    1.422   1_556 S
C781   H804    1.079   .     S
C782   H795    1.111   .     S
C782   H797    1.109   .     S
C782   O816    1.407   .     S
C782   H796    1.109   .     S
C783   C787    1.415   .     A
C784   C788    1.415   .     A
C784   C785    1.418   .     A
C786   H801    1.084   .     S
C786   C787    1.389   .     A
C786   C353    1.395   1_556 S
C787   F792    1.358   .     S
C788   O816    1.398   .     S
C789   H793    1.084   .     S
Cu790  O808    1.955   .     S
Cu790  O810    1.928   .     S
Cu790  O814    1.906   .     S
Cu790  N807    2.019   .     S
Cu790  Cu791   2.687   .     S
Cu790  O812    1.951   .     S
Cu791  O813    1.955   .     S
Cu791  N806    2.019   .     S
Cu791  O809    1.951   .     S
Cu791  O815    1.928   .     S
Cu791  O811    1.906   .     S
H798   C485    1.088   1_565 S
H800   N855    1.029   .     S
H805   C827    1.083   .     S
N806   H847    1.029   .     S
N806   N855    1.283   .     S
C817   O857    1.285   .     A
C817   O856    1.291   .     A
C817   C819    1.427   .     S
C818   C820    1.472   .     S
C818   C831    1.419   .     A
C818   C826    1.403   .     A
C819   C533    1.328   1_565 S
C819   H554    1.088   1_565 S
C820   O859    1.297   .     A
C820   O858    1.301   .     A
C821   C822    1.427   .     S
C822   O860    1.285   .     A
C822   O861    1.291   .     A
C823   O862    1.295   .     A
C823   C825    1.465   .     S
C823   O863    1.301   .     A
C824   C833    1.397   .     A
C824   C837    1.388   .     A
C824   H850    1.084   .     S
C825   C836    1.422   .     A
C825   C837    1.401   .     A
C826   H851    1.083   .     S
C826   C827    1.390   .     A
C827   C397    1.392   1_556 S
C828   C831    1.419   .     A
C828   C397    1.414   1_556 S
C828   C400    1.422   1_556 S
C829   H852    1.079   .     S
C830   H843    1.111   .     S
C830   H845    1.109   .     S
C830   O864    1.407   .     S
C830   H844    1.109   .     S
C831   C835    1.415   .     A
C832   C836    1.415   .     A
C832   C833    1.418   .     A
C834   H849    1.084   .     S
C834   C835    1.389   .     A
C834   C401    1.395   1_556 S
C835   F840    1.358   .     S
C836   O864    1.398   .     S
C837   H841    1.084   .     S
Cu838  O856    1.955   .     S
Cu838  O858    1.928   .     S
Cu838  O862    1.906   .     S
Cu838  N855    2.019   .     S
Cu838  Cu839   2.687   .     S
Cu838  O860    1.951   .     S
Cu839  O861    1.955   .     S
Cu839  N854    2.019   .     S
Cu839  O857    1.951   .     S
Cu839  O863    1.928   .     S
Cu839  O859    1.906   .     S
H846   C533    1.088   1_565 S
H848   N759    1.029   1_655 S
H853   C731    1.083   1_655 S
N854   H751    1.029   1_655 S
N854   N759    1.283   1_655 S
