data_str_m2_o1_o17_pcu_sym.95
_audit_creation_date              2020-01-03
_audit_creation_method            'Materials Studio'
_symmetry_space_group_name_H-M    'P1'
_symmetry_Int_Tables_number       1
_symmetry_cell_setting            triclinic
loop_
_symmetry_equiv_pos_as_xyz
  x,y,z
_cell_length_a                    32.4283
_cell_length_b                    28.9168
_cell_length_c                    30.0900
_cell_angle_alpha                 90.0577
_cell_angle_beta                  92.2819
_cell_angle_gamma                 90.0659
loop_
_atom_site_label
_atom_site_type_symbol
_atom_site_fract_x
_atom_site_fract_y
_atom_site_fract_z
_atom_site_U_iso_or_equiv
_atom_site_adp_type
_atom_site_occupancy
Br1    Br    0.25527   0.16780   0.37657   0.00000  Uiso   1.00
Br2    Br    0.10280   0.27726   0.18087   0.00000  Uiso   1.00
Br3    Br    0.07807   0.16553   0.12343   0.00000  Uiso   1.00
Br4    Br    0.08020   0.14995   0.36780   0.00000  Uiso   1.00
Br5    Br    0.25313   0.18338   0.13219   0.00000  Uiso   1.00
Br6    Br    0.03956   0.19923   0.44914   0.00000  Uiso   1.00
Br7    Br    0.29375   0.13406   0.05086   0.00000  Uiso   1.00
Br8    Br    0.10276   0.05575   0.18097   0.00000  Uiso   1.00
Br9    Br    0.23058   0.27758   0.31903   0.00000  Uiso   1.00
Br10   Br    0.23054   0.05607   0.31913   0.00000  Uiso   1.00
C11    C     0.08748   0.16665   0.24982   0.00000  Uiso   1.00
C12    C     0.04280   0.16665   0.24984   0.00000  Uiso   1.00
C13    C     0.14051   0.02457   0.22175   0.00000  Uiso   1.00
C14    C     0.19282   0.30876   0.27824   0.00000  Uiso   1.00
C15    C     0.19282   0.02471   0.27826   0.00000  Uiso   1.00
C16    C     0.14052   0.30863   0.22174   0.00000  Uiso   1.00
C17    C     0.16654   0.16665   0.16469   0.00000  Uiso   1.00
C18    C     0.16679   0.16669   0.33531   0.00000  Uiso   1.00
C19    C     0.20409   0.16670   0.40790   0.00000  Uiso   1.00
C20    C     0.12924   0.16664   0.09210   0.00000  Uiso   1.00
C21    C     0.16648   0.16678   0.38350   0.00000  Uiso   1.00
C22    C     0.24586   0.16668   0.25018   0.00000  Uiso   1.00
C23    C     0.16685   0.16655   0.11650   0.00000  Uiso   1.00
C24    C     0.12861   0.16597   0.40452   0.00000  Uiso   1.00
C25    C     0.20472   0.16736   0.09548   0.00000  Uiso   1.00
C26    C     0.12810   0.17019   0.45139   0.00000  Uiso   1.00
C27    C     0.20522   0.16314   0.04861   0.00000  Uiso   1.00
C28    C     0.16634   0.16702   0.47643   0.00000  Uiso   1.00
C29    C     0.16699   0.16632   0.02357   0.00000  Uiso   1.00
C30    C     0.20405   0.16455   0.45444   0.00000  Uiso   1.00
C31    C     0.12928   0.16879   0.04556   0.00000  Uiso   1.00
C32    C     0.09138   0.17723   0.47462   0.00000  Uiso   1.00
C33    C     0.09232   0.17482   0.02070   0.00000  Uiso   1.00
C34    C     0.24194   0.15609   0.02538   0.00000  Uiso   1.00
C35    C     0.24100   0.15851   0.47930   0.00000  Uiso   1.00
C36    C     0.02126   0.12464   0.24979   0.00000  Uiso   1.00
C37    C     0.31208   0.20869   0.25021   0.00000  Uiso   1.00
C38    C     0.31197   0.12466   0.24989   0.00000  Uiso   1.00
C39    C     0.02136   0.20868   0.25011   0.00000  Uiso   1.00
C40    C     0.29054   0.16668   0.25016   0.00000  Uiso   1.00
Cu41   Cu    0.16667   0.21355   0.25000   0.00000  Uiso   1.00
Cu42   Cu    0.16667   0.11978   0.25000   0.00000  Uiso   1.00
H43    H     0.06353   0.17994   0.03688   0.00000  Uiso   1.00
H44    H     0.26980   0.15339   0.46312   0.00000  Uiso   1.00
H45    H     0.03721   0.09177   0.24975   0.00000  Uiso   1.00
H46    H     0.29613   0.24157   0.25025   0.00000  Uiso   1.00
H47    H     0.29594   0.09178   0.24969   0.00000  Uiso   1.00
H48    H     0.03739   0.24155   0.25031   0.00000  Uiso   1.00
N49    N     0.16667   0.28402   0.25000   0.00000  Uiso   1.00
N50    N     0.16667   0.04931   0.25000   0.00000  Uiso   1.00
O51    O     0.10655   0.20625   0.24999   0.00000  Uiso   1.00
O52    O     0.22679   0.12709   0.25000   0.00000  Uiso   1.00
O53    O     0.22679   0.20625   0.25000   0.00000  Uiso   1.00
O54    O     0.10655   0.12709   0.24999   0.00000  Uiso   1.00
O55    O     0.16666   0.20627   0.18513   0.00000  Uiso   1.00
O56    O     0.16668   0.12707   0.31487   0.00000  Uiso   1.00
O57    O     0.16668   0.20627   0.31487   0.00000  Uiso   1.00
O58    O     0.16666   0.12707   0.18513   0.00000  Uiso   1.00
Br59   Br    0.58860   0.16780   0.37657   0.00000  Uiso   1.00
Br60   Br    0.43613   0.27726   0.18087   0.00000  Uiso   1.00
Br61   Br    0.41140   0.16553   0.12343   0.00000  Uiso   1.00
Br62   Br    0.41353   0.14995   0.36780   0.00000  Uiso   1.00
Br63   Br    0.58647   0.18338   0.13219   0.00000  Uiso   1.00
Br64   Br    0.37290   0.19923   0.44914   0.00000  Uiso   1.00
Br65   Br    0.62708   0.13406   0.05086   0.00000  Uiso   1.00
Br66   Br    0.43609   0.05575   0.18097   0.00000  Uiso   1.00
Br67   Br    0.56391   0.27758   0.31903   0.00000  Uiso   1.00
Br68   Br    0.56387   0.05607   0.31913   0.00000  Uiso   1.00
C69    C     0.42081   0.16665   0.24982   0.00000  Uiso   1.00
C70    C     0.37613   0.16665   0.24984   0.00000  Uiso   1.00
C71    C     0.47385   0.02457   0.22175   0.00000  Uiso   1.00
C72    C     0.52615   0.30876   0.27824   0.00000  Uiso   1.00
C73    C     0.52615   0.02471   0.27826   0.00000  Uiso   1.00
C74    C     0.47385   0.30863   0.22174   0.00000  Uiso   1.00
C75    C     0.49987   0.16665   0.16469   0.00000  Uiso   1.00
C76    C     0.50013   0.16669   0.33531   0.00000  Uiso   1.00
C77    C     0.53743   0.16670   0.40790   0.00000  Uiso   1.00
C78    C     0.46257   0.16664   0.09210   0.00000  Uiso   1.00
C79    C     0.49982   0.16678   0.38350   0.00000  Uiso   1.00
C80    C     0.57919   0.16668   0.25018   0.00000  Uiso   1.00
C81    C     0.50018   0.16655   0.11650   0.00000  Uiso   1.00
C82    C     0.46194   0.16597   0.40452   0.00000  Uiso   1.00
C83    C     0.53806   0.16736   0.09548   0.00000  Uiso   1.00
C84    C     0.46144   0.17019   0.45139   0.00000  Uiso   1.00
C85    C     0.53856   0.16314   0.04861   0.00000  Uiso   1.00
C86    C     0.49967   0.16702   0.47643   0.00000  Uiso   1.00
C87    C     0.50033   0.16632   0.02357   0.00000  Uiso   1.00
C88    C     0.53738   0.16455   0.45444   0.00000  Uiso   1.00
C89    C     0.46261   0.16879   0.04556   0.00000  Uiso   1.00
C90    C     0.42472   0.17723   0.47462   0.00000  Uiso   1.00
C91    C     0.42566   0.17482   0.02070   0.00000  Uiso   1.00
C92    C     0.57528   0.15609   0.02538   0.00000  Uiso   1.00
C93    C     0.57434   0.15851   0.47930   0.00000  Uiso   1.00
C94    C     0.35459   0.12464   0.24979   0.00000  Uiso   1.00
C95    C     0.64541   0.20869   0.25021   0.00000  Uiso   1.00
C96    C     0.64531   0.12466   0.24989   0.00000  Uiso   1.00
C97    C     0.35469   0.20868   0.25011   0.00000  Uiso   1.00
C98    C     0.62387   0.16668   0.25016   0.00000  Uiso   1.00
Cu99   Cu    0.50000   0.21355   0.25000   0.00000  Uiso   1.00
Cu100  Cu    0.50000   0.11978   0.25000   0.00000  Uiso   1.00
H101   H     0.39686   0.17994   0.03688   0.00000  Uiso   1.00
H102   H     0.60313   0.15339   0.46312   0.00000  Uiso   1.00
H103   H     0.37054   0.09177   0.24975   0.00000  Uiso   1.00
H104   H     0.62946   0.24157   0.25025   0.00000  Uiso   1.00
H105   H     0.62928   0.09178   0.24969   0.00000  Uiso   1.00
H106   H     0.37072   0.24155   0.25031   0.00000  Uiso   1.00
N107   N     0.50000   0.28402   0.25000   0.00000  Uiso   1.00
N108   N     0.50000   0.04931   0.25000   0.00000  Uiso   1.00
O109   O     0.43988   0.20625   0.24999   0.00000  Uiso   1.00
O110   O     0.56012   0.12709   0.25000   0.00000  Uiso   1.00
O111   O     0.56012   0.20625   0.25000   0.00000  Uiso   1.00
O112   O     0.43988   0.12709   0.24999   0.00000  Uiso   1.00
O113   O     0.49999   0.20627   0.18513   0.00000  Uiso   1.00
O114   O     0.50001   0.12707   0.31487   0.00000  Uiso   1.00
O115   O     0.50001   0.20627   0.31487   0.00000  Uiso   1.00
O116   O     0.49999   0.12707   0.18513   0.00000  Uiso   1.00
Br117  Br    0.92193   0.16780   0.37657   0.00000  Uiso   1.00
Br118  Br    0.76946   0.27726   0.18087   0.00000  Uiso   1.00
Br119  Br    0.74473   0.16553   0.12343   0.00000  Uiso   1.00
Br120  Br    0.74687   0.14995   0.36780   0.00000  Uiso   1.00
Br121  Br    0.91980   0.18338   0.13219   0.00000  Uiso   1.00
Br122  Br    0.70623   0.19923   0.44914   0.00000  Uiso   1.00
Br123  Br    0.96042   0.13406   0.05086   0.00000  Uiso   1.00
Br124  Br    0.76942   0.05575   0.18097   0.00000  Uiso   1.00
Br125  Br    0.89724   0.27758   0.31903   0.00000  Uiso   1.00
Br126  Br    0.89720   0.05607   0.31913   0.00000  Uiso   1.00
C127   C     0.75414   0.16665   0.24982   0.00000  Uiso   1.00
C128   C     0.70946   0.16665   0.24984   0.00000  Uiso   1.00
C129   C     0.80718   0.02457   0.22175   0.00000  Uiso   1.00
C130   C     0.85949   0.30876   0.27824   0.00000  Uiso   1.00
C131   C     0.85948   0.02471   0.27826   0.00000  Uiso   1.00
C132   C     0.80718   0.30863   0.22174   0.00000  Uiso   1.00
C133   C     0.83321   0.16665   0.16469   0.00000  Uiso   1.00
C134   C     0.83346   0.16669   0.33531   0.00000  Uiso   1.00
C135   C     0.87076   0.16670   0.40790   0.00000  Uiso   1.00
C136   C     0.79590   0.16664   0.09210   0.00000  Uiso   1.00
C137   C     0.83315   0.16678   0.38350   0.00000  Uiso   1.00
C138   C     0.91252   0.16668   0.25018   0.00000  Uiso   1.00
C139   C     0.83351   0.16655   0.11650   0.00000  Uiso   1.00
C140   C     0.79527   0.16597   0.40452   0.00000  Uiso   1.00
C141   C     0.87139   0.16736   0.09548   0.00000  Uiso   1.00
C142   C     0.79477   0.17019   0.45139   0.00000  Uiso   1.00
C143   C     0.87189   0.16314   0.04861   0.00000  Uiso   1.00
C144   C     0.83300   0.16702   0.47643   0.00000  Uiso   1.00
C145   C     0.83366   0.16632   0.02357   0.00000  Uiso   1.00
C146   C     0.87072   0.16455   0.45444   0.00000  Uiso   1.00
C147   C     0.79595   0.16879   0.04556   0.00000  Uiso   1.00
C148   C     0.75805   0.17723   0.47462   0.00000  Uiso   1.00
C149   C     0.75899   0.17482   0.02070   0.00000  Uiso   1.00
C150   C     0.90861   0.15609   0.02538   0.00000  Uiso   1.00
C151   C     0.90767   0.15851   0.47930   0.00000  Uiso   1.00
C152   C     0.68792   0.12464   0.24979   0.00000  Uiso   1.00
C153   C     0.97874   0.20869   0.25021   0.00000  Uiso   1.00
C154   C     0.97864   0.12466   0.24989   0.00000  Uiso   1.00
C155   C     0.68803   0.20868   0.25011   0.00000  Uiso   1.00
C156   C     0.95720   0.16668   0.25016   0.00000  Uiso   1.00
Cu157  Cu    0.83333   0.21355   0.25000   0.00000  Uiso   1.00
Cu158  Cu    0.83333   0.11978   0.25000   0.00000  Uiso   1.00
H159   H     0.73020   0.17994   0.03688   0.00000  Uiso   1.00
H160   H     0.93646   0.15339   0.46312   0.00000  Uiso   1.00
H161   H     0.70387   0.09177   0.24975   0.00000  Uiso   1.00
H162   H     0.96279   0.24157   0.25025   0.00000  Uiso   1.00
H163   H     0.96261   0.09178   0.24969   0.00000  Uiso   1.00
H164   H     0.70406   0.24155   0.25031   0.00000  Uiso   1.00
N165   N     0.83333   0.28402   0.25000   0.00000  Uiso   1.00
N166   N     0.83333   0.04931   0.25000   0.00000  Uiso   1.00
O167   O     0.77321   0.20625   0.24999   0.00000  Uiso   1.00
O168   O     0.89345   0.12709   0.25000   0.00000  Uiso   1.00
O169   O     0.89345   0.20625   0.25000   0.00000  Uiso   1.00
O170   O     0.77321   0.12709   0.24999   0.00000  Uiso   1.00
O171   O     0.83332   0.20627   0.18513   0.00000  Uiso   1.00
O172   O     0.83334   0.12707   0.31487   0.00000  Uiso   1.00
O173   O     0.83334   0.20627   0.31487   0.00000  Uiso   1.00
O174   O     0.83332   0.12707   0.18513   0.00000  Uiso   1.00
Br175  Br    0.25527   0.50114   0.37657   0.00000  Uiso   1.00
Br176  Br    0.10280   0.61060   0.18087   0.00000  Uiso   1.00
Br177  Br    0.07807   0.49886   0.12343   0.00000  Uiso   1.00
Br178  Br    0.08020   0.48328   0.36780   0.00000  Uiso   1.00
Br179  Br    0.25313   0.51671   0.13219   0.00000  Uiso   1.00
Br180  Br    0.03956   0.53256   0.44914   0.00000  Uiso   1.00
Br181  Br    0.29375   0.46739   0.05086   0.00000  Uiso   1.00
Br182  Br    0.10276   0.38908   0.18097   0.00000  Uiso   1.00
Br183  Br    0.23058   0.61092   0.31903   0.00000  Uiso   1.00
Br184  Br    0.23054   0.38940   0.31913   0.00000  Uiso   1.00
C185   C     0.08748   0.49999   0.24982   0.00000  Uiso   1.00
C186   C     0.04280   0.49999   0.24984   0.00000  Uiso   1.00
C187   C     0.14051   0.35791   0.22175   0.00000  Uiso   1.00
C188   C     0.19282   0.64209   0.27824   0.00000  Uiso   1.00
C189   C     0.19282   0.35804   0.27826   0.00000  Uiso   1.00
C190   C     0.14052   0.64196   0.22174   0.00000  Uiso   1.00
C191   C     0.16654   0.49998   0.16469   0.00000  Uiso   1.00
C192   C     0.16679   0.50002   0.33531   0.00000  Uiso   1.00
C193   C     0.20409   0.50003   0.40790   0.00000  Uiso   1.00
C194   C     0.12924   0.49997   0.09210   0.00000  Uiso   1.00
C195   C     0.16648   0.50012   0.38350   0.00000  Uiso   1.00
C196   C     0.24586   0.50001   0.25018   0.00000  Uiso   1.00
C197   C     0.16685   0.49988   0.11650   0.00000  Uiso   1.00
C198   C     0.12861   0.49930   0.40452   0.00000  Uiso   1.00
C199   C     0.20472   0.50070   0.09548   0.00000  Uiso   1.00
C200   C     0.12810   0.50352   0.45139   0.00000  Uiso   1.00
C201   C     0.20522   0.49648   0.04861   0.00000  Uiso   1.00
C202   C     0.16634   0.50035   0.47643   0.00000  Uiso   1.00
C203   C     0.16699   0.49965   0.02357   0.00000  Uiso   1.00
C204   C     0.20405   0.49788   0.45444   0.00000  Uiso   1.00
C205   C     0.12928   0.50212   0.04556   0.00000  Uiso   1.00
C206   C     0.09138   0.51057   0.47462   0.00000  Uiso   1.00
C207   C     0.09232   0.50815   0.02070   0.00000  Uiso   1.00
C208   C     0.24194   0.48943   0.02538   0.00000  Uiso   1.00
C209   C     0.24100   0.49185   0.47930   0.00000  Uiso   1.00
C210   C     0.02126   0.45798   0.24979   0.00000  Uiso   1.00
C211   C     0.31208   0.54202   0.25021   0.00000  Uiso   1.00
C212   C     0.31197   0.45799   0.24989   0.00000  Uiso   1.00
C213   C     0.02136   0.54201   0.25011   0.00000  Uiso   1.00
C214   C     0.29054   0.50001   0.25016   0.00000  Uiso   1.00
Cu215  Cu    0.16667   0.54689   0.25000   0.00000  Uiso   1.00
Cu216  Cu    0.16667   0.45311   0.25000   0.00000  Uiso   1.00
H217   H     0.06353   0.51328   0.03688   0.00000  Uiso   1.00
H218   H     0.26980   0.48672   0.46312   0.00000  Uiso   1.00
H219   H     0.03721   0.42510   0.24975   0.00000  Uiso   1.00
H220   H     0.29613   0.57490   0.25025   0.00000  Uiso   1.00
H221   H     0.29594   0.42512   0.24969   0.00000  Uiso   1.00
H222   H     0.03739   0.57488   0.25031   0.00000  Uiso   1.00
N223   N     0.16667   0.61736   0.25000   0.00000  Uiso   1.00
N224   N     0.16667   0.38264   0.25000   0.00000  Uiso   1.00
O225   O     0.10655   0.53958   0.24999   0.00000  Uiso   1.00
O226   O     0.22679   0.46042   0.25000   0.00000  Uiso   1.00
O227   O     0.22679   0.53958   0.25000   0.00000  Uiso   1.00
O228   O     0.10655   0.46042   0.24999   0.00000  Uiso   1.00
O229   O     0.16666   0.53960   0.18513   0.00000  Uiso   1.00
O230   O     0.16668   0.46040   0.31487   0.00000  Uiso   1.00
O231   O     0.16668   0.53960   0.31487   0.00000  Uiso   1.00
O232   O     0.16666   0.46040   0.18513   0.00000  Uiso   1.00
Br233  Br    0.58860   0.50114   0.37657   0.00000  Uiso   1.00
Br234  Br    0.43613   0.61060   0.18087   0.00000  Uiso   1.00
Br235  Br    0.41140   0.49886   0.12343   0.00000  Uiso   1.00
Br236  Br    0.41353   0.48328   0.36780   0.00000  Uiso   1.00
Br237  Br    0.58647   0.51671   0.13219   0.00000  Uiso   1.00
Br238  Br    0.37290   0.53256   0.44914   0.00000  Uiso   1.00
Br239  Br    0.62708   0.46739   0.05086   0.00000  Uiso   1.00
Br240  Br    0.43609   0.38908   0.18097   0.00000  Uiso   1.00
Br241  Br    0.56391   0.61092   0.31903   0.00000  Uiso   1.00
Br242  Br    0.56387   0.38940   0.31913   0.00000  Uiso   1.00
C243   C     0.42081   0.49999   0.24982   0.00000  Uiso   1.00
C244   C     0.37613   0.49999   0.24984   0.00000  Uiso   1.00
C245   C     0.47385   0.35791   0.22175   0.00000  Uiso   1.00
C246   C     0.52615   0.64209   0.27824   0.00000  Uiso   1.00
C247   C     0.52615   0.35804   0.27826   0.00000  Uiso   1.00
C248   C     0.47385   0.64196   0.22174   0.00000  Uiso   1.00
C249   C     0.49987   0.49998   0.16469   0.00000  Uiso   1.00
C250   C     0.50013   0.50002   0.33531   0.00000  Uiso   1.00
C251   C     0.53743   0.50003   0.40790   0.00000  Uiso   1.00
C252   C     0.46257   0.49997   0.09210   0.00000  Uiso   1.00
C253   C     0.49982   0.50012   0.38350   0.00000  Uiso   1.00
C254   C     0.57919   0.50001   0.25018   0.00000  Uiso   1.00
C255   C     0.50018   0.49988   0.11650   0.00000  Uiso   1.00
C256   C     0.46194   0.49930   0.40452   0.00000  Uiso   1.00
C257   C     0.53806   0.50070   0.09548   0.00000  Uiso   1.00
C258   C     0.46144   0.50352   0.45139   0.00000  Uiso   1.00
C259   C     0.53856   0.49648   0.04861   0.00000  Uiso   1.00
C260   C     0.49967   0.50035   0.47643   0.00000  Uiso   1.00
C261   C     0.50033   0.49965   0.02357   0.00000  Uiso   1.00
C262   C     0.53738   0.49788   0.45444   0.00000  Uiso   1.00
C263   C     0.46261   0.50212   0.04556   0.00000  Uiso   1.00
C264   C     0.42472   0.51057   0.47462   0.00000  Uiso   1.00
C265   C     0.42566   0.50815   0.02070   0.00000  Uiso   1.00
C266   C     0.57528   0.48943   0.02538   0.00000  Uiso   1.00
C267   C     0.57434   0.49185   0.47930   0.00000  Uiso   1.00
C268   C     0.35459   0.45798   0.24979   0.00000  Uiso   1.00
C269   C     0.64541   0.54202   0.25021   0.00000  Uiso   1.00
C270   C     0.64531   0.45799   0.24989   0.00000  Uiso   1.00
C271   C     0.35469   0.54201   0.25011   0.00000  Uiso   1.00
C272   C     0.62387   0.50001   0.25016   0.00000  Uiso   1.00
Cu273  Cu    0.50000   0.54689   0.25000   0.00000  Uiso   1.00
Cu274  Cu    0.50000   0.45311   0.25000   0.00000  Uiso   1.00
H275   H     0.39686   0.51328   0.03688   0.00000  Uiso   1.00
H276   H     0.60313   0.48672   0.46312   0.00000  Uiso   1.00
H277   H     0.37054   0.42510   0.24975   0.00000  Uiso   1.00
H278   H     0.62946   0.57490   0.25025   0.00000  Uiso   1.00
H279   H     0.62928   0.42512   0.24969   0.00000  Uiso   1.00
H280   H     0.37072   0.57488   0.25031   0.00000  Uiso   1.00
N281   N     0.50000   0.61736   0.25000   0.00000  Uiso   1.00
N282   N     0.50000   0.38264   0.25000   0.00000  Uiso   1.00
O283   O     0.43988   0.53958   0.24999   0.00000  Uiso   1.00
O284   O     0.56012   0.46042   0.25000   0.00000  Uiso   1.00
O285   O     0.56012   0.53958   0.25000   0.00000  Uiso   1.00
O286   O     0.43988   0.46042   0.24999   0.00000  Uiso   1.00
O287   O     0.49999   0.53960   0.18513   0.00000  Uiso   1.00
O288   O     0.50001   0.46040   0.31487   0.00000  Uiso   1.00
O289   O     0.50001   0.53960   0.31487   0.00000  Uiso   1.00
O290   O     0.49999   0.46040   0.18513   0.00000  Uiso   1.00
Br291  Br    0.92193   0.50114   0.37657   0.00000  Uiso   1.00
Br292  Br    0.76946   0.61060   0.18087   0.00000  Uiso   1.00
Br293  Br    0.74473   0.49886   0.12343   0.00000  Uiso   1.00
Br294  Br    0.74687   0.48328   0.36780   0.00000  Uiso   1.00
Br295  Br    0.91980   0.51671   0.13219   0.00000  Uiso   1.00
Br296  Br    0.70623   0.53256   0.44914   0.00000  Uiso   1.00
Br297  Br    0.96042   0.46739   0.05086   0.00000  Uiso   1.00
Br298  Br    0.76942   0.38908   0.18097   0.00000  Uiso   1.00
Br299  Br    0.89724   0.61092   0.31903   0.00000  Uiso   1.00
Br300  Br    0.89720   0.38940   0.31913   0.00000  Uiso   1.00
C301   C     0.75414   0.49999   0.24982   0.00000  Uiso   1.00
C302   C     0.70946   0.49999   0.24984   0.00000  Uiso   1.00
C303   C     0.80718   0.35791   0.22175   0.00000  Uiso   1.00
C304   C     0.85949   0.64209   0.27824   0.00000  Uiso   1.00
C305   C     0.85948   0.35804   0.27826   0.00000  Uiso   1.00
C306   C     0.80718   0.64196   0.22174   0.00000  Uiso   1.00
C307   C     0.83321   0.49998   0.16469   0.00000  Uiso   1.00
C308   C     0.83346   0.50002   0.33531   0.00000  Uiso   1.00
C309   C     0.87076   0.50003   0.40790   0.00000  Uiso   1.00
C310   C     0.79590   0.49997   0.09210   0.00000  Uiso   1.00
C311   C     0.83315   0.50012   0.38350   0.00000  Uiso   1.00
C312   C     0.91252   0.50001   0.25018   0.00000  Uiso   1.00
C313   C     0.83351   0.49988   0.11650   0.00000  Uiso   1.00
C314   C     0.79527   0.49930   0.40452   0.00000  Uiso   1.00
C315   C     0.87139   0.50070   0.09548   0.00000  Uiso   1.00
C316   C     0.79477   0.50352   0.45139   0.00000  Uiso   1.00
C317   C     0.87189   0.49648   0.04861   0.00000  Uiso   1.00
C318   C     0.83300   0.50035   0.47643   0.00000  Uiso   1.00
C319   C     0.83366   0.49965   0.02357   0.00000  Uiso   1.00
C320   C     0.87072   0.49788   0.45444   0.00000  Uiso   1.00
C321   C     0.79595   0.50212   0.04556   0.00000  Uiso   1.00
C322   C     0.75805   0.51057   0.47462   0.00000  Uiso   1.00
C323   C     0.75899   0.50815   0.02070   0.00000  Uiso   1.00
C324   C     0.90861   0.48943   0.02538   0.00000  Uiso   1.00
C325   C     0.90767   0.49185   0.47930   0.00000  Uiso   1.00
C326   C     0.68792   0.45798   0.24979   0.00000  Uiso   1.00
C327   C     0.97874   0.54202   0.25021   0.00000  Uiso   1.00
C328   C     0.97864   0.45799   0.24989   0.00000  Uiso   1.00
C329   C     0.68803   0.54201   0.25011   0.00000  Uiso   1.00
C330   C     0.95720   0.50001   0.25016   0.00000  Uiso   1.00
Cu331  Cu    0.83333   0.54689   0.25000   0.00000  Uiso   1.00
Cu332  Cu    0.83333   0.45311   0.25000   0.00000  Uiso   1.00
H333   H     0.73020   0.51328   0.03688   0.00000  Uiso   1.00
H334   H     0.93646   0.48672   0.46312   0.00000  Uiso   1.00
H335   H     0.70387   0.42510   0.24975   0.00000  Uiso   1.00
H336   H     0.96279   0.57490   0.25025   0.00000  Uiso   1.00
H337   H     0.96261   0.42512   0.24969   0.00000  Uiso   1.00
H338   H     0.70406   0.57488   0.25031   0.00000  Uiso   1.00
N339   N     0.83333   0.61736   0.25000   0.00000  Uiso   1.00
N340   N     0.83333   0.38264   0.25000   0.00000  Uiso   1.00
O341   O     0.77321   0.53958   0.24999   0.00000  Uiso   1.00
O342   O     0.89345   0.46042   0.25000   0.00000  Uiso   1.00
O343   O     0.89345   0.53958   0.25000   0.00000  Uiso   1.00
O344   O     0.77321   0.46042   0.24999   0.00000  Uiso   1.00
O345   O     0.83332   0.53960   0.18513   0.00000  Uiso   1.00
O346   O     0.83334   0.46040   0.31487   0.00000  Uiso   1.00
O347   O     0.83334   0.53960   0.31487   0.00000  Uiso   1.00
O348   O     0.83332   0.46040   0.18513   0.00000  Uiso   1.00
Br349  Br    0.25527   0.83447   0.37657   0.00000  Uiso   1.00
Br350  Br    0.10280   0.94393   0.18087   0.00000  Uiso   1.00
Br351  Br    0.07807   0.83220   0.12343   0.00000  Uiso   1.00
Br352  Br    0.08020   0.81662   0.36780   0.00000  Uiso   1.00
Br353  Br    0.25313   0.85004   0.13219   0.00000  Uiso   1.00
Br354  Br    0.03956   0.86590   0.44914   0.00000  Uiso   1.00
Br355  Br    0.29375   0.80073   0.05086   0.00000  Uiso   1.00
Br356  Br    0.10276   0.72242   0.18097   0.00000  Uiso   1.00
Br357  Br    0.23058   0.94425   0.31903   0.00000  Uiso   1.00
Br358  Br    0.23054   0.72274   0.31913   0.00000  Uiso   1.00
C359   C     0.08748   0.83332   0.24982   0.00000  Uiso   1.00
C360   C     0.04280   0.83332   0.24984   0.00000  Uiso   1.00
C361   C     0.14051   0.69124   0.22175   0.00000  Uiso   1.00
C362   C     0.19282   0.97543   0.27824   0.00000  Uiso   1.00
C363   C     0.19282   0.69137   0.27826   0.00000  Uiso   1.00
C364   C     0.14052   0.97529   0.22174   0.00000  Uiso   1.00
C365   C     0.16654   0.83331   0.16469   0.00000  Uiso   1.00
C366   C     0.16679   0.83335   0.33531   0.00000  Uiso   1.00
C367   C     0.20409   0.83336   0.40790   0.00000  Uiso   1.00
C368   C     0.12924   0.83331   0.09210   0.00000  Uiso   1.00
C369   C     0.16648   0.83345   0.38350   0.00000  Uiso   1.00
C370   C     0.24586   0.83335   0.25018   0.00000  Uiso   1.00
C371   C     0.16685   0.83322   0.11650   0.00000  Uiso   1.00
C372   C     0.12861   0.83263   0.40452   0.00000  Uiso   1.00
C373   C     0.20472   0.83403   0.09548   0.00000  Uiso   1.00
C374   C     0.12810   0.83686   0.45139   0.00000  Uiso   1.00
C375   C     0.20522   0.82981   0.04861   0.00000  Uiso   1.00
C376   C     0.16634   0.83368   0.47643   0.00000  Uiso   1.00
C377   C     0.16699   0.83298   0.02357   0.00000  Uiso   1.00
C378   C     0.20405   0.83121   0.45444   0.00000  Uiso   1.00
C379   C     0.12928   0.83545   0.04556   0.00000  Uiso   1.00
C380   C     0.09138   0.84390   0.47462   0.00000  Uiso   1.00
C381   C     0.09232   0.84149   0.02070   0.00000  Uiso   1.00
C382   C     0.24194   0.82276   0.02538   0.00000  Uiso   1.00
C383   C     0.24100   0.82518   0.47930   0.00000  Uiso   1.00
C384   C     0.02126   0.79131   0.24979   0.00000  Uiso   1.00
C385   C     0.31208   0.87536   0.25021   0.00000  Uiso   1.00
C386   C     0.31197   0.79132   0.24989   0.00000  Uiso   1.00
C387   C     0.02136   0.87534   0.25011   0.00000  Uiso   1.00
C388   C     0.29054   0.83335   0.25016   0.00000  Uiso   1.00
Cu389  Cu    0.16667   0.88022   0.25000   0.00000  Uiso   1.00
Cu390  Cu    0.16667   0.78645   0.25000   0.00000  Uiso   1.00
H391   H     0.06353   0.84661   0.03688   0.00000  Uiso   1.00
H392   H     0.26980   0.82005   0.46312   0.00000  Uiso   1.00
H393   H     0.03721   0.75843   0.24975   0.00000  Uiso   1.00
H394   H     0.29613   0.90823   0.25025   0.00000  Uiso   1.00
H395   H     0.29594   0.75845   0.24969   0.00000  Uiso   1.00
H396   H     0.03739   0.90822   0.25031   0.00000  Uiso   1.00
N397   N     0.16667   0.95069   0.25000   0.00000  Uiso   1.00
N398   N     0.16667   0.71598   0.25000   0.00000  Uiso   1.00
O399   O     0.10655   0.87291   0.24999   0.00000  Uiso   1.00
O400   O     0.22679   0.79375   0.25000   0.00000  Uiso   1.00
O401   O     0.22679   0.87291   0.25000   0.00000  Uiso   1.00
O402   O     0.10655   0.79375   0.24999   0.00000  Uiso   1.00
O403   O     0.16666   0.87293   0.18513   0.00000  Uiso   1.00
O404   O     0.16668   0.79373   0.31487   0.00000  Uiso   1.00
O405   O     0.16668   0.87293   0.31487   0.00000  Uiso   1.00
O406   O     0.16666   0.79373   0.18513   0.00000  Uiso   1.00
Br407  Br    0.58860   0.83447   0.37657   0.00000  Uiso   1.00
Br408  Br    0.43613   0.94393   0.18087   0.00000  Uiso   1.00
Br409  Br    0.41140   0.83220   0.12343   0.00000  Uiso   1.00
Br410  Br    0.41353   0.81662   0.36780   0.00000  Uiso   1.00
Br411  Br    0.58647   0.85004   0.13219   0.00000  Uiso   1.00
Br412  Br    0.37290   0.86590   0.44914   0.00000  Uiso   1.00
Br413  Br    0.62708   0.80073   0.05086   0.00000  Uiso   1.00
Br414  Br    0.43609   0.72242   0.18097   0.00000  Uiso   1.00
Br415  Br    0.56391   0.94425   0.31903   0.00000  Uiso   1.00
Br416  Br    0.56387   0.72274   0.31913   0.00000  Uiso   1.00
C417   C     0.42081   0.83332   0.24982   0.00000  Uiso   1.00
C418   C     0.37613   0.83332   0.24984   0.00000  Uiso   1.00
C419   C     0.47385   0.69124   0.22175   0.00000  Uiso   1.00
C420   C     0.52615   0.97543   0.27824   0.00000  Uiso   1.00
C421   C     0.52615   0.69137   0.27826   0.00000  Uiso   1.00
C422   C     0.47385   0.97529   0.22174   0.00000  Uiso   1.00
C423   C     0.49987   0.83331   0.16469   0.00000  Uiso   1.00
C424   C     0.50013   0.83335   0.33531   0.00000  Uiso   1.00
C425   C     0.53743   0.83336   0.40790   0.00000  Uiso   1.00
C426   C     0.46257   0.83331   0.09210   0.00000  Uiso   1.00
C427   C     0.49982   0.83345   0.38350   0.00000  Uiso   1.00
C428   C     0.57919   0.83335   0.25018   0.00000  Uiso   1.00
C429   C     0.50018   0.83322   0.11650   0.00000  Uiso   1.00
C430   C     0.46194   0.83263   0.40452   0.00000  Uiso   1.00
C431   C     0.53806   0.83403   0.09548   0.00000  Uiso   1.00
C432   C     0.46144   0.83686   0.45139   0.00000  Uiso   1.00
C433   C     0.53856   0.82981   0.04861   0.00000  Uiso   1.00
C434   C     0.49967   0.83368   0.47643   0.00000  Uiso   1.00
C435   C     0.50033   0.83298   0.02357   0.00000  Uiso   1.00
C436   C     0.53738   0.83121   0.45444   0.00000  Uiso   1.00
C437   C     0.46261   0.83545   0.04556   0.00000  Uiso   1.00
C438   C     0.42472   0.84390   0.47462   0.00000  Uiso   1.00
C439   C     0.42566   0.84149   0.02070   0.00000  Uiso   1.00
C440   C     0.57528   0.82276   0.02538   0.00000  Uiso   1.00
C441   C     0.57434   0.82518   0.47930   0.00000  Uiso   1.00
C442   C     0.35459   0.79131   0.24979   0.00000  Uiso   1.00
C443   C     0.64541   0.87536   0.25021   0.00000  Uiso   1.00
C444   C     0.64531   0.79132   0.24989   0.00000  Uiso   1.00
C445   C     0.35469   0.87534   0.25011   0.00000  Uiso   1.00
C446   C     0.62387   0.83335   0.25016   0.00000  Uiso   1.00
Cu447  Cu    0.50000   0.88022   0.25000   0.00000  Uiso   1.00
Cu448  Cu    0.50000   0.78645   0.25000   0.00000  Uiso   1.00
H449   H     0.39686   0.84661   0.03688   0.00000  Uiso   1.00
H450   H     0.60313   0.82005   0.46312   0.00000  Uiso   1.00
H451   H     0.37054   0.75843   0.24975   0.00000  Uiso   1.00
H452   H     0.62946   0.90823   0.25025   0.00000  Uiso   1.00
H453   H     0.62928   0.75845   0.24969   0.00000  Uiso   1.00
H454   H     0.37072   0.90822   0.25031   0.00000  Uiso   1.00
N455   N     0.50000   0.95069   0.25000   0.00000  Uiso   1.00
N456   N     0.50000   0.71598   0.25000   0.00000  Uiso   1.00
O457   O     0.43988   0.87291   0.24999   0.00000  Uiso   1.00
O458   O     0.56012   0.79375   0.25000   0.00000  Uiso   1.00
O459   O     0.56012   0.87291   0.25000   0.00000  Uiso   1.00
O460   O     0.43988   0.79375   0.24999   0.00000  Uiso   1.00
O461   O     0.49999   0.87293   0.18513   0.00000  Uiso   1.00
O462   O     0.50001   0.79373   0.31487   0.00000  Uiso   1.00
O463   O     0.50001   0.87293   0.31487   0.00000  Uiso   1.00
O464   O     0.49999   0.79373   0.18513   0.00000  Uiso   1.00
Br465  Br    0.92193   0.83447   0.37657   0.00000  Uiso   1.00
Br466  Br    0.76946   0.94393   0.18087   0.00000  Uiso   1.00
Br467  Br    0.74473   0.83220   0.12343   0.00000  Uiso   1.00
Br468  Br    0.74687   0.81662   0.36780   0.00000  Uiso   1.00
Br469  Br    0.91980   0.85004   0.13219   0.00000  Uiso   1.00
Br470  Br    0.70623   0.86590   0.44914   0.00000  Uiso   1.00
Br471  Br    0.96042   0.80073   0.05086   0.00000  Uiso   1.00
Br472  Br    0.76942   0.72242   0.18097   0.00000  Uiso   1.00
Br473  Br    0.89724   0.94425   0.31903   0.00000  Uiso   1.00
Br474  Br    0.89720   0.72274   0.31913   0.00000  Uiso   1.00
C475   C     0.75414   0.83332   0.24982   0.00000  Uiso   1.00
C476   C     0.70946   0.83332   0.24984   0.00000  Uiso   1.00
C477   C     0.80718   0.69124   0.22175   0.00000  Uiso   1.00
C478   C     0.85949   0.97543   0.27824   0.00000  Uiso   1.00
C479   C     0.85948   0.69137   0.27826   0.00000  Uiso   1.00
C480   C     0.80718   0.97529   0.22174   0.00000  Uiso   1.00
C481   C     0.83321   0.83331   0.16469   0.00000  Uiso   1.00
C482   C     0.83346   0.83335   0.33531   0.00000  Uiso   1.00
C483   C     0.87076   0.83336   0.40790   0.00000  Uiso   1.00
C484   C     0.79590   0.83331   0.09210   0.00000  Uiso   1.00
C485   C     0.83315   0.83345   0.38350   0.00000  Uiso   1.00
C486   C     0.91252   0.83335   0.25018   0.00000  Uiso   1.00
C487   C     0.83351   0.83322   0.11650   0.00000  Uiso   1.00
C488   C     0.79527   0.83263   0.40452   0.00000  Uiso   1.00
C489   C     0.87139   0.83403   0.09548   0.00000  Uiso   1.00
C490   C     0.79477   0.83686   0.45139   0.00000  Uiso   1.00
C491   C     0.87189   0.82981   0.04861   0.00000  Uiso   1.00
C492   C     0.83300   0.83368   0.47643   0.00000  Uiso   1.00
C493   C     0.83366   0.83298   0.02357   0.00000  Uiso   1.00
C494   C     0.87072   0.83121   0.45444   0.00000  Uiso   1.00
C495   C     0.79595   0.83545   0.04556   0.00000  Uiso   1.00
C496   C     0.75805   0.84390   0.47462   0.00000  Uiso   1.00
C497   C     0.75899   0.84149   0.02070   0.00000  Uiso   1.00
C498   C     0.90861   0.82276   0.02538   0.00000  Uiso   1.00
C499   C     0.90767   0.82518   0.47930   0.00000  Uiso   1.00
C500   C     0.68792   0.79131   0.24979   0.00000  Uiso   1.00
C501   C     0.97874   0.87536   0.25021   0.00000  Uiso   1.00
C502   C     0.97864   0.79132   0.24989   0.00000  Uiso   1.00
C503   C     0.68803   0.87534   0.25011   0.00000  Uiso   1.00
C504   C     0.95720   0.83335   0.25016   0.00000  Uiso   1.00
Cu505  Cu    0.83333   0.88022   0.25000   0.00000  Uiso   1.00
Cu506  Cu    0.83333   0.78645   0.25000   0.00000  Uiso   1.00
H507   H     0.73020   0.84661   0.03688   0.00000  Uiso   1.00
H508   H     0.93646   0.82005   0.46312   0.00000  Uiso   1.00
H509   H     0.70387   0.75843   0.24975   0.00000  Uiso   1.00
H510   H     0.96279   0.90823   0.25025   0.00000  Uiso   1.00
H511   H     0.96261   0.75845   0.24969   0.00000  Uiso   1.00
H512   H     0.70406   0.90822   0.25031   0.00000  Uiso   1.00
N513   N     0.83333   0.95069   0.25000   0.00000  Uiso   1.00
N514   N     0.83333   0.71598   0.25000   0.00000  Uiso   1.00
O515   O     0.77321   0.87291   0.24999   0.00000  Uiso   1.00
O516   O     0.89345   0.79375   0.25000   0.00000  Uiso   1.00
O517   O     0.89345   0.87291   0.25000   0.00000  Uiso   1.00
O518   O     0.77321   0.79375   0.24999   0.00000  Uiso   1.00
O519   O     0.83332   0.87293   0.18513   0.00000  Uiso   1.00
O520   O     0.83334   0.79373   0.31487   0.00000  Uiso   1.00
O521   O     0.83334   0.87293   0.31487   0.00000  Uiso   1.00
O522   O     0.83332   0.79373   0.18513   0.00000  Uiso   1.00
Br523  Br    0.25527   0.16780   0.87657   0.00000  Uiso   1.00
Br524  Br    0.10280   0.27726   0.68087   0.00000  Uiso   1.00
Br525  Br    0.07807   0.16553   0.62343   0.00000  Uiso   1.00
Br526  Br    0.08020   0.14995   0.86780   0.00000  Uiso   1.00
Br527  Br    0.25313   0.18338   0.63219   0.00000  Uiso   1.00
Br528  Br    0.03956   0.19923   0.94914   0.00000  Uiso   1.00
Br529  Br    0.29375   0.13406   0.55086   0.00000  Uiso   1.00
Br530  Br    0.10276   0.05575   0.68097   0.00000  Uiso   1.00
Br531  Br    0.23058   0.27758   0.81903   0.00000  Uiso   1.00
Br532  Br    0.23054   0.05607   0.81913   0.00000  Uiso   1.00
C533   C     0.08748   0.16665   0.74982   0.00000  Uiso   1.00
C534   C     0.04280   0.16665   0.74984   0.00000  Uiso   1.00
C535   C     0.14051   0.02457   0.72175   0.00000  Uiso   1.00
C536   C     0.19282   0.30876   0.77824   0.00000  Uiso   1.00
C537   C     0.19282   0.02471   0.77826   0.00000  Uiso   1.00
C538   C     0.14052   0.30863   0.72174   0.00000  Uiso   1.00
C539   C     0.16654   0.16665   0.66469   0.00000  Uiso   1.00
C540   C     0.16679   0.16669   0.83531   0.00000  Uiso   1.00
C541   C     0.20409   0.16670   0.90790   0.00000  Uiso   1.00
C542   C     0.12924   0.16664   0.59210   0.00000  Uiso   1.00
C543   C     0.16648   0.16678   0.88350   0.00000  Uiso   1.00
C544   C     0.24586   0.16668   0.75018   0.00000  Uiso   1.00
C545   C     0.16685   0.16655   0.61650   0.00000  Uiso   1.00
C546   C     0.12861   0.16597   0.90452   0.00000  Uiso   1.00
C547   C     0.20472   0.16736   0.59548   0.00000  Uiso   1.00
C548   C     0.12810   0.17019   0.95139   0.00000  Uiso   1.00
C549   C     0.20522   0.16314   0.54861   0.00000  Uiso   1.00
C550   C     0.16634   0.16702   0.97643   0.00000  Uiso   1.00
C551   C     0.16699   0.16632   0.52357   0.00000  Uiso   1.00
C552   C     0.20405   0.16455   0.95444   0.00000  Uiso   1.00
C553   C     0.12928   0.16879   0.54556   0.00000  Uiso   1.00
C554   C     0.09138   0.17723   0.97462   0.00000  Uiso   1.00
C555   C     0.09232   0.17482   0.52070   0.00000  Uiso   1.00
C556   C     0.24194   0.15609   0.52538   0.00000  Uiso   1.00
C557   C     0.24100   0.15851   0.97930   0.00000  Uiso   1.00
C558   C     0.02126   0.12464   0.74979   0.00000  Uiso   1.00
C559   C     0.31208   0.20869   0.75021   0.00000  Uiso   1.00
C560   C     0.31197   0.12466   0.74989   0.00000  Uiso   1.00
C561   C     0.02136   0.20868   0.75011   0.00000  Uiso   1.00
C562   C     0.29054   0.16668   0.75016   0.00000  Uiso   1.00
Cu563  Cu    0.16667   0.21355   0.75000   0.00000  Uiso   1.00
Cu564  Cu    0.16667   0.11978   0.75000   0.00000  Uiso   1.00
H565   H     0.06353   0.17994   0.53688   0.00000  Uiso   1.00
H566   H     0.26980   0.15339   0.96312   0.00000  Uiso   1.00
H567   H     0.03721   0.09177   0.74975   0.00000  Uiso   1.00
H568   H     0.29613   0.24157   0.75025   0.00000  Uiso   1.00
H569   H     0.29594   0.09178   0.74969   0.00000  Uiso   1.00
H570   H     0.03739   0.24155   0.75031   0.00000  Uiso   1.00
N571   N     0.16667   0.28402   0.75000   0.00000  Uiso   1.00
N572   N     0.16667   0.04931   0.75000   0.00000  Uiso   1.00
O573   O     0.10655   0.20625   0.74999   0.00000  Uiso   1.00
O574   O     0.22679   0.12709   0.75000   0.00000  Uiso   1.00
O575   O     0.22679   0.20625   0.75000   0.00000  Uiso   1.00
O576   O     0.10655   0.12709   0.74999   0.00000  Uiso   1.00
O577   O     0.16666   0.20627   0.68513   0.00000  Uiso   1.00
O578   O     0.16668   0.12707   0.81487   0.00000  Uiso   1.00
O579   O     0.16668   0.20627   0.81487   0.00000  Uiso   1.00
O580   O     0.16666   0.12707   0.68513   0.00000  Uiso   1.00
Br581  Br    0.58860   0.16780   0.87657   0.00000  Uiso   1.00
Br582  Br    0.43613   0.27726   0.68087   0.00000  Uiso   1.00
Br583  Br    0.41140   0.16553   0.62343   0.00000  Uiso   1.00
Br584  Br    0.41353   0.14995   0.86780   0.00000  Uiso   1.00
Br585  Br    0.58647   0.18338   0.63219   0.00000  Uiso   1.00
Br586  Br    0.37290   0.19923   0.94914   0.00000  Uiso   1.00
Br587  Br    0.62708   0.13406   0.55086   0.00000  Uiso   1.00
Br588  Br    0.43609   0.05575   0.68097   0.00000  Uiso   1.00
Br589  Br    0.56391   0.27758   0.81903   0.00000  Uiso   1.00
Br590  Br    0.56387   0.05607   0.81913   0.00000  Uiso   1.00
C591   C     0.42081   0.16665   0.74982   0.00000  Uiso   1.00
C592   C     0.37613   0.16665   0.74984   0.00000  Uiso   1.00
C593   C     0.47385   0.02457   0.72175   0.00000  Uiso   1.00
C594   C     0.52615   0.30876   0.77824   0.00000  Uiso   1.00
C595   C     0.52615   0.02471   0.77826   0.00000  Uiso   1.00
C596   C     0.47385   0.30863   0.72174   0.00000  Uiso   1.00
C597   C     0.49987   0.16665   0.66469   0.00000  Uiso   1.00
C598   C     0.50013   0.16669   0.83531   0.00000  Uiso   1.00
C599   C     0.53743   0.16670   0.90790   0.00000  Uiso   1.00
C600   C     0.46257   0.16664   0.59210   0.00000  Uiso   1.00
C601   C     0.49982   0.16678   0.88350   0.00000  Uiso   1.00
C602   C     0.57919   0.16668   0.75018   0.00000  Uiso   1.00
C603   C     0.50018   0.16655   0.61650   0.00000  Uiso   1.00
C604   C     0.46194   0.16597   0.90452   0.00000  Uiso   1.00
C605   C     0.53806   0.16736   0.59548   0.00000  Uiso   1.00
C606   C     0.46144   0.17019   0.95139   0.00000  Uiso   1.00
C607   C     0.53856   0.16314   0.54861   0.00000  Uiso   1.00
C608   C     0.49967   0.16702   0.97643   0.00000  Uiso   1.00
C609   C     0.50033   0.16632   0.52357   0.00000  Uiso   1.00
C610   C     0.53738   0.16455   0.95444   0.00000  Uiso   1.00
C611   C     0.46261   0.16879   0.54556   0.00000  Uiso   1.00
C612   C     0.42472   0.17723   0.97462   0.00000  Uiso   1.00
C613   C     0.42566   0.17482   0.52070   0.00000  Uiso   1.00
C614   C     0.57528   0.15609   0.52538   0.00000  Uiso   1.00
C615   C     0.57434   0.15851   0.97930   0.00000  Uiso   1.00
C616   C     0.35459   0.12464   0.74979   0.00000  Uiso   1.00
C617   C     0.64541   0.20869   0.75021   0.00000  Uiso   1.00
C618   C     0.64531   0.12466   0.74989   0.00000  Uiso   1.00
C619   C     0.35469   0.20868   0.75011   0.00000  Uiso   1.00
C620   C     0.62387   0.16668   0.75016   0.00000  Uiso   1.00
Cu621  Cu    0.50000   0.21355   0.75000   0.00000  Uiso   1.00
Cu622  Cu    0.50000   0.11978   0.75000   0.00000  Uiso   1.00
H623   H     0.39686   0.17994   0.53688   0.00000  Uiso   1.00
H624   H     0.60313   0.15339   0.96312   0.00000  Uiso   1.00
H625   H     0.37054   0.09177   0.74975   0.00000  Uiso   1.00
H626   H     0.62946   0.24157   0.75025   0.00000  Uiso   1.00
H627   H     0.62928   0.09178   0.74969   0.00000  Uiso   1.00
H628   H     0.37072   0.24155   0.75031   0.00000  Uiso   1.00
N629   N     0.50000   0.28402   0.75000   0.00000  Uiso   1.00
N630   N     0.50000   0.04931   0.75000   0.00000  Uiso   1.00
O631   O     0.43988   0.20625   0.74999   0.00000  Uiso   1.00
O632   O     0.56012   0.12709   0.75000   0.00000  Uiso   1.00
O633   O     0.56012   0.20625   0.75000   0.00000  Uiso   1.00
O634   O     0.43988   0.12709   0.74999   0.00000  Uiso   1.00
O635   O     0.49999   0.20627   0.68513   0.00000  Uiso   1.00
O636   O     0.50001   0.12707   0.81487   0.00000  Uiso   1.00
O637   O     0.50001   0.20627   0.81487   0.00000  Uiso   1.00
O638   O     0.49999   0.12707   0.68513   0.00000  Uiso   1.00
Br639  Br    0.92193   0.16780   0.87657   0.00000  Uiso   1.00
Br640  Br    0.76946   0.27726   0.68087   0.00000  Uiso   1.00
Br641  Br    0.74473   0.16553   0.62343   0.00000  Uiso   1.00
Br642  Br    0.74687   0.14995   0.86780   0.00000  Uiso   1.00
Br643  Br    0.91980   0.18338   0.63219   0.00000  Uiso   1.00
Br644  Br    0.70623   0.19923   0.94914   0.00000  Uiso   1.00
Br645  Br    0.96042   0.13406   0.55086   0.00000  Uiso   1.00
Br646  Br    0.76942   0.05575   0.68097   0.00000  Uiso   1.00
Br647  Br    0.89724   0.27758   0.81903   0.00000  Uiso   1.00
Br648  Br    0.89720   0.05607   0.81913   0.00000  Uiso   1.00
C649   C     0.75414   0.16665   0.74982   0.00000  Uiso   1.00
C650   C     0.70946   0.16665   0.74984   0.00000  Uiso   1.00
C651   C     0.80718   0.02457   0.72175   0.00000  Uiso   1.00
C652   C     0.85949   0.30876   0.77824   0.00000  Uiso   1.00
C653   C     0.85948   0.02471   0.77826   0.00000  Uiso   1.00
C654   C     0.80718   0.30863   0.72174   0.00000  Uiso   1.00
C655   C     0.83321   0.16665   0.66469   0.00000  Uiso   1.00
C656   C     0.83346   0.16669   0.83531   0.00000  Uiso   1.00
C657   C     0.87076   0.16670   0.90790   0.00000  Uiso   1.00
C658   C     0.79590   0.16664   0.59210   0.00000  Uiso   1.00
C659   C     0.83315   0.16678   0.88350   0.00000  Uiso   1.00
C660   C     0.91252   0.16668   0.75018   0.00000  Uiso   1.00
C661   C     0.83351   0.16655   0.61650   0.00000  Uiso   1.00
C662   C     0.79527   0.16597   0.90452   0.00000  Uiso   1.00
C663   C     0.87139   0.16736   0.59548   0.00000  Uiso   1.00
C664   C     0.79477   0.17019   0.95139   0.00000  Uiso   1.00
C665   C     0.87189   0.16314   0.54861   0.00000  Uiso   1.00
C666   C     0.83300   0.16702   0.97643   0.00000  Uiso   1.00
C667   C     0.83366   0.16632   0.52357   0.00000  Uiso   1.00
C668   C     0.87072   0.16455   0.95444   0.00000  Uiso   1.00
C669   C     0.79595   0.16879   0.54556   0.00000  Uiso   1.00
C670   C     0.75805   0.17723   0.97462   0.00000  Uiso   1.00
C671   C     0.75899   0.17482   0.52070   0.00000  Uiso   1.00
C672   C     0.90861   0.15609   0.52538   0.00000  Uiso   1.00
C673   C     0.90767   0.15851   0.97930   0.00000  Uiso   1.00
C674   C     0.68792   0.12464   0.74979   0.00000  Uiso   1.00
C675   C     0.97874   0.20869   0.75021   0.00000  Uiso   1.00
C676   C     0.97864   0.12466   0.74989   0.00000  Uiso   1.00
C677   C     0.68803   0.20868   0.75011   0.00000  Uiso   1.00
C678   C     0.95720   0.16668   0.75016   0.00000  Uiso   1.00
Cu679  Cu    0.83333   0.21355   0.75000   0.00000  Uiso   1.00
Cu680  Cu    0.83333   0.11978   0.75000   0.00000  Uiso   1.00
H681   H     0.73020   0.17994   0.53688   0.00000  Uiso   1.00
H682   H     0.93646   0.15339   0.96312   0.00000  Uiso   1.00
H683   H     0.70387   0.09177   0.74975   0.00000  Uiso   1.00
H684   H     0.96279   0.24157   0.75025   0.00000  Uiso   1.00
H685   H     0.96261   0.09178   0.74969   0.00000  Uiso   1.00
H686   H     0.70406   0.24155   0.75031   0.00000  Uiso   1.00
N687   N     0.83333   0.28402   0.75000   0.00000  Uiso   1.00
N688   N     0.83333   0.04931   0.75000   0.00000  Uiso   1.00
O689   O     0.77321   0.20625   0.74999   0.00000  Uiso   1.00
O690   O     0.89345   0.12709   0.75000   0.00000  Uiso   1.00
O691   O     0.89345   0.20625   0.75000   0.00000  Uiso   1.00
O692   O     0.77321   0.12709   0.74999   0.00000  Uiso   1.00
O693   O     0.83332   0.20627   0.68513   0.00000  Uiso   1.00
O694   O     0.83334   0.12707   0.81487   0.00000  Uiso   1.00
O695   O     0.83334   0.20627   0.81487   0.00000  Uiso   1.00
O696   O     0.83332   0.12707   0.68513   0.00000  Uiso   1.00
Br697  Br    0.25527   0.50114   0.87657   0.00000  Uiso   1.00
Br698  Br    0.10280   0.61060   0.68087   0.00000  Uiso   1.00
Br699  Br    0.07807   0.49886   0.62343   0.00000  Uiso   1.00
Br700  Br    0.08020   0.48328   0.86780   0.00000  Uiso   1.00
Br701  Br    0.25313   0.51671   0.63219   0.00000  Uiso   1.00
Br702  Br    0.03956   0.53256   0.94914   0.00000  Uiso   1.00
Br703  Br    0.29375   0.46739   0.55086   0.00000  Uiso   1.00
Br704  Br    0.10276   0.38908   0.68097   0.00000  Uiso   1.00
Br705  Br    0.23058   0.61092   0.81903   0.00000  Uiso   1.00
Br706  Br    0.23054   0.38940   0.81913   0.00000  Uiso   1.00
C707   C     0.08748   0.49999   0.74982   0.00000  Uiso   1.00
C708   C     0.04280   0.49999   0.74984   0.00000  Uiso   1.00
C709   C     0.14051   0.35791   0.72175   0.00000  Uiso   1.00
C710   C     0.19282   0.64209   0.77824   0.00000  Uiso   1.00
C711   C     0.19282   0.35804   0.77826   0.00000  Uiso   1.00
C712   C     0.14052   0.64196   0.72174   0.00000  Uiso   1.00
C713   C     0.16654   0.49998   0.66469   0.00000  Uiso   1.00
C714   C     0.16679   0.50002   0.83531   0.00000  Uiso   1.00
C715   C     0.20409   0.50003   0.90790   0.00000  Uiso   1.00
C716   C     0.12924   0.49997   0.59210   0.00000  Uiso   1.00
C717   C     0.16648   0.50012   0.88350   0.00000  Uiso   1.00
C718   C     0.24586   0.50001   0.75018   0.00000  Uiso   1.00
C719   C     0.16685   0.49988   0.61650   0.00000  Uiso   1.00
C720   C     0.12861   0.49930   0.90452   0.00000  Uiso   1.00
C721   C     0.20472   0.50070   0.59548   0.00000  Uiso   1.00
C722   C     0.12810   0.50352   0.95139   0.00000  Uiso   1.00
C723   C     0.20522   0.49648   0.54861   0.00000  Uiso   1.00
C724   C     0.16634   0.50035   0.97643   0.00000  Uiso   1.00
C725   C     0.16699   0.49965   0.52357   0.00000  Uiso   1.00
C726   C     0.20405   0.49788   0.95444   0.00000  Uiso   1.00
C727   C     0.12928   0.50212   0.54556   0.00000  Uiso   1.00
C728   C     0.09138   0.51057   0.97462   0.00000  Uiso   1.00
C729   C     0.09232   0.50815   0.52070   0.00000  Uiso   1.00
C730   C     0.24194   0.48943   0.52538   0.00000  Uiso   1.00
C731   C     0.24100   0.49185   0.97930   0.00000  Uiso   1.00
C732   C     0.02126   0.45798   0.74979   0.00000  Uiso   1.00
C733   C     0.31208   0.54202   0.75021   0.00000  Uiso   1.00
C734   C     0.31197   0.45799   0.74989   0.00000  Uiso   1.00
C735   C     0.02136   0.54201   0.75011   0.00000  Uiso   1.00
C736   C     0.29054   0.50001   0.75016   0.00000  Uiso   1.00
Cu737  Cu    0.16667   0.54689   0.75000   0.00000  Uiso   1.00
Cu738  Cu    0.16667   0.45311   0.75000   0.00000  Uiso   1.00
H739   H     0.06353   0.51328   0.53688   0.00000  Uiso   1.00
H740   H     0.26980   0.48672   0.96312   0.00000  Uiso   1.00
H741   H     0.03721   0.42510   0.74975   0.00000  Uiso   1.00
H742   H     0.29613   0.57490   0.75025   0.00000  Uiso   1.00
H743   H     0.29594   0.42512   0.74969   0.00000  Uiso   1.00
H744   H     0.03739   0.57488   0.75031   0.00000  Uiso   1.00
N745   N     0.16667   0.61736   0.75000   0.00000  Uiso   1.00
N746   N     0.16667   0.38264   0.75000   0.00000  Uiso   1.00
O747   O     0.10655   0.53958   0.74999   0.00000  Uiso   1.00
O748   O     0.22679   0.46042   0.75000   0.00000  Uiso   1.00
O749   O     0.22679   0.53958   0.75000   0.00000  Uiso   1.00
O750   O     0.10655   0.46042   0.74999   0.00000  Uiso   1.00
O751   O     0.16666   0.53960   0.68513   0.00000  Uiso   1.00
O752   O     0.16668   0.46040   0.81487   0.00000  Uiso   1.00
O753   O     0.16668   0.53960   0.81487   0.00000  Uiso   1.00
O754   O     0.16666   0.46040   0.68513   0.00000  Uiso   1.00
Br755  Br    0.58860   0.50114   0.87657   0.00000  Uiso   1.00
Br756  Br    0.43613   0.61060   0.68087   0.00000  Uiso   1.00
Br757  Br    0.41140   0.49886   0.62343   0.00000  Uiso   1.00
Br758  Br    0.41353   0.48328   0.86780   0.00000  Uiso   1.00
Br759  Br    0.58647   0.51671   0.63219   0.00000  Uiso   1.00
Br760  Br    0.37290   0.53256   0.94914   0.00000  Uiso   1.00
Br761  Br    0.62708   0.46739   0.55086   0.00000  Uiso   1.00
Br762  Br    0.43609   0.38908   0.68097   0.00000  Uiso   1.00
Br763  Br    0.56391   0.61092   0.81903   0.00000  Uiso   1.00
Br764  Br    0.56387   0.38940   0.81913   0.00000  Uiso   1.00
C765   C     0.42081   0.49999   0.74982   0.00000  Uiso   1.00
C766   C     0.37613   0.49999   0.74984   0.00000  Uiso   1.00
C767   C     0.47385   0.35791   0.72175   0.00000  Uiso   1.00
C768   C     0.52615   0.64209   0.77824   0.00000  Uiso   1.00
C769   C     0.52615   0.35804   0.77826   0.00000  Uiso   1.00
C770   C     0.47385   0.64196   0.72174   0.00000  Uiso   1.00
C771   C     0.49987   0.49998   0.66469   0.00000  Uiso   1.00
C772   C     0.50013   0.50002   0.83531   0.00000  Uiso   1.00
C773   C     0.53743   0.50003   0.90790   0.00000  Uiso   1.00
C774   C     0.46257   0.49997   0.59210   0.00000  Uiso   1.00
C775   C     0.49982   0.50012   0.88350   0.00000  Uiso   1.00
C776   C     0.57919   0.50001   0.75018   0.00000  Uiso   1.00
C777   C     0.50018   0.49988   0.61650   0.00000  Uiso   1.00
C778   C     0.46194   0.49930   0.90452   0.00000  Uiso   1.00
C779   C     0.53806   0.50070   0.59548   0.00000  Uiso   1.00
C780   C     0.46144   0.50352   0.95139   0.00000  Uiso   1.00
C781   C     0.53856   0.49648   0.54861   0.00000  Uiso   1.00
C782   C     0.49967   0.50035   0.97643   0.00000  Uiso   1.00
C783   C     0.50033   0.49965   0.52357   0.00000  Uiso   1.00
C784   C     0.53738   0.49788   0.95444   0.00000  Uiso   1.00
C785   C     0.46261   0.50212   0.54556   0.00000  Uiso   1.00
C786   C     0.42472   0.51057   0.97462   0.00000  Uiso   1.00
C787   C     0.42566   0.50815   0.52070   0.00000  Uiso   1.00
C788   C     0.57528   0.48943   0.52538   0.00000  Uiso   1.00
C789   C     0.57434   0.49185   0.97930   0.00000  Uiso   1.00
C790   C     0.35459   0.45798   0.74979   0.00000  Uiso   1.00
C791   C     0.64541   0.54202   0.75021   0.00000  Uiso   1.00
C792   C     0.64531   0.45799   0.74989   0.00000  Uiso   1.00
C793   C     0.35469   0.54201   0.75011   0.00000  Uiso   1.00
C794   C     0.62387   0.50001   0.75016   0.00000  Uiso   1.00
Cu795  Cu    0.50000   0.54689   0.75000   0.00000  Uiso   1.00
Cu796  Cu    0.50000   0.45311   0.75000   0.00000  Uiso   1.00
H797   H     0.39686   0.51328   0.53688   0.00000  Uiso   1.00
H798   H     0.60313   0.48672   0.96312   0.00000  Uiso   1.00
H799   H     0.37054   0.42510   0.74975   0.00000  Uiso   1.00
H800   H     0.62946   0.57490   0.75025   0.00000  Uiso   1.00
H801   H     0.62928   0.42512   0.74969   0.00000  Uiso   1.00
H802   H     0.37072   0.57488   0.75031   0.00000  Uiso   1.00
N803   N     0.50000   0.61736   0.75000   0.00000  Uiso   1.00
N804   N     0.50000   0.38264   0.75000   0.00000  Uiso   1.00
O805   O     0.43988   0.53958   0.74999   0.00000  Uiso   1.00
O806   O     0.56012   0.46042   0.75000   0.00000  Uiso   1.00
O807   O     0.56012   0.53958   0.75000   0.00000  Uiso   1.00
O808   O     0.43988   0.46042   0.74999   0.00000  Uiso   1.00
O809   O     0.49999   0.53960   0.68513   0.00000  Uiso   1.00
O810   O     0.50001   0.46040   0.81487   0.00000  Uiso   1.00
O811   O     0.50001   0.53960   0.81487   0.00000  Uiso   1.00
O812   O     0.49999   0.46040   0.68513   0.00000  Uiso   1.00
Br813  Br    0.92193   0.50114   0.87657   0.00000  Uiso   1.00
Br814  Br    0.76946   0.61060   0.68087   0.00000  Uiso   1.00
Br815  Br    0.74473   0.49886   0.62343   0.00000  Uiso   1.00
Br816  Br    0.74687   0.48328   0.86780   0.00000  Uiso   1.00
Br817  Br    0.91980   0.51671   0.63219   0.00000  Uiso   1.00
Br818  Br    0.70623   0.53256   0.94914   0.00000  Uiso   1.00
Br819  Br    0.96042   0.46739   0.55086   0.00000  Uiso   1.00
Br820  Br    0.76942   0.38908   0.68097   0.00000  Uiso   1.00
Br821  Br    0.89724   0.61092   0.81903   0.00000  Uiso   1.00
Br822  Br    0.89720   0.38940   0.81913   0.00000  Uiso   1.00
C823   C     0.75414   0.49999   0.74982   0.00000  Uiso   1.00
C824   C     0.70946   0.49999   0.74984   0.00000  Uiso   1.00
C825   C     0.80718   0.35791   0.72175   0.00000  Uiso   1.00
C826   C     0.85949   0.64209   0.77824   0.00000  Uiso   1.00
C827   C     0.85948   0.35804   0.77826   0.00000  Uiso   1.00
C828   C     0.80718   0.64196   0.72174   0.00000  Uiso   1.00
C829   C     0.83321   0.49998   0.66469   0.00000  Uiso   1.00
C830   C     0.83346   0.50002   0.83531   0.00000  Uiso   1.00
C831   C     0.87076   0.50003   0.90790   0.00000  Uiso   1.00
C832   C     0.79590   0.49997   0.59210   0.00000  Uiso   1.00
C833   C     0.83315   0.50012   0.88350   0.00000  Uiso   1.00
C834   C     0.91252   0.50001   0.75018   0.00000  Uiso   1.00
C835   C     0.83351   0.49988   0.61650   0.00000  Uiso   1.00
C836   C     0.79527   0.49930   0.90452   0.00000  Uiso   1.00
C837   C     0.87139   0.50070   0.59548   0.00000  Uiso   1.00
C838   C     0.79477   0.50352   0.95139   0.00000  Uiso   1.00
C839   C     0.87189   0.49648   0.54861   0.00000  Uiso   1.00
C840   C     0.83300   0.50035   0.97643   0.00000  Uiso   1.00
C841   C     0.83366   0.49965   0.52357   0.00000  Uiso   1.00
C842   C     0.87072   0.49788   0.95444   0.00000  Uiso   1.00
C843   C     0.79595   0.50212   0.54556   0.00000  Uiso   1.00
C844   C     0.75805   0.51057   0.97462   0.00000  Uiso   1.00
C845   C     0.75899   0.50815   0.52070   0.00000  Uiso   1.00
C846   C     0.90861   0.48943   0.52538   0.00000  Uiso   1.00
C847   C     0.90767   0.49185   0.97930   0.00000  Uiso   1.00
C848   C     0.68792   0.45798   0.74979   0.00000  Uiso   1.00
C849   C     0.97874   0.54202   0.75021   0.00000  Uiso   1.00
C850   C     0.97864   0.45799   0.74989   0.00000  Uiso   1.00
C851   C     0.68803   0.54201   0.75011   0.00000  Uiso   1.00
C852   C     0.95720   0.50001   0.75016   0.00000  Uiso   1.00
Cu853  Cu    0.83333   0.54689   0.75000   0.00000  Uiso   1.00
Cu854  Cu    0.83333   0.45311   0.75000   0.00000  Uiso   1.00
H855   H     0.73020   0.51328   0.53688   0.00000  Uiso   1.00
H856   H     0.93646   0.48672   0.96312   0.00000  Uiso   1.00
H857   H     0.70387   0.42510   0.74975   0.00000  Uiso   1.00
H858   H     0.96279   0.57490   0.75025   0.00000  Uiso   1.00
H859   H     0.96261   0.42512   0.74969   0.00000  Uiso   1.00
H860   H     0.70406   0.57488   0.75031   0.00000  Uiso   1.00
N861   N     0.83333   0.61736   0.75000   0.00000  Uiso   1.00
N862   N     0.83333   0.38264   0.75000   0.00000  Uiso   1.00
O863   O     0.77321   0.53958   0.74999   0.00000  Uiso   1.00
O864   O     0.89345   0.46042   0.75000   0.00000  Uiso   1.00
O865   O     0.89345   0.53958   0.75000   0.00000  Uiso   1.00
O866   O     0.77321   0.46042   0.74999   0.00000  Uiso   1.00
O867   O     0.83332   0.53960   0.68513   0.00000  Uiso   1.00
O868   O     0.83334   0.46040   0.81487   0.00000  Uiso   1.00
O869   O     0.83334   0.53960   0.81487   0.00000  Uiso   1.00
O870   O     0.83332   0.46040   0.68513   0.00000  Uiso   1.00
Br871  Br    0.25527   0.83447   0.87657   0.00000  Uiso   1.00
Br872  Br    0.10280   0.94393   0.68087   0.00000  Uiso   1.00
Br873  Br    0.07807   0.83220   0.62343   0.00000  Uiso   1.00
Br874  Br    0.08020   0.81662   0.86780   0.00000  Uiso   1.00
Br875  Br    0.25313   0.85004   0.63219   0.00000  Uiso   1.00
Br876  Br    0.03956   0.86590   0.94914   0.00000  Uiso   1.00
Br877  Br    0.29375   0.80073   0.55086   0.00000  Uiso   1.00
Br878  Br    0.10276   0.72242   0.68097   0.00000  Uiso   1.00
Br879  Br    0.23058   0.94425   0.81903   0.00000  Uiso   1.00
Br880  Br    0.23054   0.72274   0.81913   0.00000  Uiso   1.00
C881   C     0.08748   0.83332   0.74982   0.00000  Uiso   1.00
C882   C     0.04280   0.83332   0.74984   0.00000  Uiso   1.00
C883   C     0.14051   0.69124   0.72175   0.00000  Uiso   1.00
C884   C     0.19282   0.97543   0.77824   0.00000  Uiso   1.00
C885   C     0.19282   0.69137   0.77826   0.00000  Uiso   1.00
C886   C     0.14052   0.97529   0.72174   0.00000  Uiso   1.00
C887   C     0.16654   0.83331   0.66469   0.00000  Uiso   1.00
C888   C     0.16679   0.83335   0.83531   0.00000  Uiso   1.00
C889   C     0.20409   0.83336   0.90790   0.00000  Uiso   1.00
C890   C     0.12924   0.83331   0.59210   0.00000  Uiso   1.00
C891   C     0.16648   0.83345   0.88350   0.00000  Uiso   1.00
C892   C     0.24586   0.83335   0.75018   0.00000  Uiso   1.00
C893   C     0.16685   0.83322   0.61650   0.00000  Uiso   1.00
C894   C     0.12861   0.83263   0.90452   0.00000  Uiso   1.00
C895   C     0.20472   0.83403   0.59548   0.00000  Uiso   1.00
C896   C     0.12810   0.83686   0.95139   0.00000  Uiso   1.00
C897   C     0.20522   0.82981   0.54861   0.00000  Uiso   1.00
C898   C     0.16634   0.83368   0.97643   0.00000  Uiso   1.00
C899   C     0.16699   0.83298   0.52357   0.00000  Uiso   1.00
C900   C     0.20405   0.83121   0.95444   0.00000  Uiso   1.00
C901   C     0.12928   0.83545   0.54556   0.00000  Uiso   1.00
C902   C     0.09138   0.84390   0.97462   0.00000  Uiso   1.00
C903   C     0.09232   0.84149   0.52070   0.00000  Uiso   1.00
C904   C     0.24194   0.82276   0.52538   0.00000  Uiso   1.00
C905   C     0.24100   0.82518   0.97930   0.00000  Uiso   1.00
C906   C     0.02126   0.79131   0.74979   0.00000  Uiso   1.00
C907   C     0.31208   0.87536   0.75021   0.00000  Uiso   1.00
C908   C     0.31197   0.79132   0.74989   0.00000  Uiso   1.00
C909   C     0.02136   0.87534   0.75011   0.00000  Uiso   1.00
C910   C     0.29054   0.83335   0.75016   0.00000  Uiso   1.00
Cu911  Cu    0.16667   0.88022   0.75000   0.00000  Uiso   1.00
Cu912  Cu    0.16667   0.78645   0.75000   0.00000  Uiso   1.00
H913   H     0.06353   0.84661   0.53688   0.00000  Uiso   1.00
H914   H     0.26980   0.82005   0.96312   0.00000  Uiso   1.00
H915   H     0.03721   0.75843   0.74975   0.00000  Uiso   1.00
H916   H     0.29613   0.90823   0.75025   0.00000  Uiso   1.00
H917   H     0.29594   0.75845   0.74969   0.00000  Uiso   1.00
H918   H     0.03739   0.90822   0.75031   0.00000  Uiso   1.00
N919   N     0.16667   0.95069   0.75000   0.00000  Uiso   1.00
N920   N     0.16667   0.71598   0.75000   0.00000  Uiso   1.00
O921   O     0.10655   0.87291   0.74999   0.00000  Uiso   1.00
O922   O     0.22679   0.79375   0.75000   0.00000  Uiso   1.00
O923   O     0.22679   0.87291   0.75000   0.00000  Uiso   1.00
O924   O     0.10655   0.79375   0.74999   0.00000  Uiso   1.00
O925   O     0.16666   0.87293   0.68513   0.00000  Uiso   1.00
O926   O     0.16668   0.79373   0.81487   0.00000  Uiso   1.00
O927   O     0.16668   0.87293   0.81487   0.00000  Uiso   1.00
O928   O     0.16666   0.79373   0.68513   0.00000  Uiso   1.00
Br929  Br    0.58860   0.83447   0.87657   0.00000  Uiso   1.00
Br930  Br    0.43613   0.94393   0.68087   0.00000  Uiso   1.00
Br931  Br    0.41140   0.83220   0.62343   0.00000  Uiso   1.00
Br932  Br    0.41353   0.81662   0.86780   0.00000  Uiso   1.00
Br933  Br    0.58647   0.85004   0.63219   0.00000  Uiso   1.00
Br934  Br    0.37290   0.86590   0.94914   0.00000  Uiso   1.00
Br935  Br    0.62708   0.80073   0.55086   0.00000  Uiso   1.00
Br936  Br    0.43609   0.72242   0.68097   0.00000  Uiso   1.00
Br937  Br    0.56391   0.94425   0.81903   0.00000  Uiso   1.00
Br938  Br    0.56387   0.72274   0.81913   0.00000  Uiso   1.00
C939   C     0.42081   0.83332   0.74982   0.00000  Uiso   1.00
C940   C     0.37613   0.83332   0.74984   0.00000  Uiso   1.00
C941   C     0.47385   0.69124   0.72175   0.00000  Uiso   1.00
C942   C     0.52615   0.97543   0.77824   0.00000  Uiso   1.00
C943   C     0.52615   0.69137   0.77826   0.00000  Uiso   1.00
C944   C     0.47385   0.97529   0.72174   0.00000  Uiso   1.00
C945   C     0.49987   0.83331   0.66469   0.00000  Uiso   1.00
C946   C     0.50013   0.83335   0.83531   0.00000  Uiso   1.00
C947   C     0.53743   0.83336   0.90790   0.00000  Uiso   1.00
C948   C     0.46257   0.83331   0.59210   0.00000  Uiso   1.00
C949   C     0.49982   0.83345   0.88350   0.00000  Uiso   1.00
C950   C     0.57919   0.83335   0.75018   0.00000  Uiso   1.00
C951   C     0.50018   0.83322   0.61650   0.00000  Uiso   1.00
C952   C     0.46194   0.83263   0.90452   0.00000  Uiso   1.00
C953   C     0.53806   0.83403   0.59548   0.00000  Uiso   1.00
C954   C     0.46144   0.83686   0.95139   0.00000  Uiso   1.00
C955   C     0.53856   0.82981   0.54861   0.00000  Uiso   1.00
C956   C     0.49967   0.83368   0.97643   0.00000  Uiso   1.00
C957   C     0.50033   0.83298   0.52357   0.00000  Uiso   1.00
C958   C     0.53738   0.83121   0.95444   0.00000  Uiso   1.00
C959   C     0.46261   0.83545   0.54556   0.00000  Uiso   1.00
C960   C     0.42472   0.84390   0.97462   0.00000  Uiso   1.00
C961   C     0.42566   0.84149   0.52070   0.00000  Uiso   1.00
C962   C     0.57528   0.82276   0.52538   0.00000  Uiso   1.00
C963   C     0.57434   0.82518   0.97930   0.00000  Uiso   1.00
C964   C     0.35459   0.79131   0.74979   0.00000  Uiso   1.00
C965   C     0.64541   0.87536   0.75021   0.00000  Uiso   1.00
C966   C     0.64531   0.79132   0.74989   0.00000  Uiso   1.00
C967   C     0.35469   0.87534   0.75011   0.00000  Uiso   1.00
C968   C     0.62387   0.83335   0.75016   0.00000  Uiso   1.00
Cu969  Cu    0.50000   0.88022   0.75000   0.00000  Uiso   1.00
Cu970  Cu    0.50000   0.78645   0.75000   0.00000  Uiso   1.00
H971   H     0.39686   0.84661   0.53688   0.00000  Uiso   1.00
H972   H     0.60313   0.82005   0.96312   0.00000  Uiso   1.00
H973   H     0.37054   0.75843   0.74975   0.00000  Uiso   1.00
H974   H     0.62946   0.90823   0.75025   0.00000  Uiso   1.00
H975   H     0.62928   0.75845   0.74969   0.00000  Uiso   1.00
H976   H     0.37072   0.90822   0.75031   0.00000  Uiso   1.00
N977   N     0.50000   0.95069   0.75000   0.00000  Uiso   1.00
N978   N     0.50000   0.71598   0.75000   0.00000  Uiso   1.00
O979   O     0.43988   0.87291   0.74999   0.00000  Uiso   1.00
O980   O     0.56012   0.79375   0.75000   0.00000  Uiso   1.00
O981   O     0.56012   0.87291   0.75000   0.00000  Uiso   1.00
O982   O     0.43988   0.79375   0.74999   0.00000  Uiso   1.00
O983   O     0.49999   0.87293   0.68513   0.00000  Uiso   1.00
O984   O     0.50001   0.79373   0.81487   0.00000  Uiso   1.00
O985   O     0.50001   0.87293   0.81487   0.00000  Uiso   1.00
O986   O     0.49999   0.79373   0.68513   0.00000  Uiso   1.00
Br987  Br    0.92193   0.83447   0.87657   0.00000  Uiso   1.00
Br988  Br    0.76946   0.94393   0.68087   0.00000  Uiso   1.00
Br989  Br    0.74473   0.83220   0.62343   0.00000  Uiso   1.00
Br990  Br    0.74687   0.81662   0.86780   0.00000  Uiso   1.00
Br991  Br    0.91980   0.85004   0.63219   0.00000  Uiso   1.00
Br992  Br    0.70623   0.86590   0.94914   0.00000  Uiso   1.00
Br993  Br    0.96042   0.80073   0.55086   0.00000  Uiso   1.00
Br994  Br    0.76942   0.72242   0.68097   0.00000  Uiso   1.00
Br995  Br    0.89724   0.94425   0.81903   0.00000  Uiso   1.00
Br996  Br    0.89720   0.72274   0.81913   0.00000  Uiso   1.00
C997   C     0.75414   0.83332   0.74982   0.00000  Uiso   1.00
C998   C     0.70946   0.83332   0.74984   0.00000  Uiso   1.00
C999   C     0.80718   0.69124   0.72175   0.00000  Uiso   1.00
C1000  C     0.85949   0.97543   0.77824   0.00000  Uiso   1.00
C1001  C     0.85948   0.69137   0.77826   0.00000  Uiso   1.00
C1002  C     0.80718   0.97529   0.72174   0.00000  Uiso   1.00
C1003  C     0.83321   0.83331   0.66469   0.00000  Uiso   1.00
C1004  C     0.83346   0.83335   0.83531   0.00000  Uiso   1.00
C1005  C     0.87076   0.83336   0.90790   0.00000  Uiso   1.00
C1006  C     0.79590   0.83331   0.59210   0.00000  Uiso   1.00
C1007  C     0.83315   0.83345   0.88350   0.00000  Uiso   1.00
C1008  C     0.91252   0.83335   0.75018   0.00000  Uiso   1.00
C1009  C     0.83351   0.83322   0.61650   0.00000  Uiso   1.00
C1010  C     0.79527   0.83263   0.90452   0.00000  Uiso   1.00
C1011  C     0.87139   0.83403   0.59548   0.00000  Uiso   1.00
C1012  C     0.79477   0.83686   0.95139   0.00000  Uiso   1.00
C1013  C     0.87189   0.82981   0.54861   0.00000  Uiso   1.00
C1014  C     0.83300   0.83368   0.97643   0.00000  Uiso   1.00
C1015  C     0.83366   0.83298   0.52357   0.00000  Uiso   1.00
C1016  C     0.87072   0.83121   0.95444   0.00000  Uiso   1.00
C1017  C     0.79595   0.83545   0.54556   0.00000  Uiso   1.00
C1018  C     0.75805   0.84390   0.97462   0.00000  Uiso   1.00
C1019  C     0.75899   0.84149   0.52070   0.00000  Uiso   1.00
C1020  C     0.90861   0.82276   0.52538   0.00000  Uiso   1.00
C1021  C     0.90767   0.82518   0.97930   0.00000  Uiso   1.00
C1022  C     0.68792   0.79131   0.74979   0.00000  Uiso   1.00
C1023  C     0.97874   0.87536   0.75021   0.00000  Uiso   1.00
C1024  C     0.97864   0.79132   0.74989   0.00000  Uiso   1.00
C1025  C     0.68803   0.87534   0.75011   0.00000  Uiso   1.00
C1026  C     0.95720   0.83335   0.75016   0.00000  Uiso   1.00
Cu1027 Cu    0.83333   0.88022   0.75000   0.00000  Uiso   1.00
Cu1028 Cu    0.83333   0.78645   0.75000   0.00000  Uiso   1.00
H1029  H     0.73020   0.84661   0.53688   0.00000  Uiso   1.00
H1030  H     0.93646   0.82005   0.96312   0.00000  Uiso   1.00
H1031  H     0.70387   0.75843   0.74975   0.00000  Uiso   1.00
H1032  H     0.96279   0.90823   0.75025   0.00000  Uiso   1.00
H1033  H     0.96261   0.75845   0.74969   0.00000  Uiso   1.00
H1034  H     0.70406   0.90822   0.75031   0.00000  Uiso   1.00
N1035  N     0.83333   0.95069   0.75000   0.00000  Uiso   1.00
N1036  N     0.83333   0.71598   0.75000   0.00000  Uiso   1.00
O1037  O     0.77321   0.87291   0.74999   0.00000  Uiso   1.00
O1038  O     0.89345   0.79375   0.75000   0.00000  Uiso   1.00
O1039  O     0.89345   0.87291   0.75000   0.00000  Uiso   1.00
O1040  O     0.77321   0.79375   0.74999   0.00000  Uiso   1.00
O1041  O     0.83332   0.87293   0.68513   0.00000  Uiso   1.00
O1042  O     0.83334   0.79373   0.81487   0.00000  Uiso   1.00
O1043  O     0.83334   0.87293   0.81487   0.00000  Uiso   1.00
O1044  O     0.83332   0.79373   0.68513   0.00000  Uiso   1.00
loop_
_geom_bond_atom_site_label_1
_geom_bond_atom_site_label_2
_geom_bond_distance
_geom_bond_site_symmetry_2
_ccdc_geom_bond_type
Br1    C19     1.941   .     S
Br2    C16     1.925   .     S
Br3    C20     1.941   .     S
Br4    C24     1.939   .     S
Br5    C25     1.939   .     S
Br6    C32     1.928   .     S
Br7    C34     1.928   .     S
Br8    C13     1.924   .     S
Br9    C14     1.924   .     S
Br10   C15     1.925   .     S
C11    C12     1.449   .     S
C11    O54     1.301   .     A
C11    O51     1.301   .     A
C12    C39     1.401   .     A
C12    C36     1.401   .     A
C13    N50     1.376   .     A
C13    C364    1.425   1_545 S
C14    N49     1.376   .     A
C14    C189    1.425   .     S
C15    N50     1.376   .     A
C15    C362    1.425   1_545 S
C16    N49     1.376   .     A
C16    C187    1.425   .     S
C17    O55     1.300   .     A
C17    O58     1.300   .     A
C17    C23     1.450   .     S
C18    C21     1.450   .     S
C18    O57     1.300   .     A
C18    O56     1.300   .     A
C19    C21     1.398   .     A
C19    C30     1.402   .     A
C20    C23     1.398   .     A
C20    C31     1.402   .     A
C21    C24     1.404   .     A
C22    C40     1.449   .     S
C22    O53     1.301   .     A
C22    O52     1.301   .     A
C23    C25     1.404   .     A
C24    C26     1.416   .     A
C25    C27     1.416   .     A
C26    C32     1.419   .     A
C26    C28     1.428   .     A
C27    C29     1.428   .     A
C27    C34     1.419   .     A
C28    C30     1.415   .     A
C28    C551    1.418   .     S
C29    C31     1.415   .     A
C29    C550    1.418   1_554 S
C30    C35     1.398   .     A
C31    C33     1.398   .     A
C32    C555    1.387   .     S
C33    H43     1.081   .     S
C33    C554    1.387   1_554 S
C34    C557    1.387   1_554 S
C35    H44     1.080   .     S
C35    C556    1.387   .     S
C36    H45     1.083   .     S
C36    C154    1.382   1_455 S
C37    C40     1.401   .     A
C37    H46     1.083   .     S
C37    C97     1.382   .     S
C38    C40     1.401   .     A
C38    H47     1.083   .     S
C38    C94     1.382   .     S
C39    H48     1.083   .     S
C39    C153    1.382   1_455 S
Cu41   Cu42    2.712   .     S
Cu41   O57     1.963   .     S
Cu41   O53     1.961   .     S
Cu41   N49     2.038   .     S
Cu41   O55     1.963   .     S
Cu41   O51     1.961   .     S
Cu42   O58     1.963   .     S
Cu42   O54     1.961   .     S
Cu42   N50     2.038   .     S
Cu42   O56     1.963   .     S
Cu42   O52     1.961   .     S
Br59   C77     1.941   .     S
Br60   C74     1.925   .     S
Br61   C78     1.941   .     S
Br62   C82     1.939   .     S
Br63   C83     1.939   .     S
Br64   C90     1.928   .     S
Br65   C92     1.928   .     S
Br66   C71     1.924   .     S
Br67   C72     1.924   .     S
Br68   C73     1.925   .     S
C69    C70     1.449   .     S
C69    O112    1.301   .     A
C69    O109    1.301   .     A
C70    C97     1.401   .     A
C70    C94     1.401   .     A
C71    N108    1.376   .     A
C71    C422    1.425   1_545 S
C72    N107    1.376   .     A
C72    C247    1.425   .     S
C73    N108    1.376   .     A
C73    C420    1.425   1_545 S
C74    N107    1.376   .     A
C74    C245    1.425   .     S
C75    O113    1.300   .     A
C75    O116    1.300   .     A
C75    C81     1.450   .     S
C76    C79     1.450   .     S
C76    O115    1.300   .     A
C76    O114    1.300   .     A
C77    C79     1.398   .     A
C77    C88     1.402   .     A
C78    C81     1.398   .     A
C78    C89     1.402   .     A
C79    C82     1.404   .     A
C80    C98     1.449   .     S
C80    O111    1.301   .     A
C80    O110    1.301   .     A
C81    C83     1.404   .     A
C82    C84     1.416   .     A
C83    C85     1.416   .     A
C84    C90     1.419   .     A
C84    C86     1.428   .     A
C85    C87     1.428   .     A
C85    C92     1.419   .     A
C86    C88     1.415   .     A
C86    C609    1.418   .     S
C87    C89     1.415   .     A
C87    C608    1.418   1_554 S
C88    C93     1.398   .     A
C89    C91     1.398   .     A
C90    C613    1.387   .     S
C91    H101    1.081   .     S
C91    C612    1.387   1_554 S
C92    C615    1.387   1_554 S
C93    H102    1.080   .     S
C93    C614    1.387   .     S
C94    H103    1.083   .     S
C95    C98     1.401   .     A
C95    H104    1.083   .     S
C95    C155    1.382   .     S
C96    C98     1.401   .     A
C96    H105    1.083   .     S
C96    C152    1.382   .     S
C97    H106    1.083   .     S
Cu99   Cu100   2.712   .     S
Cu99   O115    1.963   .     S
Cu99   O111    1.961   .     S
Cu99   N107    2.038   .     S
Cu99   O113    1.963   .     S
Cu99   O109    1.961   .     S
Cu100  O116    1.963   .     S
Cu100  O112    1.961   .     S
Cu100  N108    2.038   .     S
Cu100  O114    1.963   .     S
Cu100  O110    1.961   .     S
Br117  C135    1.941   .     S
Br118  C132    1.925   .     S
Br119  C136    1.941   .     S
Br120  C140    1.939   .     S
Br121  C141    1.939   .     S
Br122  C148    1.928   .     S
Br123  C150    1.928   .     S
Br124  C129    1.924   .     S
Br125  C130    1.924   .     S
Br126  C131    1.925   .     S
C127   C128    1.449   .     S
C127   O170    1.301   .     A
C127   O167    1.301   .     A
C128   C155    1.401   .     A
C128   C152    1.401   .     A
C129   N166    1.376   .     A
C129   C480    1.425   1_545 S
C130   N165    1.376   .     A
C130   C305    1.425   .     S
C131   N166    1.376   .     A
C131   C478    1.425   1_545 S
C132   N165    1.376   .     A
C132   C303    1.425   .     S
C133   O171    1.300   .     A
C133   O174    1.300   .     A
C133   C139    1.450   .     S
C134   C137    1.450   .     S
C134   O173    1.300   .     A
C134   O172    1.300   .     A
C135   C137    1.398   .     A
C135   C146    1.402   .     A
C136   C139    1.398   .     A
C136   C147    1.402   .     A
C137   C140    1.404   .     A
C138   C156    1.449   .     S
C138   O169    1.301   .     A
C138   O168    1.301   .     A
C139   C141    1.404   .     A
C140   C142    1.416   .     A
C141   C143    1.416   .     A
C142   C148    1.419   .     A
C142   C144    1.428   .     A
C143   C145    1.428   .     A
C143   C150    1.419   .     A
C144   C146    1.415   .     A
C144   C667    1.418   .     S
C145   C147    1.415   .     A
C145   C666    1.418   1_554 S
C146   C151    1.398   .     A
C147   C149    1.398   .     A
C148   C671    1.387   .     S
C149   H159    1.081   .     S
C149   C670    1.387   1_554 S
C150   C673    1.387   1_554 S
C151   H160    1.080   .     S
C151   C672    1.387   .     S
C152   H161    1.083   .     S
C153   C156    1.401   .     A
C153   H162    1.083   .     S
C153   C39     1.382   1_655 S
C154   C156    1.401   .     A
C154   H163    1.083   .     S
C154   C36     1.382   1_655 S
C155   H164    1.083   .     S
Cu157  Cu158   2.712   .     S
Cu157  O173    1.963   .     S
Cu157  O169    1.961   .     S
Cu157  N165    2.038   .     S
Cu157  O171    1.963   .     S
Cu157  O167    1.961   .     S
Cu158  O174    1.963   .     S
Cu158  O170    1.961   .     S
Cu158  N166    2.038   .     S
Cu158  O172    1.963   .     S
Cu158  O168    1.961   .     S
Br175  C193    1.941   .     S
Br176  C190    1.925   .     S
Br177  C194    1.941   .     S
Br178  C198    1.939   .     S
Br179  C199    1.939   .     S
Br180  C206    1.928   .     S
Br181  C208    1.928   .     S
Br182  C187    1.924   .     S
Br183  C188    1.924   .     S
Br184  C189    1.925   .     S
C185   C186    1.449   .     S
C185   O228    1.301   .     A
C185   O225    1.301   .     A
C186   C213    1.401   .     A
C186   C210    1.401   .     A
C187   N224    1.376   .     A
C188   N223    1.376   .     A
C188   C363    1.425   .     S
C189   N224    1.376   .     A
C190   N223    1.376   .     A
C190   C361    1.425   .     S
C191   O229    1.300   .     A
C191   O232    1.300   .     A
C191   C197    1.450   .     S
C192   C195    1.450   .     S
C192   O231    1.300   .     A
C192   O230    1.300   .     A
C193   C195    1.398   .     A
C193   C204    1.402   .     A
C194   C197    1.398   .     A
C194   C205    1.402   .     A
C195   C198    1.404   .     A
C196   C214    1.449   .     S
C196   O227    1.301   .     A
C196   O226    1.301   .     A
C197   C199    1.404   .     A
C198   C200    1.416   .     A
C199   C201    1.416   .     A
C200   C206    1.419   .     A
C200   C202    1.428   .     A
C201   C203    1.428   .     A
C201   C208    1.419   .     A
C202   C204    1.415   .     A
C202   C725    1.418   .     S
C203   C205    1.415   .     A
C203   C724    1.418   1_554 S
C204   C209    1.398   .     A
C205   C207    1.398   .     A
C206   C729    1.387   .     S
C207   H217    1.081   .     S
C207   C728    1.387   1_554 S
C208   C731    1.387   1_554 S
C209   H218    1.080   .     S
C209   C730    1.387   .     S
C210   H219    1.083   .     S
C210   C328    1.382   1_455 S
C211   C214    1.401   .     A
C211   H220    1.083   .     S
C211   C271    1.382   .     S
C212   C214    1.401   .     A
C212   H221    1.083   .     S
C212   C268    1.382   .     S
C213   H222    1.083   .     S
C213   C327    1.382   1_455 S
Cu215  Cu216   2.712   .     S
Cu215  O231    1.963   .     S
Cu215  O227    1.961   .     S
Cu215  N223    2.038   .     S
Cu215  O229    1.963   .     S
Cu215  O225    1.961   .     S
Cu216  O232    1.963   .     S
Cu216  O228    1.961   .     S
Cu216  N224    2.038   .     S
Cu216  O230    1.963   .     S
Cu216  O226    1.961   .     S
Br233  C251    1.941   .     S
Br234  C248    1.925   .     S
Br235  C252    1.941   .     S
Br236  C256    1.939   .     S
Br237  C257    1.939   .     S
Br238  C264    1.928   .     S
Br239  C266    1.928   .     S
Br240  C245    1.924   .     S
Br241  C246    1.924   .     S
Br242  C247    1.925   .     S
C243   C244    1.449   .     S
C243   O286    1.301   .     A
C243   O283    1.301   .     A
C244   C271    1.401   .     A
C244   C268    1.401   .     A
C245   N282    1.376   .     A
C246   N281    1.376   .     A
C246   C421    1.425   .     S
C247   N282    1.376   .     A
C248   N281    1.376   .     A
C248   C419    1.425   .     S
C249   O287    1.300   .     A
C249   O290    1.300   .     A
C249   C255    1.450   .     S
C250   C253    1.450   .     S
C250   O289    1.300   .     A
C250   O288    1.300   .     A
C251   C253    1.398   .     A
C251   C262    1.402   .     A
C252   C255    1.398   .     A
C252   C263    1.402   .     A
C253   C256    1.404   .     A
C254   C272    1.449   .     S
C254   O285    1.301   .     A
C254   O284    1.301   .     A
C255   C257    1.404   .     A
C256   C258    1.416   .     A
C257   C259    1.416   .     A
C258   C264    1.419   .     A
C258   C260    1.428   .     A
C259   C261    1.428   .     A
C259   C266    1.419   .     A
C260   C262    1.415   .     A
C260   C783    1.418   .     S
C261   C263    1.415   .     A
C261   C782    1.418   1_554 S
C262   C267    1.398   .     A
C263   C265    1.398   .     A
C264   C787    1.387   .     S
C265   H275    1.081   .     S
C265   C786    1.387   1_554 S
C266   C789    1.387   1_554 S
C267   H276    1.080   .     S
C267   C788    1.387   .     S
C268   H277    1.083   .     S
C269   C272    1.401   .     A
C269   H278    1.083   .     S
C269   C329    1.382   .     S
C270   C272    1.401   .     A
C270   H279    1.083   .     S
C270   C326    1.382   .     S
C271   H280    1.083   .     S
Cu273  Cu274   2.712   .     S
Cu273  O289    1.963   .     S
Cu273  O285    1.961   .     S
Cu273  N281    2.038   .     S
Cu273  O287    1.963   .     S
Cu273  O283    1.961   .     S
Cu274  O290    1.963   .     S
Cu274  O286    1.961   .     S
Cu274  N282    2.038   .     S
Cu274  O288    1.963   .     S
Cu274  O284    1.961   .     S
Br291  C309    1.941   .     S
Br292  C306    1.925   .     S
Br293  C310    1.941   .     S
Br294  C314    1.939   .     S
Br295  C315    1.939   .     S
Br296  C322    1.928   .     S
Br297  C324    1.928   .     S
Br298  C303    1.924   .     S
Br299  C304    1.924   .     S
Br300  C305    1.925   .     S
C301   C302    1.449   .     S
C301   O344    1.301   .     A
C301   O341    1.301   .     A
C302   C329    1.401   .     A
C302   C326    1.401   .     A
C303   N340    1.376   .     A
C304   N339    1.376   .     A
C304   C479    1.425   .     S
C305   N340    1.376   .     A
C306   N339    1.376   .     A
C306   C477    1.425   .     S
C307   O345    1.300   .     A
C307   O348    1.300   .     A
C307   C313    1.450   .     S
C308   C311    1.450   .     S
C308   O347    1.300   .     A
C308   O346    1.300   .     A
C309   C311    1.398   .     A
C309   C320    1.402   .     A
C310   C313    1.398   .     A
C310   C321    1.402   .     A
C311   C314    1.404   .     A
C312   C330    1.449   .     S
C312   O343    1.301   .     A
C312   O342    1.301   .     A
C313   C315    1.404   .     A
C314   C316    1.416   .     A
C315   C317    1.416   .     A
C316   C322    1.419   .     A
C316   C318    1.428   .     A
C317   C319    1.428   .     A
C317   C324    1.419   .     A
C318   C320    1.415   .     A
C318   C841    1.418   .     S
C319   C321    1.415   .     A
C319   C840    1.418   1_554 S
C320   C325    1.398   .     A
C321   C323    1.398   .     A
C322   C845    1.387   .     S
C323   H333    1.081   .     S
C323   C844    1.387   1_554 S
C324   C847    1.387   1_554 S
C325   H334    1.080   .     S
C325   C846    1.387   .     S
C326   H335    1.083   .     S
C327   C330    1.401   .     A
C327   H336    1.083   .     S
C327   C213    1.382   1_655 S
C328   C330    1.401   .     A
C328   H337    1.083   .     S
C328   C210    1.382   1_655 S
C329   H338    1.083   .     S
Cu331  Cu332   2.712   .     S
Cu331  O347    1.963   .     S
Cu331  O343    1.961   .     S
Cu331  N339    2.038   .     S
Cu331  O345    1.963   .     S
Cu331  O341    1.961   .     S
Cu332  O348    1.963   .     S
Cu332  O344    1.961   .     S
Cu332  N340    2.038   .     S
Cu332  O346    1.963   .     S
Cu332  O342    1.961   .     S
Br349  C367    1.941   .     S
Br350  C364    1.925   .     S
Br351  C368    1.941   .     S
Br352  C372    1.939   .     S
Br353  C373    1.939   .     S
Br354  C380    1.928   .     S
Br355  C382    1.928   .     S
Br356  C361    1.924   .     S
Br357  C362    1.924   .     S
Br358  C363    1.925   .     S
C359   C360    1.449   .     S
C359   O402    1.301   .     A
C359   O399    1.301   .     A
C360   C387    1.401   .     A
C360   C384    1.401   .     A
C361   N398    1.376   .     A
C362   N397    1.376   .     A
C362   C15     1.425   1_565 S
C363   N398    1.376   .     A
C364   N397    1.376   .     A
C364   C13     1.425   1_565 S
C365   O403    1.300   .     A
C365   O406    1.300   .     A
C365   C371    1.450   .     S
C366   C369    1.450   .     S
C366   O405    1.300   .     A
C366   O404    1.300   .     A
C367   C369    1.398   .     A
C367   C378    1.402   .     A
C368   C371    1.398   .     A
C368   C379    1.402   .     A
C369   C372    1.404   .     A
C370   C388    1.449   .     S
C370   O401    1.301   .     A
C370   O400    1.301   .     A
C371   C373    1.404   .     A
C372   C374    1.416   .     A
C373   C375    1.416   .     A
C374   C380    1.419   .     A
C374   C376    1.428   .     A
C375   C377    1.428   .     A
C375   C382    1.419   .     A
C376   C378    1.415   .     A
C376   C899    1.418   .     S
C377   C379    1.415   .     A
C377   C898    1.418   1_554 S
C378   C383    1.398   .     A
C379   C381    1.398   .     A
C380   C903    1.387   .     S
C381   H391    1.081   .     S
C381   C902    1.387   1_554 S
C382   C905    1.387   1_554 S
C383   H392    1.080   .     S
C383   C904    1.387   .     S
C384   H393    1.083   .     S
C384   C502    1.382   1_455 S
C385   C388    1.401   .     A
C385   H394    1.083   .     S
C385   C445    1.382   .     S
C386   C388    1.401   .     A
C386   H395    1.083   .     S
C386   C442    1.382   .     S
C387   H396    1.083   .     S
C387   C501    1.382   1_455 S
Cu389  Cu390   2.712   .     S
Cu389  O405    1.963   .     S
Cu389  O401    1.961   .     S
Cu389  N397    2.038   .     S
Cu389  O403    1.963   .     S
Cu389  O399    1.961   .     S
Cu390  O406    1.963   .     S
Cu390  O402    1.961   .     S
Cu390  N398    2.038   .     S
Cu390  O404    1.963   .     S
Cu390  O400    1.961   .     S
Br407  C425    1.941   .     S
Br408  C422    1.925   .     S
Br409  C426    1.941   .     S
Br410  C430    1.939   .     S
Br411  C431    1.939   .     S
Br412  C438    1.928   .     S
Br413  C440    1.928   .     S
Br414  C419    1.924   .     S
Br415  C420    1.924   .     S
Br416  C421    1.925   .     S
C417   C418    1.449   .     S
C417   O460    1.301   .     A
C417   O457    1.301   .     A
C418   C445    1.401   .     A
C418   C442    1.401   .     A
C419   N456    1.376   .     A
C420   N455    1.376   .     A
C420   C73     1.425   1_565 S
C421   N456    1.376   .     A
C422   N455    1.376   .     A
C422   C71     1.425   1_565 S
C423   O461    1.300   .     A
C423   O464    1.300   .     A
C423   C429    1.450   .     S
C424   C427    1.450   .     S
C424   O463    1.300   .     A
C424   O462    1.300   .     A
C425   C427    1.398   .     A
C425   C436    1.402   .     A
C426   C429    1.398   .     A
C426   C437    1.402   .     A
C427   C430    1.404   .     A
C428   C446    1.449   .     S
C428   O459    1.301   .     A
C428   O458    1.301   .     A
C429   C431    1.404   .     A
C430   C432    1.416   .     A
C431   C433    1.416   .     A
C432   C438    1.419   .     A
C432   C434    1.428   .     A
C433   C435    1.428   .     A
C433   C440    1.419   .     A
C434   C436    1.415   .     A
C434   C957    1.418   .     S
C435   C437    1.415   .     A
C435   C956    1.418   1_554 S
C436   C441    1.398   .     A
C437   C439    1.398   .     A
C438   C961    1.387   .     S
C439   H449    1.081   .     S
C439   C960    1.387   1_554 S
C440   C963    1.387   1_554 S
C441   H450    1.080   .     S
C441   C962    1.387   .     S
C442   H451    1.083   .     S
C443   C446    1.401   .     A
C443   H452    1.083   .     S
C443   C503    1.382   .     S
C444   C446    1.401   .     A
C444   H453    1.083   .     S
C444   C500    1.382   .     S
C445   H454    1.083   .     S
Cu447  Cu448   2.712   .     S
Cu447  O463    1.963   .     S
Cu447  O459    1.961   .     S
Cu447  N455    2.038   .     S
Cu447  O461    1.963   .     S
Cu447  O457    1.961   .     S
Cu448  O464    1.963   .     S
Cu448  O460    1.961   .     S
Cu448  N456    2.038   .     S
Cu448  O462    1.963   .     S
Cu448  O458    1.961   .     S
Br465  C483    1.941   .     S
Br466  C480    1.925   .     S
Br467  C484    1.941   .     S
Br468  C488    1.939   .     S
Br469  C489    1.939   .     S
Br470  C496    1.928   .     S
Br471  C498    1.928   .     S
Br472  C477    1.924   .     S
Br473  C478    1.924   .     S
Br474  C479    1.925   .     S
C475   C476    1.449   .     S
C475   O518    1.301   .     A
C475   O515    1.301   .     A
C476   C503    1.401   .     A
C476   C500    1.401   .     A
C477   N514    1.376   .     A
C478   N513    1.376   .     A
C478   C131    1.425   1_565 S
C479   N514    1.376   .     A
C480   N513    1.376   .     A
C480   C129    1.425   1_565 S
C481   O519    1.300   .     A
C481   O522    1.300   .     A
C481   C487    1.450   .     S
C482   C485    1.450   .     S
C482   O521    1.300   .     A
C482   O520    1.300   .     A
C483   C485    1.398   .     A
C483   C494    1.402   .     A
C484   C487    1.398   .     A
C484   C495    1.402   .     A
C485   C488    1.404   .     A
C486   C504    1.449   .     S
C486   O517    1.301   .     A
C486   O516    1.301   .     A
C487   C489    1.404   .     A
C488   C490    1.416   .     A
C489   C491    1.416   .     A
C490   C496    1.419   .     A
C490   C492    1.428   .     A
C491   C493    1.428   .     A
C491   C498    1.419   .     A
C492   C494    1.415   .     A
C492   C1015   1.418   .     S
C493   C495    1.415   .     A
C493   C1014   1.418   1_554 S
C494   C499    1.398   .     A
C495   C497    1.398   .     A
C496   C1019   1.387   .     S
C497   H507    1.081   .     S
C497   C1018   1.387   1_554 S
C498   C1021   1.387   1_554 S
C499   H508    1.080   .     S
C499   C1020   1.387   .     S
C500   H509    1.083   .     S
C501   C504    1.401   .     A
C501   H510    1.083   .     S
C501   C387    1.382   1_655 S
C502   C504    1.401   .     A
C502   H511    1.083   .     S
C502   C384    1.382   1_655 S
C503   H512    1.083   .     S
Cu505  Cu506   2.712   .     S
Cu505  O521    1.963   .     S
Cu505  O517    1.961   .     S
Cu505  N513    2.038   .     S
Cu505  O519    1.963   .     S
Cu505  O515    1.961   .     S
Cu506  O522    1.963   .     S
Cu506  O518    1.961   .     S
Cu506  N514    2.038   .     S
Cu506  O520    1.963   .     S
Cu506  O516    1.961   .     S
Br523  C541    1.941   .     S
Br524  C538    1.925   .     S
Br525  C542    1.941   .     S
Br526  C546    1.939   .     S
Br527  C547    1.939   .     S
Br528  C554    1.928   .     S
Br529  C556    1.928   .     S
Br530  C535    1.924   .     S
Br531  C536    1.924   .     S
Br532  C537    1.925   .     S
C533   C534    1.449   .     S
C533   O576    1.301   .     A
C533   O573    1.301   .     A
C534   C561    1.401   .     A
C534   C558    1.401   .     A
C535   N572    1.376   .     A
C535   C886    1.425   1_545 S
C536   N571    1.376   .     A
C536   C711    1.425   .     S
C537   N572    1.376   .     A
C537   C884    1.425   1_545 S
C538   N571    1.376   .     A
C538   C709    1.425   .     S
C539   O577    1.300   .     A
C539   O580    1.300   .     A
C539   C545    1.450   .     S
C540   C543    1.450   .     S
C540   O579    1.300   .     A
C540   O578    1.300   .     A
C541   C543    1.398   .     A
C541   C552    1.402   .     A
C542   C545    1.398   .     A
C542   C553    1.402   .     A
C543   C546    1.404   .     A
C544   C562    1.449   .     S
C544   O575    1.301   .     A
C544   O574    1.301   .     A
C545   C547    1.404   .     A
C546   C548    1.416   .     A
C547   C549    1.416   .     A
C548   C554    1.419   .     A
C548   C550    1.428   .     A
C549   C551    1.428   .     A
C549   C556    1.419   .     A
C550   C552    1.415   .     A
C550   C29     1.418   1_556 S
C551   C553    1.415   .     A
C552   C557    1.398   .     A
C553   C555    1.398   .     A
C554   C33     1.387   1_556 S
C555   H565    1.081   .     S
C557   H566    1.080   .     S
C557   C34     1.387   1_556 S
C558   H567    1.083   .     S
C558   C676    1.382   1_455 S
C559   C562    1.401   .     A
C559   H568    1.083   .     S
C559   C619    1.382   .     S
C560   C562    1.401   .     A
C560   H569    1.083   .     S
C560   C616    1.382   .     S
C561   H570    1.083   .     S
C561   C675    1.382   1_455 S
Cu563  Cu564   2.712   .     S
Cu563  O579    1.963   .     S
Cu563  O575    1.961   .     S
Cu563  N571    2.038   .     S
Cu563  O577    1.963   .     S
Cu563  O573    1.961   .     S
Cu564  O580    1.963   .     S
Cu564  O576    1.961   .     S
Cu564  N572    2.038   .     S
Cu564  O578    1.963   .     S
Cu564  O574    1.961   .     S
Br581  C599    1.941   .     S
Br582  C596    1.925   .     S
Br583  C600    1.941   .     S
Br584  C604    1.939   .     S
Br585  C605    1.939   .     S
Br586  C612    1.928   .     S
Br587  C614    1.928   .     S
Br588  C593    1.924   .     S
Br589  C594    1.924   .     S
Br590  C595    1.925   .     S
C591   C592    1.449   .     S
C591   O634    1.301   .     A
C591   O631    1.301   .     A
C592   C619    1.401   .     A
C592   C616    1.401   .     A
C593   N630    1.376   .     A
C593   C944    1.425   1_545 S
C594   N629    1.376   .     A
C594   C769    1.425   .     S
C595   N630    1.376   .     A
C595   C942    1.425   1_545 S
C596   N629    1.376   .     A
C596   C767    1.425   .     S
C597   O635    1.300   .     A
C597   O638    1.300   .     A
C597   C603    1.450   .     S
C598   C601    1.450   .     S
C598   O637    1.300   .     A
C598   O636    1.300   .     A
C599   C601    1.398   .     A
C599   C610    1.402   .     A
C600   C603    1.398   .     A
C600   C611    1.402   .     A
C601   C604    1.404   .     A
C602   C620    1.449   .     S
C602   O633    1.301   .     A
C602   O632    1.301   .     A
C603   C605    1.404   .     A
C604   C606    1.416   .     A
C605   C607    1.416   .     A
C606   C612    1.419   .     A
C606   C608    1.428   .     A
C607   C609    1.428   .     A
C607   C614    1.419   .     A
C608   C610    1.415   .     A
C608   C87     1.418   1_556 S
C609   C611    1.415   .     A
C610   C615    1.398   .     A
C611   C613    1.398   .     A
C612   C91     1.387   1_556 S
C613   H623    1.081   .     S
C615   H624    1.080   .     S
C615   C92     1.387   1_556 S
C616   H625    1.083   .     S
C617   C620    1.401   .     A
C617   H626    1.083   .     S
C617   C677    1.382   .     S
C618   C620    1.401   .     A
C618   H627    1.083   .     S
C618   C674    1.382   .     S
C619   H628    1.083   .     S
Cu621  Cu622   2.712   .     S
Cu621  O637    1.963   .     S
Cu621  O633    1.961   .     S
Cu621  N629    2.038   .     S
Cu621  O635    1.963   .     S
Cu621  O631    1.961   .     S
Cu622  O638    1.963   .     S
Cu622  O634    1.961   .     S
Cu622  N630    2.038   .     S
Cu622  O636    1.963   .     S
Cu622  O632    1.961   .     S
Br639  C657    1.941   .     S
Br640  C654    1.925   .     S
Br641  C658    1.941   .     S
Br642  C662    1.939   .     S
Br643  C663    1.939   .     S
Br644  C670    1.928   .     S
Br645  C672    1.928   .     S
Br646  C651    1.924   .     S
Br647  C652    1.924   .     S
Br648  C653    1.925   .     S
C649   C650    1.449   .     S
C649   O692    1.301   .     A
C649   O689    1.301   .     A
C650   C677    1.401   .     A
C650   C674    1.401   .     A
C651   N688    1.376   .     A
C651   C1002   1.425   1_545 S
C652   N687    1.376   .     A
C652   C827    1.425   .     S
C653   N688    1.376   .     A
C653   C1000   1.425   1_545 S
C654   N687    1.376   .     A
C654   C825    1.425   .     S
C655   O693    1.300   .     A
C655   O696    1.300   .     A
C655   C661    1.450   .     S
C656   C659    1.450   .     S
C656   O695    1.300   .     A
C656   O694    1.300   .     A
C657   C659    1.398   .     A
C657   C668    1.402   .     A
C658   C661    1.398   .     A
C658   C669    1.402   .     A
C659   C662    1.404   .     A
C660   C678    1.449   .     S
C660   O691    1.301   .     A
C660   O690    1.301   .     A
C661   C663    1.404   .     A
C662   C664    1.416   .     A
C663   C665    1.416   .     A
C664   C670    1.419   .     A
C664   C666    1.428   .     A
C665   C667    1.428   .     A
C665   C672    1.419   .     A
C666   C668    1.415   .     A
C666   C145    1.418   1_556 S
C667   C669    1.415   .     A
C668   C673    1.398   .     A
C669   C671    1.398   .     A
C670   C149    1.387   1_556 S
C671   H681    1.081   .     S
C673   H682    1.080   .     S
C673   C150    1.387   1_556 S
C674   H683    1.083   .     S
C675   C678    1.401   .     A
C675   H684    1.083   .     S
C675   C561    1.382   1_655 S
C676   C678    1.401   .     A
C676   H685    1.083   .     S
C676   C558    1.382   1_655 S
C677   H686    1.083   .     S
Cu679  Cu680   2.712   .     S
Cu679  O695    1.963   .     S
Cu679  O691    1.961   .     S
Cu679  N687    2.038   .     S
Cu679  O693    1.963   .     S
Cu679  O689    1.961   .     S
Cu680  O696    1.963   .     S
Cu680  O692    1.961   .     S
Cu680  N688    2.038   .     S
Cu680  O694    1.963   .     S
Cu680  O690    1.961   .     S
Br697  C715    1.941   .     S
Br698  C712    1.925   .     S
Br699  C716    1.941   .     S
Br700  C720    1.939   .     S
Br701  C721    1.939   .     S
Br702  C728    1.928   .     S
Br703  C730    1.928   .     S
Br704  C709    1.924   .     S
Br705  C710    1.924   .     S
Br706  C711    1.925   .     S
C707   C708    1.449   .     S
C707   O750    1.301   .     A
C707   O747    1.301   .     A
C708   C735    1.401   .     A
C708   C732    1.401   .     A
C709   N746    1.376   .     A
C710   N745    1.376   .     A
C710   C885    1.425   .     S
C711   N746    1.376   .     A
C712   N745    1.376   .     A
C712   C883    1.425   .     S
C713   O751    1.300   .     A
C713   O754    1.300   .     A
C713   C719    1.450   .     S
C714   C717    1.450   .     S
C714   O753    1.300   .     A
C714   O752    1.300   .     A
C715   C717    1.398   .     A
C715   C726    1.402   .     A
C716   C719    1.398   .     A
C716   C727    1.402   .     A
C717   C720    1.404   .     A
C718   C736    1.449   .     S
C718   O749    1.301   .     A
C718   O748    1.301   .     A
C719   C721    1.404   .     A
C720   C722    1.416   .     A
C721   C723    1.416   .     A
C722   C728    1.419   .     A
C722   C724    1.428   .     A
C723   C725    1.428   .     A
C723   C730    1.419   .     A
C724   C726    1.415   .     A
C724   C203    1.418   1_556 S
C725   C727    1.415   .     A
C726   C731    1.398   .     A
C727   C729    1.398   .     A
C728   C207    1.387   1_556 S
C729   H739    1.081   .     S
C731   H740    1.080   .     S
C731   C208    1.387   1_556 S
C732   H741    1.083   .     S
C732   C850    1.382   1_455 S
C733   C736    1.401   .     A
C733   H742    1.083   .     S
C733   C793    1.382   .     S
C734   C736    1.401   .     A
C734   H743    1.083   .     S
C734   C790    1.382   .     S
C735   H744    1.083   .     S
C735   C849    1.382   1_455 S
Cu737  Cu738   2.712   .     S
Cu737  O753    1.963   .     S
Cu737  O749    1.961   .     S
Cu737  N745    2.038   .     S
Cu737  O751    1.963   .     S
Cu737  O747    1.961   .     S
Cu738  O754    1.963   .     S
Cu738  O750    1.961   .     S
Cu738  N746    2.038   .     S
Cu738  O752    1.963   .     S
Cu738  O748    1.961   .     S
Br755  C773    1.941   .     S
Br756  C770    1.925   .     S
Br757  C774    1.941   .     S
Br758  C778    1.939   .     S
Br759  C779    1.939   .     S
Br760  C786    1.928   .     S
Br761  C788    1.928   .     S
Br762  C767    1.924   .     S
Br763  C768    1.924   .     S
Br764  C769    1.925   .     S
C765   C766    1.449   .     S
C765   O808    1.301   .     A
C765   O805    1.301   .     A
C766   C793    1.401   .     A
C766   C790    1.401   .     A
C767   N804    1.376   .     A
C768   N803    1.376   .     A
C768   C943    1.425   .     S
C769   N804    1.376   .     A
C770   N803    1.376   .     A
C770   C941    1.425   .     S
C771   O809    1.300   .     A
C771   O812    1.300   .     A
C771   C777    1.450   .     S
C772   C775    1.450   .     S
C772   O811    1.300   .     A
C772   O810    1.300   .     A
C773   C775    1.398   .     A
C773   C784    1.402   .     A
C774   C777    1.398   .     A
C774   C785    1.402   .     A
C775   C778    1.404   .     A
C776   C794    1.449   .     S
C776   O807    1.301   .     A
C776   O806    1.301   .     A
C777   C779    1.404   .     A
C778   C780    1.416   .     A
C779   C781    1.416   .     A
C780   C786    1.419   .     A
C780   C782    1.428   .     A
C781   C783    1.428   .     A
C781   C788    1.419   .     A
C782   C784    1.415   .     A
C782   C261    1.418   1_556 S
C783   C785    1.415   .     A
C784   C789    1.398   .     A
C785   C787    1.398   .     A
C786   C265    1.387   1_556 S
C787   H797    1.081   .     S
C789   H798    1.080   .     S
C789   C266    1.387   1_556 S
C790   H799    1.083   .     S
C791   C794    1.401   .     A
C791   H800    1.083   .     S
C791   C851    1.382   .     S
C792   C794    1.401   .     A
C792   H801    1.083   .     S
C792   C848    1.382   .     S
C793   H802    1.083   .     S
Cu795  Cu796   2.712   .     S
Cu795  O811    1.963   .     S
Cu795  O807    1.961   .     S
Cu795  N803    2.038   .     S
Cu795  O809    1.963   .     S
Cu795  O805    1.961   .     S
Cu796  O812    1.963   .     S
Cu796  O808    1.961   .     S
Cu796  N804    2.038   .     S
Cu796  O810    1.963   .     S
Cu796  O806    1.961   .     S
Br813  C831    1.941   .     S
Br814  C828    1.925   .     S
Br815  C832    1.941   .     S
Br816  C836    1.939   .     S
Br817  C837    1.939   .     S
Br818  C844    1.928   .     S
Br819  C846    1.928   .     S
Br820  C825    1.924   .     S
Br821  C826    1.924   .     S
Br822  C827    1.925   .     S
C823   C824    1.449   .     S
C823   O866    1.301   .     A
C823   O863    1.301   .     A
C824   C851    1.401   .     A
C824   C848    1.401   .     A
C825   N862    1.376   .     A
C826   N861    1.376   .     A
C826   C1001   1.425   .     S
C827   N862    1.376   .     A
C828   N861    1.376   .     A
C828   C999    1.425   .     S
C829   O867    1.300   .     A
C829   O870    1.300   .     A
C829   C835    1.450   .     S
C830   C833    1.450   .     S
C830   O869    1.300   .     A
C830   O868    1.300   .     A
C831   C833    1.398   .     A
C831   C842    1.402   .     A
C832   C835    1.398   .     A
C832   C843    1.402   .     A
C833   C836    1.404   .     A
C834   C852    1.449   .     S
C834   O865    1.301   .     A
C834   O864    1.301   .     A
C835   C837    1.404   .     A
C836   C838    1.416   .     A
C837   C839    1.416   .     A
C838   C844    1.419   .     A
C838   C840    1.428   .     A
C839   C841    1.428   .     A
C839   C846    1.419   .     A
C840   C842    1.415   .     A
C840   C319    1.418   1_556 S
C841   C843    1.415   .     A
C842   C847    1.398   .     A
C843   C845    1.398   .     A
C844   C323    1.387   1_556 S
C845   H855    1.081   .     S
C847   H856    1.080   .     S
C847   C324    1.387   1_556 S
C848   H857    1.083   .     S
C849   C852    1.401   .     A
C849   H858    1.083   .     S
C849   C735    1.382   1_655 S
C850   C852    1.401   .     A
C850   H859    1.083   .     S
C850   C732    1.382   1_655 S
C851   H860    1.083   .     S
Cu853  Cu854   2.712   .     S
Cu853  O869    1.963   .     S
Cu853  O865    1.961   .     S
Cu853  N861    2.038   .     S
Cu853  O867    1.963   .     S
Cu853  O863    1.961   .     S
Cu854  O870    1.963   .     S
Cu854  O866    1.961   .     S
Cu854  N862    2.038   .     S
Cu854  O868    1.963   .     S
Cu854  O864    1.961   .     S
Br871  C889    1.941   .     S
Br872  C886    1.925   .     S
Br873  C890    1.941   .     S
Br874  C894    1.939   .     S
Br875  C895    1.939   .     S
Br876  C902    1.928   .     S
Br877  C904    1.928   .     S
Br878  C883    1.924   .     S
Br879  C884    1.924   .     S
Br880  C885    1.925   .     S
C881   C882    1.449   .     S
C881   O924    1.301   .     A
C881   O921    1.301   .     A
C882   C909    1.401   .     A
C882   C906    1.401   .     A
C883   N920    1.376   .     A
C884   N919    1.376   .     A
C884   C537    1.425   1_565 S
C885   N920    1.376   .     A
C886   N919    1.376   .     A
C886   C535    1.425   1_565 S
C887   O925    1.300   .     A
C887   O928    1.300   .     A
C887   C893    1.450   .     S
C888   C891    1.450   .     S
C888   O927    1.300   .     A
C888   O926    1.300   .     A
C889   C891    1.398   .     A
C889   C900    1.402   .     A
C890   C893    1.398   .     A
C890   C901    1.402   .     A
C891   C894    1.404   .     A
C892   C910    1.449   .     S
C892   O923    1.301   .     A
C892   O922    1.301   .     A
C893   C895    1.404   .     A
C894   C896    1.416   .     A
C895   C897    1.416   .     A
C896   C902    1.419   .     A
C896   C898    1.428   .     A
C897   C899    1.428   .     A
C897   C904    1.419   .     A
C898   C900    1.415   .     A
C898   C377    1.418   1_556 S
C899   C901    1.415   .     A
C900   C905    1.398   .     A
C901   C903    1.398   .     A
C902   C381    1.387   1_556 S
C903   H913    1.081   .     S
C905   H914    1.080   .     S
C905   C382    1.387   1_556 S
C906   H915    1.083   .     S
C906   C1024   1.382   1_455 S
C907   C910    1.401   .     A
C907   H916    1.083   .     S
C907   C967    1.382   .     S
C908   C910    1.401   .     A
C908   H917    1.083   .     S
C908   C964    1.382   .     S
C909   H918    1.083   .     S
C909   C1023   1.382   1_455 S
Cu911  Cu912   2.712   .     S
Cu911  O927    1.963   .     S
Cu911  O923    1.961   .     S
Cu911  N919    2.038   .     S
Cu911  O925    1.963   .     S
Cu911  O921    1.961   .     S
Cu912  O928    1.963   .     S
Cu912  O924    1.961   .     S
Cu912  N920    2.038   .     S
Cu912  O926    1.963   .     S
Cu912  O922    1.961   .     S
Br929  C947    1.941   .     S
Br930  C944    1.925   .     S
Br931  C948    1.941   .     S
Br932  C952    1.939   .     S
Br933  C953    1.939   .     S
Br934  C960    1.928   .     S
Br935  C962    1.928   .     S
Br936  C941    1.924   .     S
Br937  C942    1.924   .     S
Br938  C943    1.925   .     S
C939   C940    1.449   .     S
C939   O982    1.301   .     A
C939   O979    1.301   .     A
C940   C967    1.401   .     A
C940   C964    1.401   .     A
C941   N978    1.376   .     A
C942   N977    1.376   .     A
C942   C595    1.425   1_565 S
C943   N978    1.376   .     A
C944   N977    1.376   .     A
C944   C593    1.425   1_565 S
C945   O983    1.300   .     A
C945   O986    1.300   .     A
C945   C951    1.450   .     S
C946   C949    1.450   .     S
C946   O985    1.300   .     A
C946   O984    1.300   .     A
C947   C949    1.398   .     A
C947   C958    1.402   .     A
C948   C951    1.398   .     A
C948   C959    1.402   .     A
C949   C952    1.404   .     A
C950   C968    1.449   .     S
C950   O981    1.301   .     A
C950   O980    1.301   .     A
C951   C953    1.404   .     A
C952   C954    1.416   .     A
C953   C955    1.416   .     A
C954   C960    1.419   .     A
C954   C956    1.428   .     A
C955   C957    1.428   .     A
C955   C962    1.419   .     A
C956   C958    1.415   .     A
C956   C435    1.418   1_556 S
C957   C959    1.415   .     A
C958   C963    1.398   .     A
C959   C961    1.398   .     A
C960   C439    1.387   1_556 S
C961   H971    1.081   .     S
C963   H972    1.080   .     S
C963   C440    1.387   1_556 S
C964   H973    1.083   .     S
C965   C968    1.401   .     A
C965   H974    1.083   .     S
C965   C1025   1.382   .     S
C966   C968    1.401   .     A
C966   H975    1.083   .     S
C966   C1022   1.382   .     S
C967   H976    1.083   .     S
Cu969  Cu970   2.712   .     S
Cu969  O985    1.963   .     S
Cu969  O981    1.961   .     S
Cu969  N977    2.038   .     S
Cu969  O983    1.963   .     S
Cu969  O979    1.961   .     S
Cu970  O986    1.963   .     S
Cu970  O982    1.961   .     S
Cu970  N978    2.038   .     S
Cu970  O984    1.963   .     S
Cu970  O980    1.961   .     S
Br987  C1005   1.941   .     S
Br988  C1002   1.925   .     S
Br989  C1006   1.941   .     S
Br990  C1010   1.939   .     S
Br991  C1011   1.939   .     S
Br992  C1018   1.928   .     S
Br993  C1020   1.928   .     S
Br994  C999    1.924   .     S
Br995  C1000   1.924   .     S
Br996  C1001   1.925   .     S
C997   C998    1.449   .     S
C997   O1040   1.301   .     A
C997   O1037   1.301   .     A
C998   C1025   1.401   .     A
C998   C1022   1.401   .     A
C999   N1036   1.376   .     A
C1000  N1035   1.376   .     A
C1000  C653    1.425   1_565 S
C1001  N1036   1.376   .     A
C1002  N1035   1.376   .     A
C1002  C651    1.425   1_565 S
C1003  O1041   1.300   .     A
C1003  O1044   1.300   .     A
C1003  C1009   1.450   .     S
C1004  C1007   1.450   .     S
C1004  O1043   1.300   .     A
C1004  O1042   1.300   .     A
C1005  C1007   1.398   .     A
C1005  C1016   1.402   .     A
C1006  C1009   1.398   .     A
C1006  C1017   1.402   .     A
C1007  C1010   1.404   .     A
C1008  C1026   1.449   .     S
C1008  O1039   1.301   .     A
C1008  O1038   1.301   .     A
C1009  C1011   1.404   .     A
C1010  C1012   1.416   .     A
C1011  C1013   1.416   .     A
C1012  C1018   1.419   .     A
C1012  C1014   1.428   .     A
C1013  C1015   1.428   .     A
C1013  C1020   1.419   .     A
C1014  C1016   1.415   .     A
C1014  C493    1.418   1_556 S
C1015  C1017   1.415   .     A
C1016  C1021   1.398   .     A
C1017  C1019   1.398   .     A
C1018  C497    1.387   1_556 S
C1019  H1029   1.081   .     S
C1021  H1030   1.080   .     S
C1021  C498    1.387   1_556 S
C1022  H1031   1.083   .     S
C1023  C1026   1.401   .     A
C1023  H1032   1.083   .     S
C1023  C909    1.382   1_655 S
C1024  C1026   1.401   .     A
C1024  H1033   1.083   .     S
C1024  C906    1.382   1_655 S
C1025  H1034   1.083   .     S
Cu1027 Cu1028  2.712   .     S
Cu1027 O1043   1.963   .     S
Cu1027 O1039   1.961   .     S
Cu1027 N1035   2.038   .     S
Cu1027 O1041   1.963   .     S
Cu1027 O1037   1.961   .     S
Cu1028 O1044   1.963   .     S
Cu1028 O1040   1.961   .     S
Cu1028 N1036   2.038   .     S
Cu1028 O1042   1.963   .     S
Cu1028 O1038   1.961   .     S
