data_str_m2_o10_o16_pcu_sym.60
_audit_creation_date              2020-01-03
_audit_creation_method            'Materials Studio'
_symmetry_space_group_name_H-M    'P1'
_symmetry_Int_Tables_number       1
_symmetry_cell_setting            triclinic
loop_
_symmetry_equiv_pos_as_xyz
  x,y,z
_cell_length_a                    22.2725
_cell_length_b                    26.0833
_cell_length_c                    26.8091
_cell_angle_alpha                 94.0244
_cell_angle_beta                  77.1139
_cell_angle_gamma                 103.1697
loop_
_atom_site_label
_atom_site_type_symbol
_atom_site_fract_x
_atom_site_fract_y
_atom_site_fract_z
_atom_site_U_iso_or_equiv
_atom_site_adp_type
_atom_site_occupancy
C1     C     0.18175   0.26674   0.25159   0.00000  Uiso   1.00
C2     C     0.11081   0.16314   0.40411   0.00000  Uiso   1.00
C3     C     0.19024   0.32270   0.25244   0.00000  Uiso   1.00
C4     C     0.13267   0.16515   0.34748   0.00000  Uiso   1.00
C5     C     0.14298   0.01064   0.24790   0.00000  Uiso   1.00
C6     C     0.15152   0.06659   0.24856   0.00000  Uiso   1.00
C7     C     0.20073   0.17029   0.15289   0.00000  Uiso   1.00
C8     C     0.29307   0.22584   0.02599   0.00000  Uiso   1.00
C9     C     0.22138   0.17847   0.09765   0.00000  Uiso   1.00
C10    C     0.04846   0.13660   0.42660   0.00000  Uiso   1.00
C11    C     0.03204   0.12672   0.47872   0.00000  Uiso   1.00
C12    C     0.13914   0.16708   0.48818   0.00000  Uiso   1.00
C13    C     0.07660   0.14047   0.00888   0.00000  Uiso   1.00
C14    C     0.33323   0.11790   0.39766   0.00000  Uiso   1.00
C15    C     0.15435   0.18277   0.43642   0.00000  Uiso   1.00
C16    C     0.18667   0.17981   0.01766   0.00000  Uiso   1.00
C17    C     0.24627   0.21224   0.49690   0.00000  Uiso   1.00
C18    C     0.25778   0.23219   0.44804   0.00000  Uiso   1.00
C19    C     0.21227   0.21851   0.41865   0.00000  Uiso   1.00
C20    C     0.17665   0.16152   0.06745   0.00000  Uiso   1.00
C21    C     0.28048   0.20942   0.07638   0.00000  Uiso   1.00
Cu22   Cu    0.10710   0.16105   0.24436   0.00000  Uiso   1.00
Cu23   Cu    0.22623   0.17228   0.25565   0.00000  Uiso   1.00
H24    H     0.31566   0.22285   0.09929   0.00000  Uiso   1.00
H25    H     0.22267   0.23780   0.38239   0.00000  Uiso   1.00
H26    H     0.23578   0.01318   0.25676   0.00000  Uiso   1.00
H27    H     0.09743   0.32016   0.24360   0.00000  Uiso   1.00
H28    H     0.00354   0.20573   0.28977   0.00000  Uiso   1.00
H29    H     0.32975   0.12753   0.21031   0.00000  Uiso   1.00
H30    H     0.30209   0.25883   0.43252   0.00000  Uiso   1.00
H31    H     0.00534   0.25060   0.01027   0.00000  Uiso   1.00
H32    H     0.13358   0.13480   0.08447   0.00000  Uiso   1.00
H33    H     0.05967   0.13114   0.04878   0.00000  Uiso   1.00
H34    H     0.31767   0.10697   0.49624   0.00000  Uiso   1.00
N35    N     0.31574   0.18074   0.26416   0.00000  Uiso   1.00
N36    N     0.01759   0.15259   0.23584   0.00000  Uiso   1.00
N37    N     0.29413   0.10293   0.37470   0.00000  Uiso   1.00
O38    O     0.12797   0.23807   0.24633   0.00000  Uiso   1.00
O39    O     0.22858   0.24755   0.25587   0.00000  Uiso   1.00
O40    O     0.09181   0.15960   0.31840   0.00000  Uiso   1.00
O41    O     0.19242   0.16908   0.32793   0.00000  Uiso   1.00
O42    O     0.10476   0.08578   0.24414   0.00000  Uiso   1.00
O43    O     0.20536   0.09526   0.25367   0.00000  Uiso   1.00
O44    O     0.14092   0.16425   0.17207   0.00000  Uiso   1.00
O45    O     0.24152   0.17373   0.18161   0.00000  Uiso   1.00
C46    C     0.51509   0.26674   0.25159   0.00000  Uiso   1.00
C47    C     0.44415   0.16314   0.40411   0.00000  Uiso   1.00
C48    C     0.52357   0.32270   0.25244   0.00000  Uiso   1.00
C49    C     0.46600   0.16515   0.34748   0.00000  Uiso   1.00
C50    C     0.47631   0.01064   0.24790   0.00000  Uiso   1.00
C51    C     0.48486   0.06659   0.24856   0.00000  Uiso   1.00
C52    C     0.53406   0.17029   0.15289   0.00000  Uiso   1.00
C53    C     0.62640   0.22584   0.02599   0.00000  Uiso   1.00
C54    C     0.55472   0.17847   0.09765   0.00000  Uiso   1.00
C55    C     0.38180   0.13660   0.42660   0.00000  Uiso   1.00
C56    C     0.36538   0.12672   0.47872   0.00000  Uiso   1.00
C57    C     0.47247   0.16708   0.48818   0.00000  Uiso   1.00
C58    C     0.40993   0.14047   0.00888   0.00000  Uiso   1.00
C59    C     0.66656   0.11790   0.39766   0.00000  Uiso   1.00
C60    C     0.48768   0.18277   0.43642   0.00000  Uiso   1.00
C61    C     0.52001   0.17981   0.01766   0.00000  Uiso   1.00
C62    C     0.57961   0.21224   0.49690   0.00000  Uiso   1.00
C63    C     0.59111   0.23219   0.44804   0.00000  Uiso   1.00
C64    C     0.54561   0.21851   0.41865   0.00000  Uiso   1.00
C65    C     0.50999   0.16152   0.06745   0.00000  Uiso   1.00
C66    C     0.61381   0.20942   0.07638   0.00000  Uiso   1.00
Cu67   Cu    0.44043   0.16105   0.24436   0.00000  Uiso   1.00
Cu68   Cu    0.55957   0.17228   0.25565   0.00000  Uiso   1.00
H69    H     0.64899   0.22285   0.09929   0.00000  Uiso   1.00
H70    H     0.55600   0.23780   0.38239   0.00000  Uiso   1.00
H71    H     0.56911   0.01318   0.25676   0.00000  Uiso   1.00
H72    H     0.43076   0.32016   0.24360   0.00000  Uiso   1.00
H73    H     0.33687   0.20573   0.28977   0.00000  Uiso   1.00
H74    H     0.66308   0.12753   0.21031   0.00000  Uiso   1.00
H75    H     0.63542   0.25883   0.43252   0.00000  Uiso   1.00
H76    H     0.33867   0.25060   0.01027   0.00000  Uiso   1.00
H77    H     0.46691   0.13480   0.08447   0.00000  Uiso   1.00
H78    H     0.39300   0.13114   0.04878   0.00000  Uiso   1.00
H79    H     0.65100   0.10697   0.49624   0.00000  Uiso   1.00
N80    N     0.64908   0.18074   0.26416   0.00000  Uiso   1.00
N81    N     0.35092   0.15259   0.23584   0.00000  Uiso   1.00
N82    N     0.62746   0.10293   0.37470   0.00000  Uiso   1.00
O83    O     0.46131   0.23807   0.24633   0.00000  Uiso   1.00
O84    O     0.56191   0.24755   0.25587   0.00000  Uiso   1.00
O85    O     0.42515   0.15960   0.31840   0.00000  Uiso   1.00
O86    O     0.52575   0.16908   0.32793   0.00000  Uiso   1.00
O87    O     0.43809   0.08578   0.24414   0.00000  Uiso   1.00
O88    O     0.53869   0.09526   0.25367   0.00000  Uiso   1.00
O89    O     0.47425   0.16425   0.17207   0.00000  Uiso   1.00
O90    O     0.57485   0.17373   0.18161   0.00000  Uiso   1.00
C91    C     0.84842   0.26674   0.25159   0.00000  Uiso   1.00
C92    C     0.77748   0.16314   0.40411   0.00000  Uiso   1.00
C93    C     0.85690   0.32270   0.25244   0.00000  Uiso   1.00
C94    C     0.79934   0.16515   0.34748   0.00000  Uiso   1.00
C95    C     0.80964   0.01064   0.24790   0.00000  Uiso   1.00
C96    C     0.81819   0.06659   0.24856   0.00000  Uiso   1.00
C97    C     0.86739   0.17029   0.15289   0.00000  Uiso   1.00
C98    C     0.95974   0.22584   0.02599   0.00000  Uiso   1.00
C99    C     0.88805   0.17847   0.09765   0.00000  Uiso   1.00
C100   C     0.71513   0.13660   0.42660   0.00000  Uiso   1.00
C101   C     0.69871   0.12672   0.47872   0.00000  Uiso   1.00
C102   C     0.80581   0.16708   0.48818   0.00000  Uiso   1.00
C103   C     0.74327   0.14047   0.00888   0.00000  Uiso   1.00
C104   C     0.99989   0.11790   0.39766   0.00000  Uiso   1.00
C105   C     0.82101   0.18277   0.43642   0.00000  Uiso   1.00
C106   C     0.85334   0.17981   0.01766   0.00000  Uiso   1.00
C107   C     0.91294   0.21224   0.49690   0.00000  Uiso   1.00
C108   C     0.92444   0.23219   0.44804   0.00000  Uiso   1.00
C109   C     0.87894   0.21851   0.41865   0.00000  Uiso   1.00
C110   C     0.84332   0.16152   0.06745   0.00000  Uiso   1.00
C111   C     0.94714   0.20942   0.07638   0.00000  Uiso   1.00
Cu112  Cu    0.77377   0.16105   0.24436   0.00000  Uiso   1.00
Cu113  Cu    0.89290   0.17228   0.25565   0.00000  Uiso   1.00
H114   H     0.98232   0.22285   0.09929   0.00000  Uiso   1.00
H115   H     0.88933   0.23780   0.38239   0.00000  Uiso   1.00
H116   H     0.90244   0.01318   0.25676   0.00000  Uiso   1.00
H117   H     0.76409   0.32016   0.24360   0.00000  Uiso   1.00
H118   H     0.67021   0.20573   0.28977   0.00000  Uiso   1.00
H119   H     0.99641   0.12753   0.21031   0.00000  Uiso   1.00
H120   H     0.96876   0.25883   0.43252   0.00000  Uiso   1.00
H121   H     0.67201   0.25060   0.01027   0.00000  Uiso   1.00
H122   H     0.80025   0.13480   0.08447   0.00000  Uiso   1.00
H123   H     0.72634   0.13114   0.04878   0.00000  Uiso   1.00
H124   H     0.98434   0.10697   0.49624   0.00000  Uiso   1.00
N125   N     0.98241   0.18074   0.26416   0.00000  Uiso   1.00
N126   N     0.68426   0.15259   0.23584   0.00000  Uiso   1.00
N127   N     0.96079   0.10293   0.37470   0.00000  Uiso   1.00
O128   O     0.79464   0.23807   0.24633   0.00000  Uiso   1.00
O129   O     0.89524   0.24755   0.25587   0.00000  Uiso   1.00
O130   O     0.75848   0.15960   0.31840   0.00000  Uiso   1.00
O131   O     0.85908   0.16908   0.32793   0.00000  Uiso   1.00
O132   O     0.77142   0.08578   0.24414   0.00000  Uiso   1.00
O133   O     0.87203   0.09526   0.25367   0.00000  Uiso   1.00
O134   O     0.80758   0.16425   0.17207   0.00000  Uiso   1.00
O135   O     0.90819   0.17373   0.18161   0.00000  Uiso   1.00
C136   C     0.18175   0.60007   0.25159   0.00000  Uiso   1.00
C137   C     0.11081   0.49647   0.40411   0.00000  Uiso   1.00
C138   C     0.19024   0.65603   0.25244   0.00000  Uiso   1.00
C139   C     0.13267   0.49848   0.34748   0.00000  Uiso   1.00
C140   C     0.14298   0.34397   0.24790   0.00000  Uiso   1.00
C141   C     0.15152   0.39993   0.24856   0.00000  Uiso   1.00
C142   C     0.20073   0.50363   0.15289   0.00000  Uiso   1.00
C143   C     0.29307   0.55918   0.02599   0.00000  Uiso   1.00
C144   C     0.22138   0.51180   0.09765   0.00000  Uiso   1.00
C145   C     0.04846   0.46993   0.42660   0.00000  Uiso   1.00
C146   C     0.03204   0.46006   0.47872   0.00000  Uiso   1.00
C147   C     0.13914   0.50042   0.48818   0.00000  Uiso   1.00
C148   C     0.07660   0.47380   0.00888   0.00000  Uiso   1.00
C149   C     0.33323   0.45124   0.39766   0.00000  Uiso   1.00
C150   C     0.15435   0.51611   0.43642   0.00000  Uiso   1.00
C151   C     0.18667   0.51315   0.01766   0.00000  Uiso   1.00
C152   C     0.24627   0.54558   0.49690   0.00000  Uiso   1.00
C153   C     0.25778   0.56552   0.44804   0.00000  Uiso   1.00
C154   C     0.21227   0.55184   0.41865   0.00000  Uiso   1.00
C155   C     0.17665   0.49485   0.06745   0.00000  Uiso   1.00
C156   C     0.28048   0.54275   0.07638   0.00000  Uiso   1.00
Cu157  Cu    0.10710   0.49439   0.24436   0.00000  Uiso   1.00
Cu158  Cu    0.22623   0.50561   0.25565   0.00000  Uiso   1.00
H159   H     0.31566   0.55619   0.09929   0.00000  Uiso   1.00
H160   H     0.22267   0.57113   0.38239   0.00000  Uiso   1.00
H161   H     0.23578   0.34651   0.25676   0.00000  Uiso   1.00
H162   H     0.09743   0.65349   0.24360   0.00000  Uiso   1.00
H163   H     0.00354   0.53907   0.28977   0.00000  Uiso   1.00
H164   H     0.32975   0.46087   0.21031   0.00000  Uiso   1.00
H165   H     0.30209   0.59217   0.43252   0.00000  Uiso   1.00
H166   H     0.00534   0.58393   0.01027   0.00000  Uiso   1.00
H167   H     0.13358   0.46813   0.08447   0.00000  Uiso   1.00
H168   H     0.05967   0.46448   0.04878   0.00000  Uiso   1.00
H169   H     0.31767   0.44031   0.49624   0.00000  Uiso   1.00
N170   N     0.31574   0.51407   0.26416   0.00000  Uiso   1.00
N171   N     0.01759   0.48593   0.23584   0.00000  Uiso   1.00
N172   N     0.29413   0.43626   0.37470   0.00000  Uiso   1.00
O173   O     0.12797   0.57141   0.24633   0.00000  Uiso   1.00
O174   O     0.22858   0.58089   0.25587   0.00000  Uiso   1.00
O175   O     0.09181   0.49293   0.31840   0.00000  Uiso   1.00
O176   O     0.19242   0.50241   0.32793   0.00000  Uiso   1.00
O177   O     0.10476   0.41911   0.24414   0.00000  Uiso   1.00
O178   O     0.20536   0.42859   0.25367   0.00000  Uiso   1.00
O179   O     0.14092   0.49759   0.17207   0.00000  Uiso   1.00
O180   O     0.24152   0.50707   0.18161   0.00000  Uiso   1.00
C181   C     0.51509   0.60007   0.25159   0.00000  Uiso   1.00
C182   C     0.44415   0.49647   0.40411   0.00000  Uiso   1.00
C183   C     0.52357   0.65603   0.25244   0.00000  Uiso   1.00
C184   C     0.46600   0.49848   0.34748   0.00000  Uiso   1.00
C185   C     0.47631   0.34397   0.24790   0.00000  Uiso   1.00
C186   C     0.48486   0.39993   0.24856   0.00000  Uiso   1.00
C187   C     0.53406   0.50363   0.15289   0.00000  Uiso   1.00
C188   C     0.62640   0.55918   0.02599   0.00000  Uiso   1.00
C189   C     0.55472   0.51180   0.09765   0.00000  Uiso   1.00
C190   C     0.38180   0.46993   0.42660   0.00000  Uiso   1.00
C191   C     0.36538   0.46006   0.47872   0.00000  Uiso   1.00
C192   C     0.47247   0.50042   0.48818   0.00000  Uiso   1.00
C193   C     0.40993   0.47380   0.00888   0.00000  Uiso   1.00
C194   C     0.66656   0.45124   0.39766   0.00000  Uiso   1.00
C195   C     0.48768   0.51611   0.43642   0.00000  Uiso   1.00
C196   C     0.52001   0.51315   0.01766   0.00000  Uiso   1.00
C197   C     0.57961   0.54558   0.49690   0.00000  Uiso   1.00
C198   C     0.59111   0.56552   0.44804   0.00000  Uiso   1.00
C199   C     0.54561   0.55184   0.41865   0.00000  Uiso   1.00
C200   C     0.50999   0.49485   0.06745   0.00000  Uiso   1.00
C201   C     0.61381   0.54275   0.07638   0.00000  Uiso   1.00
Cu202  Cu    0.44043   0.49439   0.24436   0.00000  Uiso   1.00
Cu203  Cu    0.55957   0.50561   0.25565   0.00000  Uiso   1.00
H204   H     0.64899   0.55619   0.09929   0.00000  Uiso   1.00
H205   H     0.55600   0.57113   0.38239   0.00000  Uiso   1.00
H206   H     0.56911   0.34651   0.25676   0.00000  Uiso   1.00
H207   H     0.43076   0.65349   0.24360   0.00000  Uiso   1.00
H208   H     0.33687   0.53907   0.28977   0.00000  Uiso   1.00
H209   H     0.66308   0.46087   0.21031   0.00000  Uiso   1.00
H210   H     0.63542   0.59217   0.43252   0.00000  Uiso   1.00
H211   H     0.33867   0.58393   0.01027   0.00000  Uiso   1.00
H212   H     0.46691   0.46813   0.08447   0.00000  Uiso   1.00
H213   H     0.39300   0.46448   0.04878   0.00000  Uiso   1.00
H214   H     0.65100   0.44031   0.49624   0.00000  Uiso   1.00
N215   N     0.64908   0.51407   0.26416   0.00000  Uiso   1.00
N216   N     0.35092   0.48593   0.23584   0.00000  Uiso   1.00
N217   N     0.62746   0.43626   0.37470   0.00000  Uiso   1.00
O218   O     0.46131   0.57141   0.24633   0.00000  Uiso   1.00
O219   O     0.56191   0.58089   0.25587   0.00000  Uiso   1.00
O220   O     0.42515   0.49293   0.31840   0.00000  Uiso   1.00
O221   O     0.52575   0.50241   0.32793   0.00000  Uiso   1.00
O222   O     0.43809   0.41911   0.24414   0.00000  Uiso   1.00
O223   O     0.53869   0.42859   0.25367   0.00000  Uiso   1.00
O224   O     0.47425   0.49759   0.17207   0.00000  Uiso   1.00
O225   O     0.57485   0.50707   0.18161   0.00000  Uiso   1.00
C226   C     0.84842   0.60007   0.25159   0.00000  Uiso   1.00
C227   C     0.77748   0.49647   0.40411   0.00000  Uiso   1.00
C228   C     0.85690   0.65603   0.25244   0.00000  Uiso   1.00
C229   C     0.79934   0.49848   0.34748   0.00000  Uiso   1.00
C230   C     0.80964   0.34397   0.24790   0.00000  Uiso   1.00
C231   C     0.81819   0.39993   0.24856   0.00000  Uiso   1.00
C232   C     0.86739   0.50363   0.15289   0.00000  Uiso   1.00
C233   C     0.95974   0.55918   0.02599   0.00000  Uiso   1.00
C234   C     0.88805   0.51180   0.09765   0.00000  Uiso   1.00
C235   C     0.71513   0.46993   0.42660   0.00000  Uiso   1.00
C236   C     0.69871   0.46006   0.47872   0.00000  Uiso   1.00
C237   C     0.80581   0.50042   0.48818   0.00000  Uiso   1.00
C238   C     0.74327   0.47380   0.00888   0.00000  Uiso   1.00
C239   C     0.99989   0.45124   0.39766   0.00000  Uiso   1.00
C240   C     0.82101   0.51611   0.43642   0.00000  Uiso   1.00
C241   C     0.85334   0.51315   0.01766   0.00000  Uiso   1.00
C242   C     0.91294   0.54558   0.49690   0.00000  Uiso   1.00
C243   C     0.92444   0.56552   0.44804   0.00000  Uiso   1.00
C244   C     0.87894   0.55184   0.41865   0.00000  Uiso   1.00
C245   C     0.84332   0.49485   0.06745   0.00000  Uiso   1.00
C246   C     0.94714   0.54275   0.07638   0.00000  Uiso   1.00
Cu247  Cu    0.77377   0.49439   0.24436   0.00000  Uiso   1.00
Cu248  Cu    0.89290   0.50561   0.25565   0.00000  Uiso   1.00
H249   H     0.98232   0.55619   0.09929   0.00000  Uiso   1.00
H250   H     0.88933   0.57113   0.38239   0.00000  Uiso   1.00
H251   H     0.90244   0.34651   0.25676   0.00000  Uiso   1.00
H252   H     0.76409   0.65349   0.24360   0.00000  Uiso   1.00
H253   H     0.67021   0.53907   0.28977   0.00000  Uiso   1.00
H254   H     0.99641   0.46087   0.21031   0.00000  Uiso   1.00
H255   H     0.96876   0.59217   0.43252   0.00000  Uiso   1.00
H256   H     0.67201   0.58393   0.01027   0.00000  Uiso   1.00
H257   H     0.80025   0.46813   0.08447   0.00000  Uiso   1.00
H258   H     0.72634   0.46448   0.04878   0.00000  Uiso   1.00
H259   H     0.98434   0.44031   0.49624   0.00000  Uiso   1.00
N260   N     0.98241   0.51407   0.26416   0.00000  Uiso   1.00
N261   N     0.68426   0.48593   0.23584   0.00000  Uiso   1.00
N262   N     0.96079   0.43626   0.37470   0.00000  Uiso   1.00
O263   O     0.79464   0.57141   0.24633   0.00000  Uiso   1.00
O264   O     0.89524   0.58089   0.25587   0.00000  Uiso   1.00
O265   O     0.75848   0.49293   0.31840   0.00000  Uiso   1.00
O266   O     0.85908   0.50241   0.32793   0.00000  Uiso   1.00
O267   O     0.77142   0.41911   0.24414   0.00000  Uiso   1.00
O268   O     0.87203   0.42859   0.25367   0.00000  Uiso   1.00
O269   O     0.80758   0.49759   0.17207   0.00000  Uiso   1.00
O270   O     0.90819   0.50707   0.18161   0.00000  Uiso   1.00
C271   C     0.18175   0.93341   0.25159   0.00000  Uiso   1.00
C272   C     0.11081   0.82981   0.40411   0.00000  Uiso   1.00
C273   C     0.19024   0.98937   0.25244   0.00000  Uiso   1.00
C274   C     0.13267   0.83181   0.34748   0.00000  Uiso   1.00
C275   C     0.14298   0.67730   0.24790   0.00000  Uiso   1.00
C276   C     0.15152   0.73326   0.24856   0.00000  Uiso   1.00
C277   C     0.20073   0.83696   0.15289   0.00000  Uiso   1.00
C278   C     0.29307   0.89251   0.02599   0.00000  Uiso   1.00
C279   C     0.22138   0.84513   0.09765   0.00000  Uiso   1.00
C280   C     0.04846   0.80327   0.42660   0.00000  Uiso   1.00
C281   C     0.03204   0.79339   0.47872   0.00000  Uiso   1.00
C282   C     0.13914   0.83375   0.48818   0.00000  Uiso   1.00
C283   C     0.07660   0.80714   0.00888   0.00000  Uiso   1.00
C284   C     0.33323   0.78457   0.39766   0.00000  Uiso   1.00
C285   C     0.15435   0.84944   0.43642   0.00000  Uiso   1.00
C286   C     0.18667   0.84648   0.01766   0.00000  Uiso   1.00
C287   C     0.24627   0.87891   0.49690   0.00000  Uiso   1.00
C288   C     0.25778   0.89885   0.44804   0.00000  Uiso   1.00
C289   C     0.21227   0.88518   0.41865   0.00000  Uiso   1.00
C290   C     0.17665   0.82818   0.06745   0.00000  Uiso   1.00
C291   C     0.28048   0.87609   0.07638   0.00000  Uiso   1.00
Cu292  Cu    0.10710   0.82772   0.24436   0.00000  Uiso   1.00
Cu293  Cu    0.22623   0.83895   0.25565   0.00000  Uiso   1.00
H294   H     0.31566   0.88952   0.09929   0.00000  Uiso   1.00
H295   H     0.22267   0.90446   0.38239   0.00000  Uiso   1.00
H296   H     0.23578   0.67984   0.25676   0.00000  Uiso   1.00
H297   H     0.09743   0.98682   0.24360   0.00000  Uiso   1.00
H298   H     0.00354   0.87240   0.28977   0.00000  Uiso   1.00
H299   H     0.32975   0.79420   0.21031   0.00000  Uiso   1.00
H300   H     0.30209   0.92550   0.43252   0.00000  Uiso   1.00
H301   H     0.00534   0.91726   0.01027   0.00000  Uiso   1.00
H302   H     0.13358   0.80147   0.08447   0.00000  Uiso   1.00
H303   H     0.05967   0.79781   0.04878   0.00000  Uiso   1.00
H304   H     0.31767   0.77364   0.49624   0.00000  Uiso   1.00
N305   N     0.31574   0.84741   0.26416   0.00000  Uiso   1.00
N306   N     0.01759   0.81926   0.23584   0.00000  Uiso   1.00
N307   N     0.29413   0.76959   0.37470   0.00000  Uiso   1.00
O308   O     0.12797   0.90474   0.24633   0.00000  Uiso   1.00
O309   O     0.22858   0.91422   0.25587   0.00000  Uiso   1.00
O310   O     0.09181   0.82627   0.31840   0.00000  Uiso   1.00
O311   O     0.19242   0.83575   0.32793   0.00000  Uiso   1.00
O312   O     0.10476   0.75245   0.24414   0.00000  Uiso   1.00
O313   O     0.20536   0.76193   0.25367   0.00000  Uiso   1.00
O314   O     0.14092   0.83092   0.17207   0.00000  Uiso   1.00
O315   O     0.24152   0.84040   0.18161   0.00000  Uiso   1.00
C316   C     0.51509   0.93341   0.25159   0.00000  Uiso   1.00
C317   C     0.44415   0.82981   0.40411   0.00000  Uiso   1.00
C318   C     0.52357   0.98937   0.25244   0.00000  Uiso   1.00
C319   C     0.46600   0.83181   0.34748   0.00000  Uiso   1.00
C320   C     0.47631   0.67730   0.24790   0.00000  Uiso   1.00
C321   C     0.48486   0.73326   0.24856   0.00000  Uiso   1.00
C322   C     0.53406   0.83696   0.15289   0.00000  Uiso   1.00
C323   C     0.62640   0.89251   0.02599   0.00000  Uiso   1.00
C324   C     0.55472   0.84513   0.09765   0.00000  Uiso   1.00
C325   C     0.38180   0.80327   0.42660   0.00000  Uiso   1.00
C326   C     0.36538   0.79339   0.47872   0.00000  Uiso   1.00
C327   C     0.47247   0.83375   0.48818   0.00000  Uiso   1.00
C328   C     0.40993   0.80714   0.00888   0.00000  Uiso   1.00
C329   C     0.66656   0.78457   0.39766   0.00000  Uiso   1.00
C330   C     0.48768   0.84944   0.43642   0.00000  Uiso   1.00
C331   C     0.52001   0.84648   0.01766   0.00000  Uiso   1.00
C332   C     0.57961   0.87891   0.49690   0.00000  Uiso   1.00
C333   C     0.59111   0.89885   0.44804   0.00000  Uiso   1.00
C334   C     0.54561   0.88518   0.41865   0.00000  Uiso   1.00
C335   C     0.50999   0.82818   0.06745   0.00000  Uiso   1.00
C336   C     0.61381   0.87609   0.07638   0.00000  Uiso   1.00
Cu337  Cu    0.44043   0.82772   0.24436   0.00000  Uiso   1.00
Cu338  Cu    0.55957   0.83895   0.25565   0.00000  Uiso   1.00
H339   H     0.64899   0.88952   0.09929   0.00000  Uiso   1.00
H340   H     0.55600   0.90446   0.38239   0.00000  Uiso   1.00
H341   H     0.56911   0.67984   0.25676   0.00000  Uiso   1.00
H342   H     0.43076   0.98682   0.24360   0.00000  Uiso   1.00
H343   H     0.33687   0.87240   0.28977   0.00000  Uiso   1.00
H344   H     0.66308   0.79420   0.21031   0.00000  Uiso   1.00
H345   H     0.63542   0.92550   0.43252   0.00000  Uiso   1.00
H346   H     0.33867   0.91726   0.01027   0.00000  Uiso   1.00
H347   H     0.46691   0.80147   0.08447   0.00000  Uiso   1.00
H348   H     0.39300   0.79781   0.04878   0.00000  Uiso   1.00
H349   H     0.65100   0.77364   0.49624   0.00000  Uiso   1.00
N350   N     0.64908   0.84741   0.26416   0.00000  Uiso   1.00
N351   N     0.35092   0.81926   0.23584   0.00000  Uiso   1.00
N352   N     0.62746   0.76959   0.37470   0.00000  Uiso   1.00
O353   O     0.46131   0.90474   0.24633   0.00000  Uiso   1.00
O354   O     0.56191   0.91422   0.25587   0.00000  Uiso   1.00
O355   O     0.42515   0.82627   0.31840   0.00000  Uiso   1.00
O356   O     0.52575   0.83575   0.32793   0.00000  Uiso   1.00
O357   O     0.43809   0.75245   0.24414   0.00000  Uiso   1.00
O358   O     0.53869   0.76193   0.25367   0.00000  Uiso   1.00
O359   O     0.47425   0.83092   0.17207   0.00000  Uiso   1.00
O360   O     0.57485   0.84040   0.18161   0.00000  Uiso   1.00
C361   C     0.84842   0.93341   0.25159   0.00000  Uiso   1.00
C362   C     0.77748   0.82981   0.40411   0.00000  Uiso   1.00
C363   C     0.85690   0.98937   0.25244   0.00000  Uiso   1.00
C364   C     0.79934   0.83181   0.34748   0.00000  Uiso   1.00
C365   C     0.80964   0.67730   0.24790   0.00000  Uiso   1.00
C366   C     0.81819   0.73326   0.24856   0.00000  Uiso   1.00
C367   C     0.86739   0.83696   0.15289   0.00000  Uiso   1.00
C368   C     0.95974   0.89251   0.02599   0.00000  Uiso   1.00
C369   C     0.88805   0.84513   0.09765   0.00000  Uiso   1.00
C370   C     0.71513   0.80327   0.42660   0.00000  Uiso   1.00
C371   C     0.69871   0.79339   0.47872   0.00000  Uiso   1.00
C372   C     0.80581   0.83375   0.48818   0.00000  Uiso   1.00
C373   C     0.74327   0.80714   0.00888   0.00000  Uiso   1.00
C374   C     0.99989   0.78457   0.39766   0.00000  Uiso   1.00
C375   C     0.82101   0.84944   0.43642   0.00000  Uiso   1.00
C376   C     0.85334   0.84648   0.01766   0.00000  Uiso   1.00
C377   C     0.91294   0.87891   0.49690   0.00000  Uiso   1.00
C378   C     0.92444   0.89885   0.44804   0.00000  Uiso   1.00
C379   C     0.87894   0.88518   0.41865   0.00000  Uiso   1.00
C380   C     0.84332   0.82818   0.06745   0.00000  Uiso   1.00
C381   C     0.94714   0.87609   0.07638   0.00000  Uiso   1.00
Cu382  Cu    0.77377   0.82772   0.24436   0.00000  Uiso   1.00
Cu383  Cu    0.89290   0.83895   0.25565   0.00000  Uiso   1.00
H384   H     0.98232   0.88952   0.09929   0.00000  Uiso   1.00
H385   H     0.88933   0.90446   0.38239   0.00000  Uiso   1.00
H386   H     0.90244   0.67984   0.25676   0.00000  Uiso   1.00
H387   H     0.76409   0.98682   0.24360   0.00000  Uiso   1.00
H388   H     0.67021   0.87240   0.28977   0.00000  Uiso   1.00
H389   H     0.99641   0.79420   0.21031   0.00000  Uiso   1.00
H390   H     0.96876   0.92550   0.43252   0.00000  Uiso   1.00
H391   H     0.67201   0.91726   0.01027   0.00000  Uiso   1.00
H392   H     0.80025   0.80147   0.08447   0.00000  Uiso   1.00
H393   H     0.72634   0.79781   0.04878   0.00000  Uiso   1.00
H394   H     0.98434   0.77364   0.49624   0.00000  Uiso   1.00
N395   N     0.98241   0.84741   0.26416   0.00000  Uiso   1.00
N396   N     0.68426   0.81926   0.23584   0.00000  Uiso   1.00
N397   N     0.96079   0.76959   0.37470   0.00000  Uiso   1.00
O398   O     0.79464   0.90474   0.24633   0.00000  Uiso   1.00
O399   O     0.89524   0.91422   0.25587   0.00000  Uiso   1.00
O400   O     0.75848   0.82627   0.31840   0.00000  Uiso   1.00
O401   O     0.85908   0.83575   0.32793   0.00000  Uiso   1.00
O402   O     0.77142   0.75245   0.24414   0.00000  Uiso   1.00
O403   O     0.87203   0.76193   0.25367   0.00000  Uiso   1.00
O404   O     0.80758   0.83092   0.17207   0.00000  Uiso   1.00
O405   O     0.90819   0.84040   0.18161   0.00000  Uiso   1.00
C406   C     0.18175   0.26674   0.75159   0.00000  Uiso   1.00
C407   C     0.11081   0.16314   0.90411   0.00000  Uiso   1.00
C408   C     0.19024   0.32270   0.75244   0.00000  Uiso   1.00
C409   C     0.13267   0.16515   0.84748   0.00000  Uiso   1.00
C410   C     0.14298   0.01064   0.74790   0.00000  Uiso   1.00
C411   C     0.15152   0.06659   0.74856   0.00000  Uiso   1.00
C412   C     0.20073   0.17029   0.65289   0.00000  Uiso   1.00
C413   C     0.29307   0.22584   0.52599   0.00000  Uiso   1.00
C414   C     0.22138   0.17847   0.59765   0.00000  Uiso   1.00
C415   C     0.04846   0.13660   0.92660   0.00000  Uiso   1.00
C416   C     0.03204   0.12672   0.97872   0.00000  Uiso   1.00
C417   C     0.13914   0.16708   0.98818   0.00000  Uiso   1.00
C418   C     0.07660   0.14047   0.50888   0.00000  Uiso   1.00
C419   C     0.33323   0.11790   0.89766   0.00000  Uiso   1.00
C420   C     0.15435   0.18277   0.93642   0.00000  Uiso   1.00
C421   C     0.18667   0.17981   0.51766   0.00000  Uiso   1.00
C422   C     0.24627   0.21224   0.99690   0.00000  Uiso   1.00
C423   C     0.25778   0.23219   0.94804   0.00000  Uiso   1.00
C424   C     0.21227   0.21851   0.91865   0.00000  Uiso   1.00
C425   C     0.17665   0.16152   0.56745   0.00000  Uiso   1.00
C426   C     0.28048   0.20942   0.57638   0.00000  Uiso   1.00
Cu427  Cu    0.10710   0.16105   0.74436   0.00000  Uiso   1.00
Cu428  Cu    0.22623   0.17228   0.75565   0.00000  Uiso   1.00
H429   H     0.31566   0.22285   0.59929   0.00000  Uiso   1.00
H430   H     0.22267   0.23780   0.88239   0.00000  Uiso   1.00
H431   H     0.23578   0.01318   0.75676   0.00000  Uiso   1.00
H432   H     0.09743   0.32016   0.74360   0.00000  Uiso   1.00
H433   H     0.00354   0.20573   0.78977   0.00000  Uiso   1.00
H434   H     0.32975   0.12753   0.71031   0.00000  Uiso   1.00
H435   H     0.30209   0.25883   0.93252   0.00000  Uiso   1.00
H436   H     0.00534   0.25060   0.51027   0.00000  Uiso   1.00
H437   H     0.13358   0.13480   0.58447   0.00000  Uiso   1.00
H438   H     0.05967   0.13114   0.54878   0.00000  Uiso   1.00
H439   H     0.31767   0.10697   0.99624   0.00000  Uiso   1.00
N440   N     0.31574   0.18074   0.76416   0.00000  Uiso   1.00
N441   N     0.01759   0.15259   0.73584   0.00000  Uiso   1.00
N442   N     0.29413   0.10293   0.87470   0.00000  Uiso   1.00
O443   O     0.12797   0.23807   0.74633   0.00000  Uiso   1.00
O444   O     0.22858   0.24755   0.75587   0.00000  Uiso   1.00
O445   O     0.09181   0.15960   0.81840   0.00000  Uiso   1.00
O446   O     0.19242   0.16908   0.82793   0.00000  Uiso   1.00
O447   O     0.10476   0.08578   0.74414   0.00000  Uiso   1.00
O448   O     0.20536   0.09526   0.75367   0.00000  Uiso   1.00
O449   O     0.14092   0.16425   0.67207   0.00000  Uiso   1.00
O450   O     0.24152   0.17373   0.68161   0.00000  Uiso   1.00
C451   C     0.51509   0.26674   0.75159   0.00000  Uiso   1.00
C452   C     0.44415   0.16314   0.90411   0.00000  Uiso   1.00
C453   C     0.52357   0.32270   0.75244   0.00000  Uiso   1.00
C454   C     0.46600   0.16515   0.84748   0.00000  Uiso   1.00
C455   C     0.47631   0.01064   0.74790   0.00000  Uiso   1.00
C456   C     0.48486   0.06659   0.74856   0.00000  Uiso   1.00
C457   C     0.53406   0.17029   0.65289   0.00000  Uiso   1.00
C458   C     0.62640   0.22584   0.52599   0.00000  Uiso   1.00
C459   C     0.55472   0.17847   0.59765   0.00000  Uiso   1.00
C460   C     0.38180   0.13660   0.92660   0.00000  Uiso   1.00
C461   C     0.36538   0.12672   0.97872   0.00000  Uiso   1.00
C462   C     0.47247   0.16708   0.98818   0.00000  Uiso   1.00
C463   C     0.40993   0.14047   0.50888   0.00000  Uiso   1.00
C464   C     0.66656   0.11790   0.89766   0.00000  Uiso   1.00
C465   C     0.48768   0.18277   0.93642   0.00000  Uiso   1.00
C466   C     0.52001   0.17981   0.51766   0.00000  Uiso   1.00
C467   C     0.57961   0.21224   0.99690   0.00000  Uiso   1.00
C468   C     0.59111   0.23219   0.94804   0.00000  Uiso   1.00
C469   C     0.54561   0.21851   0.91865   0.00000  Uiso   1.00
C470   C     0.50999   0.16152   0.56745   0.00000  Uiso   1.00
C471   C     0.61381   0.20942   0.57638   0.00000  Uiso   1.00
Cu472  Cu    0.44043   0.16105   0.74436   0.00000  Uiso   1.00
Cu473  Cu    0.55957   0.17228   0.75565   0.00000  Uiso   1.00
H474   H     0.64899   0.22285   0.59929   0.00000  Uiso   1.00
H475   H     0.55600   0.23780   0.88239   0.00000  Uiso   1.00
H476   H     0.56911   0.01318   0.75676   0.00000  Uiso   1.00
H477   H     0.43076   0.32016   0.74360   0.00000  Uiso   1.00
H478   H     0.33687   0.20573   0.78977   0.00000  Uiso   1.00
H479   H     0.66308   0.12753   0.71031   0.00000  Uiso   1.00
H480   H     0.63542   0.25883   0.93252   0.00000  Uiso   1.00
H481   H     0.33867   0.25060   0.51027   0.00000  Uiso   1.00
H482   H     0.46691   0.13480   0.58447   0.00000  Uiso   1.00
H483   H     0.39300   0.13114   0.54878   0.00000  Uiso   1.00
H484   H     0.65100   0.10697   0.99624   0.00000  Uiso   1.00
N485   N     0.64908   0.18074   0.76416   0.00000  Uiso   1.00
N486   N     0.35092   0.15259   0.73584   0.00000  Uiso   1.00
N487   N     0.62746   0.10293   0.87470   0.00000  Uiso   1.00
O488   O     0.46131   0.23807   0.74633   0.00000  Uiso   1.00
O489   O     0.56191   0.24755   0.75587   0.00000  Uiso   1.00
O490   O     0.42515   0.15960   0.81840   0.00000  Uiso   1.00
O491   O     0.52575   0.16908   0.82793   0.00000  Uiso   1.00
O492   O     0.43809   0.08578   0.74414   0.00000  Uiso   1.00
O493   O     0.53869   0.09526   0.75367   0.00000  Uiso   1.00
O494   O     0.47425   0.16425   0.67207   0.00000  Uiso   1.00
O495   O     0.57485   0.17373   0.68161   0.00000  Uiso   1.00
C496   C     0.84842   0.26674   0.75159   0.00000  Uiso   1.00
C497   C     0.77748   0.16314   0.90411   0.00000  Uiso   1.00
C498   C     0.85690   0.32270   0.75244   0.00000  Uiso   1.00
C499   C     0.79934   0.16515   0.84748   0.00000  Uiso   1.00
C500   C     0.80964   0.01064   0.74790   0.00000  Uiso   1.00
C501   C     0.81819   0.06659   0.74856   0.00000  Uiso   1.00
C502   C     0.86739   0.17029   0.65289   0.00000  Uiso   1.00
C503   C     0.95974   0.22584   0.52599   0.00000  Uiso   1.00
C504   C     0.88805   0.17847   0.59765   0.00000  Uiso   1.00
C505   C     0.71513   0.13660   0.92660   0.00000  Uiso   1.00
C506   C     0.69871   0.12672   0.97872   0.00000  Uiso   1.00
C507   C     0.80581   0.16708   0.98818   0.00000  Uiso   1.00
C508   C     0.74327   0.14047   0.50888   0.00000  Uiso   1.00
C509   C     0.99989   0.11790   0.89766   0.00000  Uiso   1.00
C510   C     0.82101   0.18277   0.93642   0.00000  Uiso   1.00
C511   C     0.85334   0.17981   0.51766   0.00000  Uiso   1.00
C512   C     0.91294   0.21224   0.99690   0.00000  Uiso   1.00
C513   C     0.92444   0.23219   0.94804   0.00000  Uiso   1.00
C514   C     0.87894   0.21851   0.91865   0.00000  Uiso   1.00
C515   C     0.84332   0.16152   0.56745   0.00000  Uiso   1.00
C516   C     0.94714   0.20942   0.57638   0.00000  Uiso   1.00
Cu517  Cu    0.77377   0.16105   0.74436   0.00000  Uiso   1.00
Cu518  Cu    0.89290   0.17228   0.75565   0.00000  Uiso   1.00
H519   H     0.98232   0.22285   0.59929   0.00000  Uiso   1.00
H520   H     0.88933   0.23780   0.88239   0.00000  Uiso   1.00
H521   H     0.90244   0.01318   0.75676   0.00000  Uiso   1.00
H522   H     0.76409   0.32016   0.74360   0.00000  Uiso   1.00
H523   H     0.67021   0.20573   0.78977   0.00000  Uiso   1.00
H524   H     0.99641   0.12753   0.71031   0.00000  Uiso   1.00
H525   H     0.96876   0.25883   0.93252   0.00000  Uiso   1.00
H526   H     0.67201   0.25060   0.51027   0.00000  Uiso   1.00
H527   H     0.80025   0.13480   0.58447   0.00000  Uiso   1.00
H528   H     0.72634   0.13114   0.54878   0.00000  Uiso   1.00
H529   H     0.98434   0.10697   0.99624   0.00000  Uiso   1.00
N530   N     0.98241   0.18074   0.76416   0.00000  Uiso   1.00
N531   N     0.68426   0.15259   0.73584   0.00000  Uiso   1.00
N532   N     0.96079   0.10293   0.87470   0.00000  Uiso   1.00
O533   O     0.79464   0.23807   0.74633   0.00000  Uiso   1.00
O534   O     0.89524   0.24755   0.75587   0.00000  Uiso   1.00
O535   O     0.75848   0.15960   0.81840   0.00000  Uiso   1.00
O536   O     0.85908   0.16908   0.82793   0.00000  Uiso   1.00
O537   O     0.77142   0.08578   0.74414   0.00000  Uiso   1.00
O538   O     0.87203   0.09526   0.75367   0.00000  Uiso   1.00
O539   O     0.80758   0.16425   0.67207   0.00000  Uiso   1.00
O540   O     0.90819   0.17373   0.68161   0.00000  Uiso   1.00
C541   C     0.18175   0.60007   0.75159   0.00000  Uiso   1.00
C542   C     0.11081   0.49647   0.90411   0.00000  Uiso   1.00
C543   C     0.19024   0.65603   0.75244   0.00000  Uiso   1.00
C544   C     0.13267   0.49848   0.84748   0.00000  Uiso   1.00
C545   C     0.14298   0.34397   0.74790   0.00000  Uiso   1.00
C546   C     0.15152   0.39993   0.74856   0.00000  Uiso   1.00
C547   C     0.20073   0.50363   0.65289   0.00000  Uiso   1.00
C548   C     0.29307   0.55918   0.52599   0.00000  Uiso   1.00
C549   C     0.22138   0.51180   0.59765   0.00000  Uiso   1.00
C550   C     0.04846   0.46993   0.92660   0.00000  Uiso   1.00
C551   C     0.03204   0.46006   0.97872   0.00000  Uiso   1.00
C552   C     0.13914   0.50042   0.98818   0.00000  Uiso   1.00
C553   C     0.07660   0.47380   0.50888   0.00000  Uiso   1.00
C554   C     0.33323   0.45124   0.89766   0.00000  Uiso   1.00
C555   C     0.15435   0.51611   0.93642   0.00000  Uiso   1.00
C556   C     0.18667   0.51315   0.51766   0.00000  Uiso   1.00
C557   C     0.24627   0.54558   0.99690   0.00000  Uiso   1.00
C558   C     0.25778   0.56552   0.94804   0.00000  Uiso   1.00
C559   C     0.21227   0.55184   0.91865   0.00000  Uiso   1.00
C560   C     0.17665   0.49485   0.56745   0.00000  Uiso   1.00
C561   C     0.28048   0.54275   0.57638   0.00000  Uiso   1.00
Cu562  Cu    0.10710   0.49439   0.74436   0.00000  Uiso   1.00
Cu563  Cu    0.22623   0.50561   0.75565   0.00000  Uiso   1.00
H564   H     0.31566   0.55619   0.59929   0.00000  Uiso   1.00
H565   H     0.22267   0.57113   0.88239   0.00000  Uiso   1.00
H566   H     0.23578   0.34651   0.75676   0.00000  Uiso   1.00
H567   H     0.09743   0.65349   0.74360   0.00000  Uiso   1.00
H568   H     0.00354   0.53907   0.78977   0.00000  Uiso   1.00
H569   H     0.32975   0.46087   0.71031   0.00000  Uiso   1.00
H570   H     0.30209   0.59217   0.93252   0.00000  Uiso   1.00
H571   H     0.00534   0.58393   0.51027   0.00000  Uiso   1.00
H572   H     0.13358   0.46813   0.58447   0.00000  Uiso   1.00
H573   H     0.05967   0.46448   0.54878   0.00000  Uiso   1.00
H574   H     0.31767   0.44031   0.99624   0.00000  Uiso   1.00
N575   N     0.31574   0.51407   0.76416   0.00000  Uiso   1.00
N576   N     0.01759   0.48593   0.73584   0.00000  Uiso   1.00
N577   N     0.29413   0.43626   0.87470   0.00000  Uiso   1.00
O578   O     0.12797   0.57141   0.74633   0.00000  Uiso   1.00
O579   O     0.22858   0.58089   0.75587   0.00000  Uiso   1.00
O580   O     0.09181   0.49293   0.81840   0.00000  Uiso   1.00
O581   O     0.19242   0.50241   0.82793   0.00000  Uiso   1.00
O582   O     0.10476   0.41911   0.74414   0.00000  Uiso   1.00
O583   O     0.20536   0.42859   0.75367   0.00000  Uiso   1.00
O584   O     0.14092   0.49759   0.67207   0.00000  Uiso   1.00
O585   O     0.24152   0.50707   0.68161   0.00000  Uiso   1.00
C586   C     0.51509   0.60007   0.75159   0.00000  Uiso   1.00
C587   C     0.44415   0.49647   0.90411   0.00000  Uiso   1.00
C588   C     0.52357   0.65603   0.75244   0.00000  Uiso   1.00
C589   C     0.46600   0.49848   0.84748   0.00000  Uiso   1.00
C590   C     0.47631   0.34397   0.74790   0.00000  Uiso   1.00
C591   C     0.48486   0.39993   0.74856   0.00000  Uiso   1.00
C592   C     0.53406   0.50363   0.65289   0.00000  Uiso   1.00
C593   C     0.62640   0.55918   0.52599   0.00000  Uiso   1.00
C594   C     0.55472   0.51180   0.59765   0.00000  Uiso   1.00
C595   C     0.38180   0.46993   0.92660   0.00000  Uiso   1.00
C596   C     0.36538   0.46006   0.97872   0.00000  Uiso   1.00
C597   C     0.47247   0.50042   0.98818   0.00000  Uiso   1.00
C598   C     0.40993   0.47380   0.50888   0.00000  Uiso   1.00
C599   C     0.66656   0.45124   0.89766   0.00000  Uiso   1.00
C600   C     0.48768   0.51611   0.93642   0.00000  Uiso   1.00
C601   C     0.52001   0.51315   0.51766   0.00000  Uiso   1.00
C602   C     0.57961   0.54558   0.99690   0.00000  Uiso   1.00
C603   C     0.59111   0.56552   0.94804   0.00000  Uiso   1.00
C604   C     0.54561   0.55184   0.91865   0.00000  Uiso   1.00
C605   C     0.50999   0.49485   0.56745   0.00000  Uiso   1.00
C606   C     0.61381   0.54275   0.57638   0.00000  Uiso   1.00
Cu607  Cu    0.44043   0.49439   0.74436   0.00000  Uiso   1.00
Cu608  Cu    0.55957   0.50561   0.75565   0.00000  Uiso   1.00
H609   H     0.64899   0.55619   0.59929   0.00000  Uiso   1.00
H610   H     0.55600   0.57113   0.88239   0.00000  Uiso   1.00
H611   H     0.56911   0.34651   0.75676   0.00000  Uiso   1.00
H612   H     0.43076   0.65349   0.74360   0.00000  Uiso   1.00
H613   H     0.33687   0.53907   0.78977   0.00000  Uiso   1.00
H614   H     0.66308   0.46087   0.71031   0.00000  Uiso   1.00
H615   H     0.63542   0.59217   0.93252   0.00000  Uiso   1.00
H616   H     0.33867   0.58393   0.51027   0.00000  Uiso   1.00
H617   H     0.46691   0.46813   0.58447   0.00000  Uiso   1.00
H618   H     0.39300   0.46448   0.54878   0.00000  Uiso   1.00
H619   H     0.65100   0.44031   0.99624   0.00000  Uiso   1.00
N620   N     0.64908   0.51407   0.76416   0.00000  Uiso   1.00
N621   N     0.35092   0.48593   0.73584   0.00000  Uiso   1.00
N622   N     0.62746   0.43626   0.87470   0.00000  Uiso   1.00
O623   O     0.46131   0.57141   0.74633   0.00000  Uiso   1.00
O624   O     0.56191   0.58089   0.75587   0.00000  Uiso   1.00
O625   O     0.42515   0.49293   0.81840   0.00000  Uiso   1.00
O626   O     0.52575   0.50241   0.82793   0.00000  Uiso   1.00
O627   O     0.43809   0.41911   0.74414   0.00000  Uiso   1.00
O628   O     0.53869   0.42859   0.75367   0.00000  Uiso   1.00
O629   O     0.47425   0.49759   0.67207   0.00000  Uiso   1.00
O630   O     0.57485   0.50707   0.68161   0.00000  Uiso   1.00
C631   C     0.84842   0.60007   0.75159   0.00000  Uiso   1.00
C632   C     0.77748   0.49647   0.90411   0.00000  Uiso   1.00
C633   C     0.85690   0.65603   0.75244   0.00000  Uiso   1.00
C634   C     0.79934   0.49848   0.84748   0.00000  Uiso   1.00
C635   C     0.80964   0.34397   0.74790   0.00000  Uiso   1.00
C636   C     0.81819   0.39993   0.74856   0.00000  Uiso   1.00
C637   C     0.86739   0.50363   0.65289   0.00000  Uiso   1.00
C638   C     0.95974   0.55918   0.52599   0.00000  Uiso   1.00
C639   C     0.88805   0.51180   0.59765   0.00000  Uiso   1.00
C640   C     0.71513   0.46993   0.92660   0.00000  Uiso   1.00
C641   C     0.69871   0.46006   0.97872   0.00000  Uiso   1.00
C642   C     0.80581   0.50042   0.98818   0.00000  Uiso   1.00
C643   C     0.74327   0.47380   0.50888   0.00000  Uiso   1.00
C644   C     0.99989   0.45124   0.89766   0.00000  Uiso   1.00
C645   C     0.82101   0.51611   0.93642   0.00000  Uiso   1.00
C646   C     0.85334   0.51315   0.51766   0.00000  Uiso   1.00
C647   C     0.91294   0.54558   0.99690   0.00000  Uiso   1.00
C648   C     0.92444   0.56552   0.94804   0.00000  Uiso   1.00
C649   C     0.87894   0.55184   0.91865   0.00000  Uiso   1.00
C650   C     0.84332   0.49485   0.56745   0.00000  Uiso   1.00
C651   C     0.94714   0.54275   0.57638   0.00000  Uiso   1.00
Cu652  Cu    0.77377   0.49439   0.74436   0.00000  Uiso   1.00
Cu653  Cu    0.89290   0.50561   0.75565   0.00000  Uiso   1.00
H654   H     0.98232   0.55619   0.59929   0.00000  Uiso   1.00
H655   H     0.88933   0.57113   0.88239   0.00000  Uiso   1.00
H656   H     0.90244   0.34651   0.75676   0.00000  Uiso   1.00
H657   H     0.76409   0.65349   0.74360   0.00000  Uiso   1.00
H658   H     0.67021   0.53907   0.78977   0.00000  Uiso   1.00
H659   H     0.99641   0.46087   0.71031   0.00000  Uiso   1.00
H660   H     0.96876   0.59217   0.93252   0.00000  Uiso   1.00
H661   H     0.67201   0.58393   0.51027   0.00000  Uiso   1.00
H662   H     0.80025   0.46813   0.58447   0.00000  Uiso   1.00
H663   H     0.72634   0.46448   0.54878   0.00000  Uiso   1.00
H664   H     0.98434   0.44031   0.99624   0.00000  Uiso   1.00
N665   N     0.98241   0.51407   0.76416   0.00000  Uiso   1.00
N666   N     0.68426   0.48593   0.73584   0.00000  Uiso   1.00
N667   N     0.96079   0.43626   0.87470   0.00000  Uiso   1.00
O668   O     0.79464   0.57141   0.74633   0.00000  Uiso   1.00
O669   O     0.89524   0.58089   0.75587   0.00000  Uiso   1.00
O670   O     0.75848   0.49293   0.81840   0.00000  Uiso   1.00
O671   O     0.85908   0.50241   0.82793   0.00000  Uiso   1.00
O672   O     0.77142   0.41911   0.74414   0.00000  Uiso   1.00
O673   O     0.87203   0.42859   0.75367   0.00000  Uiso   1.00
O674   O     0.80758   0.49759   0.67207   0.00000  Uiso   1.00
O675   O     0.90819   0.50707   0.68161   0.00000  Uiso   1.00
C676   C     0.18175   0.93341   0.75159   0.00000  Uiso   1.00
C677   C     0.11081   0.82981   0.90411   0.00000  Uiso   1.00
C678   C     0.19024   0.98937   0.75244   0.00000  Uiso   1.00
C679   C     0.13267   0.83181   0.84748   0.00000  Uiso   1.00
C680   C     0.14298   0.67730   0.74790   0.00000  Uiso   1.00
C681   C     0.15152   0.73326   0.74856   0.00000  Uiso   1.00
C682   C     0.20073   0.83696   0.65289   0.00000  Uiso   1.00
C683   C     0.29307   0.89251   0.52599   0.00000  Uiso   1.00
C684   C     0.22138   0.84513   0.59765   0.00000  Uiso   1.00
C685   C     0.04846   0.80327   0.92660   0.00000  Uiso   1.00
C686   C     0.03204   0.79339   0.97872   0.00000  Uiso   1.00
C687   C     0.13914   0.83375   0.98818   0.00000  Uiso   1.00
C688   C     0.07660   0.80714   0.50888   0.00000  Uiso   1.00
C689   C     0.33323   0.78457   0.89766   0.00000  Uiso   1.00
C690   C     0.15435   0.84944   0.93642   0.00000  Uiso   1.00
C691   C     0.18667   0.84648   0.51766   0.00000  Uiso   1.00
C692   C     0.24627   0.87891   0.99690   0.00000  Uiso   1.00
C693   C     0.25778   0.89885   0.94804   0.00000  Uiso   1.00
C694   C     0.21227   0.88518   0.91865   0.00000  Uiso   1.00
C695   C     0.17665   0.82818   0.56745   0.00000  Uiso   1.00
C696   C     0.28048   0.87609   0.57638   0.00000  Uiso   1.00
Cu697  Cu    0.10710   0.82772   0.74436   0.00000  Uiso   1.00
Cu698  Cu    0.22623   0.83895   0.75565   0.00000  Uiso   1.00
H699   H     0.31566   0.88952   0.59929   0.00000  Uiso   1.00
H700   H     0.22267   0.90446   0.88239   0.00000  Uiso   1.00
H701   H     0.23578   0.67984   0.75676   0.00000  Uiso   1.00
H702   H     0.09743   0.98682   0.74360   0.00000  Uiso   1.00
H703   H     0.00354   0.87240   0.78977   0.00000  Uiso   1.00
H704   H     0.32975   0.79420   0.71031   0.00000  Uiso   1.00
H705   H     0.30209   0.92550   0.93252   0.00000  Uiso   1.00
H706   H     0.00534   0.91726   0.51027   0.00000  Uiso   1.00
H707   H     0.13358   0.80147   0.58447   0.00000  Uiso   1.00
H708   H     0.05967   0.79781   0.54878   0.00000  Uiso   1.00
H709   H     0.31767   0.77364   0.99624   0.00000  Uiso   1.00
N710   N     0.31574   0.84741   0.76416   0.00000  Uiso   1.00
N711   N     0.01759   0.81926   0.73584   0.00000  Uiso   1.00
N712   N     0.29413   0.76959   0.87470   0.00000  Uiso   1.00
O713   O     0.12797   0.90474   0.74633   0.00000  Uiso   1.00
O714   O     0.22858   0.91422   0.75587   0.00000  Uiso   1.00
O715   O     0.09181   0.82627   0.81840   0.00000  Uiso   1.00
O716   O     0.19242   0.83575   0.82793   0.00000  Uiso   1.00
O717   O     0.10476   0.75245   0.74414   0.00000  Uiso   1.00
O718   O     0.20536   0.76193   0.75367   0.00000  Uiso   1.00
O719   O     0.14092   0.83092   0.67207   0.00000  Uiso   1.00
O720   O     0.24152   0.84040   0.68161   0.00000  Uiso   1.00
C721   C     0.51509   0.93341   0.75159   0.00000  Uiso   1.00
C722   C     0.44415   0.82981   0.90411   0.00000  Uiso   1.00
C723   C     0.52357   0.98937   0.75244   0.00000  Uiso   1.00
C724   C     0.46600   0.83181   0.84748   0.00000  Uiso   1.00
C725   C     0.47631   0.67730   0.74790   0.00000  Uiso   1.00
C726   C     0.48486   0.73326   0.74856   0.00000  Uiso   1.00
C727   C     0.53406   0.83696   0.65289   0.00000  Uiso   1.00
C728   C     0.62640   0.89251   0.52599   0.00000  Uiso   1.00
C729   C     0.55472   0.84513   0.59765   0.00000  Uiso   1.00
C730   C     0.38180   0.80327   0.92660   0.00000  Uiso   1.00
C731   C     0.36538   0.79339   0.97872   0.00000  Uiso   1.00
C732   C     0.47247   0.83375   0.98818   0.00000  Uiso   1.00
C733   C     0.40993   0.80714   0.50888   0.00000  Uiso   1.00
C734   C     0.66656   0.78457   0.89766   0.00000  Uiso   1.00
C735   C     0.48768   0.84944   0.93642   0.00000  Uiso   1.00
C736   C     0.52001   0.84648   0.51766   0.00000  Uiso   1.00
C737   C     0.57961   0.87891   0.99690   0.00000  Uiso   1.00
C738   C     0.59111   0.89885   0.94804   0.00000  Uiso   1.00
C739   C     0.54561   0.88518   0.91865   0.00000  Uiso   1.00
C740   C     0.50999   0.82818   0.56745   0.00000  Uiso   1.00
C741   C     0.61381   0.87609   0.57638   0.00000  Uiso   1.00
Cu742  Cu    0.44043   0.82772   0.74436   0.00000  Uiso   1.00
Cu743  Cu    0.55957   0.83895   0.75565   0.00000  Uiso   1.00
H744   H     0.64899   0.88952   0.59929   0.00000  Uiso   1.00
H745   H     0.55600   0.90446   0.88239   0.00000  Uiso   1.00
H746   H     0.56911   0.67984   0.75676   0.00000  Uiso   1.00
H747   H     0.43076   0.98682   0.74360   0.00000  Uiso   1.00
H748   H     0.33687   0.87240   0.78977   0.00000  Uiso   1.00
H749   H     0.66308   0.79420   0.71031   0.00000  Uiso   1.00
H750   H     0.63542   0.92550   0.93252   0.00000  Uiso   1.00
H751   H     0.33867   0.91726   0.51027   0.00000  Uiso   1.00
H752   H     0.46691   0.80147   0.58447   0.00000  Uiso   1.00
H753   H     0.39300   0.79781   0.54878   0.00000  Uiso   1.00
H754   H     0.65100   0.77364   0.99624   0.00000  Uiso   1.00
N755   N     0.64908   0.84741   0.76416   0.00000  Uiso   1.00
N756   N     0.35092   0.81926   0.73584   0.00000  Uiso   1.00
N757   N     0.62746   0.76959   0.87470   0.00000  Uiso   1.00
O758   O     0.46131   0.90474   0.74633   0.00000  Uiso   1.00
O759   O     0.56191   0.91422   0.75587   0.00000  Uiso   1.00
O760   O     0.42515   0.82627   0.81840   0.00000  Uiso   1.00
O761   O     0.52575   0.83575   0.82793   0.00000  Uiso   1.00
O762   O     0.43809   0.75245   0.74414   0.00000  Uiso   1.00
O763   O     0.53869   0.76193   0.75367   0.00000  Uiso   1.00
O764   O     0.47425   0.83092   0.67207   0.00000  Uiso   1.00
O765   O     0.57485   0.84040   0.68161   0.00000  Uiso   1.00
C766   C     0.84842   0.93341   0.75159   0.00000  Uiso   1.00
C767   C     0.77748   0.82981   0.90411   0.00000  Uiso   1.00
C768   C     0.85690   0.98937   0.75244   0.00000  Uiso   1.00
C769   C     0.79934   0.83181   0.84748   0.00000  Uiso   1.00
C770   C     0.80964   0.67730   0.74790   0.00000  Uiso   1.00
C771   C     0.81819   0.73326   0.74856   0.00000  Uiso   1.00
C772   C     0.86739   0.83696   0.65289   0.00000  Uiso   1.00
C773   C     0.95974   0.89251   0.52599   0.00000  Uiso   1.00
C774   C     0.88805   0.84513   0.59765   0.00000  Uiso   1.00
C775   C     0.71513   0.80327   0.92660   0.00000  Uiso   1.00
C776   C     0.69871   0.79339   0.97872   0.00000  Uiso   1.00
C777   C     0.80581   0.83375   0.98818   0.00000  Uiso   1.00
C778   C     0.74327   0.80714   0.50888   0.00000  Uiso   1.00
C779   C     0.99989   0.78457   0.89766   0.00000  Uiso   1.00
C780   C     0.82101   0.84944   0.93642   0.00000  Uiso   1.00
C781   C     0.85334   0.84648   0.51766   0.00000  Uiso   1.00
C782   C     0.91294   0.87891   0.99690   0.00000  Uiso   1.00
C783   C     0.92444   0.89885   0.94804   0.00000  Uiso   1.00
C784   C     0.87894   0.88518   0.91865   0.00000  Uiso   1.00
C785   C     0.84332   0.82818   0.56745   0.00000  Uiso   1.00
C786   C     0.94714   0.87609   0.57638   0.00000  Uiso   1.00
Cu787  Cu    0.77377   0.82772   0.74436   0.00000  Uiso   1.00
Cu788  Cu    0.89290   0.83895   0.75565   0.00000  Uiso   1.00
H789   H     0.98232   0.88952   0.59929   0.00000  Uiso   1.00
H790   H     0.88933   0.90446   0.88239   0.00000  Uiso   1.00
H791   H     0.90244   0.67984   0.75676   0.00000  Uiso   1.00
H792   H     0.76409   0.98682   0.74360   0.00000  Uiso   1.00
H793   H     0.67021   0.87240   0.78977   0.00000  Uiso   1.00
H794   H     0.99641   0.79420   0.71031   0.00000  Uiso   1.00
H795   H     0.96876   0.92550   0.93252   0.00000  Uiso   1.00
H796   H     0.67201   0.91726   0.51027   0.00000  Uiso   1.00
H797   H     0.80025   0.80147   0.58447   0.00000  Uiso   1.00
H798   H     0.72634   0.79781   0.54878   0.00000  Uiso   1.00
H799   H     0.98434   0.77364   0.99624   0.00000  Uiso   1.00
N800   N     0.98241   0.84741   0.76416   0.00000  Uiso   1.00
N801   N     0.68426   0.81926   0.73584   0.00000  Uiso   1.00
N802   N     0.96079   0.76959   0.87470   0.00000  Uiso   1.00
O803   O     0.79464   0.90474   0.74633   0.00000  Uiso   1.00
O804   O     0.89524   0.91422   0.75587   0.00000  Uiso   1.00
O805   O     0.75848   0.82627   0.81840   0.00000  Uiso   1.00
O806   O     0.85908   0.83575   0.82793   0.00000  Uiso   1.00
O807   O     0.77142   0.75245   0.74414   0.00000  Uiso   1.00
O808   O     0.87203   0.76193   0.75367   0.00000  Uiso   1.00
O809   O     0.80758   0.83092   0.67207   0.00000  Uiso   1.00
O810   O     0.90819   0.84040   0.68161   0.00000  Uiso   1.00
loop_
_geom_bond_atom_site_label_1
_geom_bond_atom_site_label_2
_geom_bond_distance
_geom_bond_site_symmetry_2
_ccdc_geom_bond_type
C1     O38     1.291   .     A
C1     O39     1.285   .     A
C1     C3      1.428   .     S
C2     C4      1.488   .     S
C2     C15     1.428   .     A
C2     C10     1.421   .     A
C3     C140    1.328   .     S
C3     H161    1.088   .     S
C4     O41     1.300   .     A
C4     O40     1.303   .     A
C5     C6      1.428   .     S
C5     C273    1.328   1_545 S
C5     H297    1.088   1_545 S
C6     O43     1.291   .     A
C6     O42     1.285   .     A
C7     O44     1.294   .     A
C7     O45     1.301   .     A
C7     C9      1.465   .     S
C8     C21     1.395   .     A
C8     C422    1.405   1_554 S
C8     H76     1.084   .     S
C9     C20     1.397   .     A
C9     C21     1.398   .     A
C10    C11     1.390   .     A
C10    C104    1.446   1_455 S
C11    C418    1.386   .     S
C11    H124    1.085   1_455 S
C12    C15     1.420   .     A
C12    C418    1.414   .     S
C12    C421    1.425   .     S
C13    H33     1.077   .     S
C13    C417    1.414   1_554 S
C13    C416    1.386   1_554 S
C14    N37     1.158   .     T
C14    C55     1.446   .     S
C15    C19     1.414   .     A
C16    C20     1.403   .     A
C16    C417    1.425   1_554 S
C16    C422    1.419   1_554 S
C17    C18     1.392   .     A
C17    C421    1.419   .     S
C17    C413    1.405   .     S
C18    H30     1.084   .     S
C18    C19     1.388   .     A
C19    H25     1.080   .     S
C20    H32     1.076   .     S
C21    H24     1.083   .     S
Cu22   N36     2.018   .     S
Cu22   O40     1.939   .     S
Cu22   O42     1.952   .     S
Cu22   O38     1.956   .     S
Cu22   Cu23    2.685   .     S
Cu22   O44     1.916   .     S
Cu23   O41     1.916   .     S
Cu23   O45     1.939   .     S
Cu23   N35     2.018   .     S
Cu23   O39     1.952   .     S
Cu23   O43     1.956   .     S
H26    C273    1.088   1_545 S
H27    C140    1.088   .     S
H28    N125    1.029   1_455 S
H29    N81     1.029   .     S
H31    C98     1.084   1_455 S
H34    C56     1.085   .     S
N35    H73     1.029   .     S
N35    N81     1.284   .     S
N36    N125    1.284   1_455 S
N36    H119    1.029   1_455 S
C46    O83     1.291   .     A
C46    O84     1.285   .     A
C46    C48     1.428   .     S
C47    C49     1.488   .     S
C47    C60     1.428   .     A
C47    C55     1.421   .     A
C48    C185    1.328   .     S
C48    H206    1.088   .     S
C49    O86     1.300   .     A
C49    O85     1.303   .     A
C50    C51     1.428   .     S
C50    C318    1.328   1_545 S
C50    H342    1.088   1_545 S
C51    O88     1.291   .     A
C51    O87     1.285   .     A
C52    O89     1.294   .     A
C52    O90     1.301   .     A
C52    C54     1.465   .     S
C53    C66     1.395   .     A
C53    C467    1.405   1_554 S
C53    H121    1.084   .     S
C54    C65     1.397   .     A
C54    C66     1.398   .     A
C55    C56     1.390   .     A
C56    C463    1.386   .     S
C57    C60     1.420   .     A
C57    C463    1.414   .     S
C57    C466    1.425   .     S
C58    H78     1.077   .     S
C58    C462    1.414   1_554 S
C58    C461    1.386   1_554 S
C59    N82     1.158   .     T
C59    C100    1.446   .     S
C60    C64     1.414   .     A
C61    C65     1.403   .     A
C61    C462    1.425   1_554 S
C61    C467    1.419   1_554 S
C62    C63     1.392   .     A
C62    C466    1.419   .     S
C62    C458    1.405   .     S
C63    H75     1.084   .     S
C63    C64     1.388   .     A
C64    H70     1.080   .     S
C65    H77     1.076   .     S
C66    H69     1.083   .     S
Cu67   N81     2.018   .     S
Cu67   O85     1.939   .     S
Cu67   O87     1.952   .     S
Cu67   O83     1.956   .     S
Cu67   Cu68    2.685   .     S
Cu67   O89     1.916   .     S
Cu68   O86     1.916   .     S
Cu68   O90     1.939   .     S
Cu68   N80     2.018   .     S
Cu68   O84     1.952   .     S
Cu68   O88     1.956   .     S
H71    C318    1.088   1_545 S
H72    C185    1.088   .     S
H74    N126    1.029   .     S
H79    C101    1.085   .     S
N80    H118    1.029   .     S
N80    N126    1.284   .     S
C91    O128    1.291   .     A
C91    O129    1.285   .     A
C91    C93     1.428   .     S
C92    C94     1.488   .     S
C92    C105    1.428   .     A
C92    C100    1.421   .     A
C93    C230    1.328   .     S
C93    H251    1.088   .     S
C94    O131    1.300   .     A
C94    O130    1.303   .     A
C95    C96     1.428   .     S
C95    C363    1.328   1_545 S
C95    H387    1.088   1_545 S
C96    O133    1.291   .     A
C96    O132    1.285   .     A
C97    O134    1.294   .     A
C97    O135    1.301   .     A
C97    C99     1.465   .     S
C98    C111    1.395   .     A
C98    C512    1.405   1_554 S
C98    H31     1.084   1_655 S
C99    C110    1.397   .     A
C99    C111    1.398   .     A
C100   C101    1.390   .     A
C101   C508    1.386   .     S
C102   C105    1.420   .     A
C102   C508    1.414   .     S
C102   C511    1.425   .     S
C103   H123    1.077   .     S
C103   C507    1.414   1_554 S
C103   C506    1.386   1_554 S
C104   N127    1.158   .     T
C104   C10     1.446   1_655 S
C105   C109    1.414   .     A
C106   C110    1.403   .     A
C106   C507    1.425   1_554 S
C106   C512    1.419   1_554 S
C107   C108    1.392   .     A
C107   C511    1.419   .     S
C107   C503    1.405   .     S
C108   H120    1.084   .     S
C108   C109    1.388   .     A
C109   H115    1.080   .     S
C110   H122    1.076   .     S
C111   H114    1.083   .     S
Cu112  N126    2.018   .     S
Cu112  O130    1.939   .     S
Cu112  O132    1.952   .     S
Cu112  O128    1.956   .     S
Cu112  Cu113   2.685   .     S
Cu112  O134    1.916   .     S
Cu113  O131    1.916   .     S
Cu113  O135    1.939   .     S
Cu113  N125    2.018   .     S
Cu113  O129    1.952   .     S
Cu113  O133    1.956   .     S
H116   C363    1.088   1_545 S
H117   C230    1.088   .     S
H119   N36     1.029   1_655 S
H124   C11     1.085   1_655 S
N125   H28     1.029   1_655 S
N125   N36     1.284   1_655 S
C136   O173    1.291   .     A
C136   O174    1.285   .     A
C136   C138    1.428   .     S
C137   C139    1.488   .     S
C137   C150    1.428   .     A
C137   C145    1.421   .     A
C138   C275    1.328   .     S
C138   H296    1.088   .     S
C139   O176    1.300   .     A
C139   O175    1.303   .     A
C140   C141    1.428   .     S
C141   O178    1.291   .     A
C141   O177    1.285   .     A
C142   O179    1.294   .     A
C142   O180    1.301   .     A
C142   C144    1.465   .     S
C143   C156    1.395   .     A
C143   C557    1.405   1_554 S
C143   H211    1.084   .     S
C144   C155    1.397   .     A
C144   C156    1.398   .     A
C145   C146    1.390   .     A
C145   C239    1.446   1_455 S
C146   C553    1.386   .     S
C146   H259    1.085   1_455 S
C147   C150    1.420   .     A
C147   C553    1.414   .     S
C147   C556    1.425   .     S
C148   H168    1.077   .     S
C148   C552    1.414   1_554 S
C148   C551    1.386   1_554 S
C149   N172    1.158   .     T
C149   C190    1.446   .     S
C150   C154    1.414   .     A
C151   C155    1.403   .     A
C151   C552    1.425   1_554 S
C151   C557    1.419   1_554 S
C152   C153    1.392   .     A
C152   C556    1.419   .     S
C152   C548    1.405   .     S
C153   H165    1.084   .     S
C153   C154    1.388   .     A
C154   H160    1.080   .     S
C155   H167    1.076   .     S
C156   H159    1.083   .     S
Cu157  N171    2.018   .     S
Cu157  O175    1.939   .     S
Cu157  O177    1.952   .     S
Cu157  O173    1.956   .     S
Cu157  Cu158   2.685   .     S
Cu157  O179    1.916   .     S
Cu158  O176    1.916   .     S
Cu158  O180    1.939   .     S
Cu158  N170    2.018   .     S
Cu158  O174    1.952   .     S
Cu158  O178    1.956   .     S
H162   C275    1.088   .     S
H163   N260    1.029   1_455 S
H164   N216    1.029   .     S
H166   C233    1.084   1_455 S
H169   C191    1.085   .     S
N170   H208    1.029   .     S
N170   N216    1.284   .     S
N171   N260    1.284   1_455 S
N171   H254    1.029   1_455 S
C181   O218    1.291   .     A
C181   O219    1.285   .     A
C181   C183    1.428   .     S
C182   C184    1.488   .     S
C182   C195    1.428   .     A
C182   C190    1.421   .     A
C183   C320    1.328   .     S
C183   H341    1.088   .     S
C184   O221    1.300   .     A
C184   O220    1.303   .     A
C185   C186    1.428   .     S
C186   O223    1.291   .     A
C186   O222    1.285   .     A
C187   O224    1.294   .     A
C187   O225    1.301   .     A
C187   C189    1.465   .     S
C188   C201    1.395   .     A
C188   C602    1.405   1_554 S
C188   H256    1.084   .     S
C189   C200    1.397   .     A
C189   C201    1.398   .     A
C190   C191    1.390   .     A
C191   C598    1.386   .     S
C192   C195    1.420   .     A
C192   C598    1.414   .     S
C192   C601    1.425   .     S
C193   H213    1.077   .     S
C193   C597    1.414   1_554 S
C193   C596    1.386   1_554 S
C194   N217    1.158   .     T
C194   C235    1.446   .     S
C195   C199    1.414   .     A
C196   C200    1.403   .     A
C196   C597    1.425   1_554 S
C196   C602    1.419   1_554 S
C197   C198    1.392   .     A
C197   C601    1.419   .     S
C197   C593    1.405   .     S
C198   H210    1.084   .     S
C198   C199    1.388   .     A
C199   H205    1.080   .     S
C200   H212    1.076   .     S
C201   H204    1.083   .     S
Cu202  N216    2.018   .     S
Cu202  O220    1.939   .     S
Cu202  O222    1.952   .     S
Cu202  O218    1.956   .     S
Cu202  Cu203   2.685   .     S
Cu202  O224    1.916   .     S
Cu203  O221    1.916   .     S
Cu203  O225    1.939   .     S
Cu203  N215    2.018   .     S
Cu203  O219    1.952   .     S
Cu203  O223    1.956   .     S
H207   C320    1.088   .     S
H209   N261    1.029   .     S
H214   C236    1.085   .     S
N215   H253    1.029   .     S
N215   N261    1.284   .     S
C226   O263    1.291   .     A
C226   O264    1.285   .     A
C226   C228    1.428   .     S
C227   C229    1.488   .     S
C227   C240    1.428   .     A
C227   C235    1.421   .     A
C228   C365    1.328   .     S
C228   H386    1.088   .     S
C229   O266    1.300   .     A
C229   O265    1.303   .     A
C230   C231    1.428   .     S
C231   O268    1.291   .     A
C231   O267    1.285   .     A
C232   O269    1.294   .     A
C232   O270    1.301   .     A
C232   C234    1.465   .     S
C233   C246    1.395   .     A
C233   C647    1.405   1_554 S
C233   H166    1.084   1_655 S
C234   C245    1.397   .     A
C234   C246    1.398   .     A
C235   C236    1.390   .     A
C236   C643    1.386   .     S
C237   C240    1.420   .     A
C237   C643    1.414   .     S
C237   C646    1.425   .     S
C238   H258    1.077   .     S
C238   C642    1.414   1_554 S
C238   C641    1.386   1_554 S
C239   N262    1.158   .     T
C239   C145    1.446   1_655 S
C240   C244    1.414   .     A
C241   C245    1.403   .     A
C241   C642    1.425   1_554 S
C241   C647    1.419   1_554 S
C242   C243    1.392   .     A
C242   C646    1.419   .     S
C242   C638    1.405   .     S
C243   H255    1.084   .     S
C243   C244    1.388   .     A
C244   H250    1.080   .     S
C245   H257    1.076   .     S
C246   H249    1.083   .     S
Cu247  N261    2.018   .     S
Cu247  O265    1.939   .     S
Cu247  O267    1.952   .     S
Cu247  O263    1.956   .     S
Cu247  Cu248   2.685   .     S
Cu247  O269    1.916   .     S
Cu248  O266    1.916   .     S
Cu248  O270    1.939   .     S
Cu248  N260    2.018   .     S
Cu248  O264    1.952   .     S
Cu248  O268    1.956   .     S
H252   C365    1.088   .     S
H254   N171    1.029   1_655 S
H259   C146    1.085   1_655 S
N260   H163    1.029   1_655 S
N260   N171    1.284   1_655 S
C271   O308    1.291   .     A
C271   O309    1.285   .     A
C271   C273    1.428   .     S
C272   C274    1.488   .     S
C272   C285    1.428   .     A
C272   C280    1.421   .     A
C273   C5      1.328   1_565 S
C273   H26     1.088   1_565 S
C274   O311    1.300   .     A
C274   O310    1.303   .     A
C275   C276    1.428   .     S
C276   O313    1.291   .     A
C276   O312    1.285   .     A
C277   O314    1.294   .     A
C277   O315    1.301   .     A
C277   C279    1.465   .     S
C278   C291    1.395   .     A
C278   C692    1.405   1_554 S
C278   H346    1.084   .     S
C279   C290    1.397   .     A
C279   C291    1.398   .     A
C280   C281    1.390   .     A
C280   C374    1.446   1_455 S
C281   C688    1.386   .     S
C281   H394    1.085   1_455 S
C282   C285    1.420   .     A
C282   C688    1.414   .     S
C282   C691    1.425   .     S
C283   H303    1.077   .     S
C283   C687    1.414   1_554 S
C283   C686    1.386   1_554 S
C284   N307    1.158   .     T
C284   C325    1.446   .     S
C285   C289    1.414   .     A
C286   C290    1.403   .     A
C286   C687    1.425   1_554 S
C286   C692    1.419   1_554 S
C287   C288    1.392   .     A
C287   C691    1.419   .     S
C287   C683    1.405   .     S
C288   H300    1.084   .     S
C288   C289    1.388   .     A
C289   H295    1.080   .     S
C290   H302    1.076   .     S
C291   H294    1.083   .     S
Cu292  N306    2.018   .     S
Cu292  O310    1.939   .     S
Cu292  O312    1.952   .     S
Cu292  O308    1.956   .     S
Cu292  Cu293   2.685   .     S
Cu292  O314    1.916   .     S
Cu293  O311    1.916   .     S
Cu293  O315    1.939   .     S
Cu293  N305    2.018   .     S
Cu293  O309    1.952   .     S
Cu293  O313    1.956   .     S
H297   C5      1.088   1_565 S
H298   N395    1.029   1_455 S
H299   N351    1.029   .     S
H301   C368    1.084   1_455 S
H304   C326    1.085   .     S
N305   H343    1.029   .     S
N305   N351    1.284   .     S
N306   N395    1.284   1_455 S
N306   H389    1.029   1_455 S
C316   O353    1.291   .     A
C316   O354    1.285   .     A
C316   C318    1.428   .     S
C317   C319    1.488   .     S
C317   C330    1.428   .     A
C317   C325    1.421   .     A
C318   C50     1.328   1_565 S
C318   H71     1.088   1_565 S
C319   O356    1.300   .     A
C319   O355    1.303   .     A
C320   C321    1.428   .     S
C321   O358    1.291   .     A
C321   O357    1.285   .     A
C322   O359    1.294   .     A
C322   O360    1.301   .     A
C322   C324    1.465   .     S
C323   C336    1.395   .     A
C323   C737    1.405   1_554 S
C323   H391    1.084   .     S
C324   C335    1.397   .     A
C324   C336    1.398   .     A
C325   C326    1.390   .     A
C326   C733    1.386   .     S
C327   C330    1.420   .     A
C327   C733    1.414   .     S
C327   C736    1.425   .     S
C328   H348    1.077   .     S
C328   C732    1.414   1_554 S
C328   C731    1.386   1_554 S
C329   N352    1.158   .     T
C329   C370    1.446   .     S
C330   C334    1.414   .     A
C331   C335    1.403   .     A
C331   C732    1.425   1_554 S
C331   C737    1.419   1_554 S
C332   C333    1.392   .     A
C332   C736    1.419   .     S
C332   C728    1.405   .     S
C333   H345    1.084   .     S
C333   C334    1.388   .     A
C334   H340    1.080   .     S
C335   H347    1.076   .     S
C336   H339    1.083   .     S
Cu337  N351    2.018   .     S
Cu337  O355    1.939   .     S
Cu337  O357    1.952   .     S
Cu337  O353    1.956   .     S
Cu337  Cu338   2.685   .     S
Cu337  O359    1.916   .     S
Cu338  O356    1.916   .     S
Cu338  O360    1.939   .     S
Cu338  N350    2.018   .     S
Cu338  O354    1.952   .     S
Cu338  O358    1.956   .     S
H342   C50     1.088   1_565 S
H344   N396    1.029   .     S
H349   C371    1.085   .     S
N350   H388    1.029   .     S
N350   N396    1.284   .     S
C361   O398    1.291   .     A
C361   O399    1.285   .     A
C361   C363    1.428   .     S
C362   C364    1.488   .     S
C362   C375    1.428   .     A
C362   C370    1.421   .     A
C363   C95     1.328   1_565 S
C363   H116    1.088   1_565 S
C364   O401    1.300   .     A
C364   O400    1.303   .     A
C365   C366    1.428   .     S
C366   O403    1.291   .     A
C366   O402    1.285   .     A
C367   O404    1.294   .     A
C367   O405    1.301   .     A
C367   C369    1.465   .     S
C368   C381    1.395   .     A
C368   C782    1.405   1_554 S
C368   H301    1.084   1_655 S
C369   C380    1.397   .     A
C369   C381    1.398   .     A
C370   C371    1.390   .     A
C371   C778    1.386   .     S
C372   C375    1.420   .     A
C372   C778    1.414   .     S
C372   C781    1.425   .     S
C373   H393    1.077   .     S
C373   C777    1.414   1_554 S
C373   C776    1.386   1_554 S
C374   N397    1.158   .     T
C374   C280    1.446   1_655 S
C375   C379    1.414   .     A
C376   C380    1.403   .     A
C376   C777    1.425   1_554 S
C376   C782    1.419   1_554 S
C377   C378    1.392   .     A
C377   C781    1.419   .     S
C377   C773    1.405   .     S
C378   H390    1.084   .     S
C378   C379    1.388   .     A
C379   H385    1.080   .     S
C380   H392    1.076   .     S
C381   H384    1.083   .     S
Cu382  N396    2.018   .     S
Cu382  O400    1.939   .     S
Cu382  O402    1.952   .     S
Cu382  O398    1.956   .     S
Cu382  Cu383   2.685   .     S
Cu382  O404    1.916   .     S
Cu383  O401    1.916   .     S
Cu383  O405    1.939   .     S
Cu383  N395    2.018   .     S
Cu383  O399    1.952   .     S
Cu383  O403    1.956   .     S
H387   C95     1.088   1_565 S
H389   N306    1.029   1_655 S
H394   C281    1.085   1_655 S
N395   H298    1.029   1_655 S
N395   N306    1.284   1_655 S
C406   O443    1.291   .     A
C406   O444    1.285   .     A
C406   C408    1.428   .     S
C407   C409    1.488   .     S
C407   C420    1.428   .     A
C407   C415    1.421   .     A
C408   C545    1.328   .     S
C408   H566    1.088   .     S
C409   O446    1.300   .     A
C409   O445    1.303   .     A
C410   C411    1.428   .     S
C410   C678    1.328   1_545 S
C410   H702    1.088   1_545 S
C411   O448    1.291   .     A
C411   O447    1.285   .     A
C412   O449    1.294   .     A
C412   O450    1.301   .     A
C412   C414    1.465   .     S
C413   C426    1.395   .     A
C413   H481    1.084   .     S
C414   C425    1.397   .     A
C414   C426    1.398   .     A
C415   C416    1.390   .     A
C415   C509    1.446   1_455 S
C416   C13     1.386   1_556 S
C416   H529    1.085   1_455 S
C417   C420    1.420   .     A
C417   C13     1.414   1_556 S
C417   C16     1.425   1_556 S
C418   H438    1.077   .     S
C419   N442    1.158   .     T
C419   C460    1.446   .     S
C420   C424    1.414   .     A
C421   C425    1.403   .     A
C422   C423    1.392   .     A
C422   C16     1.419   1_556 S
C422   C8      1.405   1_556 S
C423   H435    1.084   .     S
C423   C424    1.388   .     A
C424   H430    1.080   .     S
C425   H437    1.076   .     S
C426   H429    1.083   .     S
Cu427  N441    2.018   .     S
Cu427  O445    1.939   .     S
Cu427  O447    1.952   .     S
Cu427  O443    1.956   .     S
Cu427  Cu428   2.685   .     S
Cu427  O449    1.916   .     S
Cu428  O446    1.916   .     S
Cu428  O450    1.939   .     S
Cu428  N440    2.018   .     S
Cu428  O444    1.952   .     S
Cu428  O448    1.956   .     S
H431   C678    1.088   1_545 S
H432   C545    1.088   .     S
H433   N530    1.029   1_455 S
H434   N486    1.029   .     S
H436   C503    1.084   1_455 S
H439   C461    1.085   .     S
N440   H478    1.029   .     S
N440   N486    1.284   .     S
N441   N530    1.284   1_455 S
N441   H524    1.029   1_455 S
C451   O488    1.291   .     A
C451   O489    1.285   .     A
C451   C453    1.428   .     S
C452   C454    1.488   .     S
C452   C465    1.428   .     A
C452   C460    1.421   .     A
C453   C590    1.328   .     S
C453   H611    1.088   .     S
C454   O491    1.300   .     A
C454   O490    1.303   .     A
C455   C456    1.428   .     S
C455   C723    1.328   1_545 S
C455   H747    1.088   1_545 S
C456   O493    1.291   .     A
C456   O492    1.285   .     A
C457   O494    1.294   .     A
C457   O495    1.301   .     A
C457   C459    1.465   .     S
C458   C471    1.395   .     A
C458   H526    1.084   .     S
C459   C470    1.397   .     A
C459   C471    1.398   .     A
C460   C461    1.390   .     A
C461   C58     1.386   1_556 S
C462   C465    1.420   .     A
C462   C58     1.414   1_556 S
C462   C61     1.425   1_556 S
C463   H483    1.077   .     S
C464   N487    1.158   .     T
C464   C505    1.446   .     S
C465   C469    1.414   .     A
C466   C470    1.403   .     A
C467   C468    1.392   .     A
C467   C61     1.419   1_556 S
C467   C53     1.405   1_556 S
C468   H480    1.084   .     S
C468   C469    1.388   .     A
C469   H475    1.080   .     S
C470   H482    1.076   .     S
C471   H474    1.083   .     S
Cu472  N486    2.018   .     S
Cu472  O490    1.939   .     S
Cu472  O492    1.952   .     S
Cu472  O488    1.956   .     S
Cu472  Cu473   2.685   .     S
Cu472  O494    1.916   .     S
Cu473  O491    1.916   .     S
Cu473  O495    1.939   .     S
Cu473  N485    2.018   .     S
Cu473  O489    1.952   .     S
Cu473  O493    1.956   .     S
H476   C723    1.088   1_545 S
H477   C590    1.088   .     S
H479   N531    1.029   .     S
H484   C506    1.085   .     S
N485   H523    1.029   .     S
N485   N531    1.284   .     S
C496   O533    1.291   .     A
C496   O534    1.285   .     A
C496   C498    1.428   .     S
C497   C499    1.488   .     S
C497   C510    1.428   .     A
C497   C505    1.421   .     A
C498   C635    1.328   .     S
C498   H656    1.088   .     S
C499   O536    1.300   .     A
C499   O535    1.303   .     A
C500   C501    1.428   .     S
C500   C768    1.328   1_545 S
C500   H792    1.088   1_545 S
C501   O538    1.291   .     A
C501   O537    1.285   .     A
C502   O539    1.294   .     A
C502   O540    1.301   .     A
C502   C504    1.465   .     S
C503   C516    1.395   .     A
C503   H436    1.084   1_655 S
C504   C515    1.397   .     A
C504   C516    1.398   .     A
C505   C506    1.390   .     A
C506   C103    1.386   1_556 S
C507   C510    1.420   .     A
C507   C103    1.414   1_556 S
C507   C106    1.425   1_556 S
C508   H528    1.077   .     S
C509   N532    1.158   .     T
C509   C415    1.446   1_655 S
C510   C514    1.414   .     A
C511   C515    1.403   .     A
C512   C513    1.392   .     A
C512   C106    1.419   1_556 S
C512   C98     1.405   1_556 S
C513   H525    1.084   .     S
C513   C514    1.388   .     A
C514   H520    1.080   .     S
C515   H527    1.076   .     S
C516   H519    1.083   .     S
Cu517  N531    2.018   .     S
Cu517  O535    1.939   .     S
Cu517  O537    1.952   .     S
Cu517  O533    1.956   .     S
Cu517  Cu518   2.685   .     S
Cu517  O539    1.916   .     S
Cu518  O536    1.916   .     S
Cu518  O540    1.939   .     S
Cu518  N530    2.018   .     S
Cu518  O534    1.952   .     S
Cu518  O538    1.956   .     S
H521   C768    1.088   1_545 S
H522   C635    1.088   .     S
H524   N441    1.029   1_655 S
H529   C416    1.085   1_655 S
N530   H433    1.029   1_655 S
N530   N441    1.284   1_655 S
C541   O578    1.291   .     A
C541   O579    1.285   .     A
C541   C543    1.428   .     S
C542   C544    1.488   .     S
C542   C555    1.428   .     A
C542   C550    1.421   .     A
C543   C680    1.328   .     S
C543   H701    1.088   .     S
C544   O581    1.300   .     A
C544   O580    1.303   .     A
C545   C546    1.428   .     S
C546   O583    1.291   .     A
C546   O582    1.285   .     A
C547   O584    1.294   .     A
C547   O585    1.301   .     A
C547   C549    1.465   .     S
C548   C561    1.395   .     A
C548   H616    1.084   .     S
C549   C560    1.397   .     A
C549   C561    1.398   .     A
C550   C551    1.390   .     A
C550   C644    1.446   1_455 S
C551   C148    1.386   1_556 S
C551   H664    1.085   1_455 S
C552   C555    1.420   .     A
C552   C148    1.414   1_556 S
C552   C151    1.425   1_556 S
C553   H573    1.077   .     S
C554   N577    1.158   .     T
C554   C595    1.446   .     S
C555   C559    1.414   .     A
C556   C560    1.403   .     A
C557   C558    1.392   .     A
C557   C151    1.419   1_556 S
C557   C143    1.405   1_556 S
C558   H570    1.084   .     S
C558   C559    1.388   .     A
C559   H565    1.080   .     S
C560   H572    1.076   .     S
C561   H564    1.083   .     S
Cu562  N576    2.018   .     S
Cu562  O580    1.939   .     S
Cu562  O582    1.952   .     S
Cu562  O578    1.956   .     S
Cu562  Cu563   2.685   .     S
Cu562  O584    1.916   .     S
Cu563  O581    1.916   .     S
Cu563  O585    1.939   .     S
Cu563  N575    2.018   .     S
Cu563  O579    1.952   .     S
Cu563  O583    1.956   .     S
H567   C680    1.088   .     S
H568   N665    1.029   1_455 S
H569   N621    1.029   .     S
H571   C638    1.084   1_455 S
H574   C596    1.085   .     S
N575   H613    1.029   .     S
N575   N621    1.284   .     S
N576   N665    1.284   1_455 S
N576   H659    1.029   1_455 S
C586   O623    1.291   .     A
C586   O624    1.285   .     A
C586   C588    1.428   .     S
C587   C589    1.488   .     S
C587   C600    1.428   .     A
C587   C595    1.421   .     A
C588   C725    1.328   .     S
C588   H746    1.088   .     S
C589   O626    1.300   .     A
C589   O625    1.303   .     A
C590   C591    1.428   .     S
C591   O628    1.291   .     A
C591   O627    1.285   .     A
C592   O629    1.294   .     A
C592   O630    1.301   .     A
C592   C594    1.465   .     S
C593   C606    1.395   .     A
C593   H661    1.084   .     S
C594   C605    1.397   .     A
C594   C606    1.398   .     A
C595   C596    1.390   .     A
C596   C193    1.386   1_556 S
C597   C600    1.420   .     A
C597   C193    1.414   1_556 S
C597   C196    1.425   1_556 S
C598   H618    1.077   .     S
C599   N622    1.158   .     T
C599   C640    1.446   .     S
C600   C604    1.414   .     A
C601   C605    1.403   .     A
C602   C603    1.392   .     A
C602   C196    1.419   1_556 S
C602   C188    1.405   1_556 S
C603   H615    1.084   .     S
C603   C604    1.388   .     A
C604   H610    1.080   .     S
C605   H617    1.076   .     S
C606   H609    1.083   .     S
Cu607  N621    2.018   .     S
Cu607  O625    1.939   .     S
Cu607  O627    1.952   .     S
Cu607  O623    1.956   .     S
Cu607  Cu608   2.685   .     S
Cu607  O629    1.916   .     S
Cu608  O626    1.916   .     S
Cu608  O630    1.939   .     S
Cu608  N620    2.018   .     S
Cu608  O624    1.952   .     S
Cu608  O628    1.956   .     S
H612   C725    1.088   .     S
H614   N666    1.029   .     S
H619   C641    1.085   .     S
N620   H658    1.029   .     S
N620   N666    1.284   .     S
C631   O668    1.291   .     A
C631   O669    1.285   .     A
C631   C633    1.428   .     S
C632   C634    1.488   .     S
C632   C645    1.428   .     A
C632   C640    1.421   .     A
C633   C770    1.328   .     S
C633   H791    1.088   .     S
C634   O671    1.300   .     A
C634   O670    1.303   .     A
C635   C636    1.428   .     S
C636   O673    1.291   .     A
C636   O672    1.285   .     A
C637   O674    1.294   .     A
C637   O675    1.301   .     A
C637   C639    1.465   .     S
C638   C651    1.395   .     A
C638   H571    1.084   1_655 S
C639   C650    1.397   .     A
C639   C651    1.398   .     A
C640   C641    1.390   .     A
C641   C238    1.386   1_556 S
C642   C645    1.420   .     A
C642   C238    1.414   1_556 S
C642   C241    1.425   1_556 S
C643   H663    1.077   .     S
C644   N667    1.158   .     T
C644   C550    1.446   1_655 S
C645   C649    1.414   .     A
C646   C650    1.403   .     A
C647   C648    1.392   .     A
C647   C241    1.419   1_556 S
C647   C233    1.405   1_556 S
C648   H660    1.084   .     S
C648   C649    1.388   .     A
C649   H655    1.080   .     S
C650   H662    1.076   .     S
C651   H654    1.083   .     S
Cu652  N666    2.018   .     S
Cu652  O670    1.939   .     S
Cu652  O672    1.952   .     S
Cu652  O668    1.956   .     S
Cu652  Cu653   2.685   .     S
Cu652  O674    1.916   .     S
Cu653  O671    1.916   .     S
Cu653  O675    1.939   .     S
Cu653  N665    2.018   .     S
Cu653  O669    1.952   .     S
Cu653  O673    1.956   .     S
H657   C770    1.088   .     S
H659   N576    1.029   1_655 S
H664   C551    1.085   1_655 S
N665   H568    1.029   1_655 S
N665   N576    1.284   1_655 S
C676   O713    1.291   .     A
C676   O714    1.285   .     A
C676   C678    1.428   .     S
C677   C679    1.488   .     S
C677   C690    1.428   .     A
C677   C685    1.421   .     A
C678   C410    1.328   1_565 S
C678   H431    1.088   1_565 S
C679   O716    1.300   .     A
C679   O715    1.303   .     A
C680   C681    1.428   .     S
C681   O718    1.291   .     A
C681   O717    1.285   .     A
C682   O719    1.294   .     A
C682   O720    1.301   .     A
C682   C684    1.465   .     S
C683   C696    1.395   .     A
C683   H751    1.084   .     S
C684   C695    1.397   .     A
C684   C696    1.398   .     A
C685   C686    1.390   .     A
C685   C779    1.446   1_455 S
C686   C283    1.386   1_556 S
C686   H799    1.085   1_455 S
C687   C690    1.420   .     A
C687   C283    1.414   1_556 S
C687   C286    1.425   1_556 S
C688   H708    1.077   .     S
C689   N712    1.158   .     T
C689   C730    1.446   .     S
C690   C694    1.414   .     A
C691   C695    1.403   .     A
C692   C693    1.392   .     A
C692   C286    1.419   1_556 S
C692   C278    1.405   1_556 S
C693   H705    1.084   .     S
C693   C694    1.388   .     A
C694   H700    1.080   .     S
C695   H707    1.076   .     S
C696   H699    1.083   .     S
Cu697  N711    2.018   .     S
Cu697  O715    1.939   .     S
Cu697  O717    1.952   .     S
Cu697  O713    1.956   .     S
Cu697  Cu698   2.685   .     S
Cu697  O719    1.916   .     S
Cu698  O716    1.916   .     S
Cu698  O720    1.939   .     S
Cu698  N710    2.018   .     S
Cu698  O714    1.952   .     S
Cu698  O718    1.956   .     S
H702   C410    1.088   1_565 S
H703   N800    1.029   1_455 S
H704   N756    1.029   .     S
H706   C773    1.084   1_455 S
H709   C731    1.085   .     S
N710   H748    1.029   .     S
N710   N756    1.284   .     S
N711   N800    1.284   1_455 S
N711   H794    1.029   1_455 S
C721   O758    1.291   .     A
C721   O759    1.285   .     A
C721   C723    1.428   .     S
C722   C724    1.488   .     S
C722   C735    1.428   .     A
C722   C730    1.421   .     A
C723   C455    1.328   1_565 S
C723   H476    1.088   1_565 S
C724   O761    1.300   .     A
C724   O760    1.303   .     A
C725   C726    1.428   .     S
C726   O763    1.291   .     A
C726   O762    1.285   .     A
C727   O764    1.294   .     A
C727   O765    1.301   .     A
C727   C729    1.465   .     S
C728   C741    1.395   .     A
C728   H796    1.084   .     S
C729   C740    1.397   .     A
C729   C741    1.398   .     A
C730   C731    1.390   .     A
C731   C328    1.386   1_556 S
C732   C735    1.420   .     A
C732   C328    1.414   1_556 S
C732   C331    1.425   1_556 S
C733   H753    1.077   .     S
C734   N757    1.158   .     T
C734   C775    1.446   .     S
C735   C739    1.414   .     A
C736   C740    1.403   .     A
C737   C738    1.392   .     A
C737   C331    1.419   1_556 S
C737   C323    1.405   1_556 S
C738   H750    1.084   .     S
C738   C739    1.388   .     A
C739   H745    1.080   .     S
C740   H752    1.076   .     S
C741   H744    1.083   .     S
Cu742  N756    2.018   .     S
Cu742  O760    1.939   .     S
Cu742  O762    1.952   .     S
Cu742  O758    1.956   .     S
Cu742  Cu743   2.685   .     S
Cu742  O764    1.916   .     S
Cu743  O761    1.916   .     S
Cu743  O765    1.939   .     S
Cu743  N755    2.018   .     S
Cu743  O759    1.952   .     S
Cu743  O763    1.956   .     S
H747   C455    1.088   1_565 S
H749   N801    1.029   .     S
H754   C776    1.085   .     S
N755   H793    1.029   .     S
N755   N801    1.284   .     S
C766   O803    1.291   .     A
C766   O804    1.285   .     A
C766   C768    1.428   .     S
C767   C769    1.488   .     S
C767   C780    1.428   .     A
C767   C775    1.421   .     A
C768   C500    1.328   1_565 S
C768   H521    1.088   1_565 S
C769   O806    1.300   .     A
C769   O805    1.303   .     A
C770   C771    1.428   .     S
C771   O808    1.291   .     A
C771   O807    1.285   .     A
C772   O809    1.294   .     A
C772   O810    1.301   .     A
C772   C774    1.465   .     S
C773   C786    1.395   .     A
C773   H706    1.084   1_655 S
C774   C785    1.397   .     A
C774   C786    1.398   .     A
C775   C776    1.390   .     A
C776   C373    1.386   1_556 S
C777   C780    1.420   .     A
C777   C373    1.414   1_556 S
C777   C376    1.425   1_556 S
C778   H798    1.077   .     S
C779   N802    1.158   .     T
C779   C685    1.446   1_655 S
C780   C784    1.414   .     A
C781   C785    1.403   .     A
C782   C783    1.392   .     A
C782   C376    1.419   1_556 S
C782   C368    1.405   1_556 S
C783   H795    1.084   .     S
C783   C784    1.388   .     A
C784   H790    1.080   .     S
C785   H797    1.076   .     S
C786   H789    1.083   .     S
Cu787  N801    2.018   .     S
Cu787  O805    1.939   .     S
Cu787  O807    1.952   .     S
Cu787  O803    1.956   .     S
Cu787  Cu788   2.685   .     S
Cu787  O809    1.916   .     S
Cu788  O806    1.916   .     S
Cu788  O810    1.939   .     S
Cu788  N800    2.018   .     S
Cu788  O804    1.952   .     S
Cu788  O808    1.956   .     S
H792   C500    1.088   1_565 S
H794   N711    1.029   1_655 S
H799   C686    1.085   1_655 S
N800   H703    1.029   1_655 S
N800   N711    1.284   1_655 S
