data_str_m2_o1_o16_pcu_sym.104
_audit_creation_date              2020-01-03
_audit_creation_method            'Materials Studio'
_symmetry_space_group_name_H-M    'P1'
_symmetry_Int_Tables_number       1
_symmetry_cell_setting            triclinic
loop_
_symmetry_equiv_pos_as_xyz
  x,y,z
_cell_length_a                    28.9794
_cell_length_b                    32.2698
_cell_length_c                    26.8965
_cell_angle_alpha                 91.7038
_cell_angle_beta                  73.7804
_cell_angle_gamma                 89.9358
loop_
_atom_site_label
_atom_site_type_symbol
_atom_site_fract_x
_atom_site_fract_y
_atom_site_fract_z
_atom_site_U_iso_or_equiv
_atom_site_adp_type
_atom_site_occupancy
C1     C     0.16660   0.24585   0.25058   0.00000  Uiso   1.00
C2     C     0.12987   0.14462   0.40216   0.00000  Uiso   1.00
C3     C     0.20688   0.31108   0.22005   0.00000  Uiso   1.00
C4     C     0.14183   0.15970   0.34828   0.00000  Uiso   1.00
C5     C     0.20704   0.02072   0.21983   0.00000  Uiso   1.00
C6     C     0.16717   0.04305   0.25024   0.00000  Uiso   1.00
C7     C     0.12802   0.02271   0.28213   0.00000  Uiso   1.00
C8     C     0.12818   0.31325   0.28283   0.00000  Uiso   1.00
C9     C     0.16701   0.29063   0.25094   0.00000  Uiso   1.00
C10    C     0.30147   0.19796   0.27317   0.00000  Uiso   1.00
C11    C     0.01732   0.19943   0.27228   0.00000  Uiso   1.00
C12    C     0.15040   0.14354   0.48466   0.00000  Uiso   1.00
C13    C     0.02801   0.13281   0.23075   0.00000  Uiso   1.00
C14    C     0.31370   0.13543   0.22674   0.00000  Uiso   1.00
C15    C     0.16683   0.08759   0.24975   0.00000  Uiso   1.00
C16    C     0.19199   0.16768   0.15019   0.00000  Uiso   1.00
C17    C     0.26873   0.16404   0.01210   0.00000  Uiso   1.00
C18    C     0.20563   0.16660   0.09310   0.00000  Uiso   1.00
C19    C     0.08296   0.13104   0.42724   0.00000  Uiso   1.00
C20    C     0.07076   0.12292   0.47974   0.00000  Uiso   1.00
C21    C     0.10334   0.12947   0.00910   0.00000  Uiso   1.00
C22    C     0.02944   0.23890   0.29803   0.00000  Uiso   1.00
C23    C     0.16525   0.14351   0.42993   0.00000  Uiso   1.00
C24    C     0.03871   0.23241   0.35058   0.00000  Uiso   1.00
C25    C     0.04634   0.08824   0.22475   0.00000  Uiso   1.00
C26    C     0.08315   0.07774   0.17307   0.00000  Uiso   1.00
C27    C     0.18475   0.15387   0.01214   0.00000  Uiso   1.00
C28    C     0.23444   0.15455   0.48507   0.00000  Uiso   1.00
C29    C     0.24881   0.14443   0.43213   0.00000  Uiso   1.00
C30    C     0.21492   0.13900   0.40512   0.00000  Uiso   1.00
C31    C     0.17077   0.16589   0.06505   0.00000  Uiso   1.00
C32    C     0.25440   0.16607   0.06585   0.00000  Uiso   1.00
Cu33   Cu    0.11978   0.16666   0.25000   0.00000  Uiso   1.00
Cu34   Cu    0.21355   0.16667   0.25000   0.00000  Uiso   1.00
H35    H     0.28169   0.16979   0.08613   0.00000  Uiso   1.00
H36    H     0.23741   0.29384   0.19574   0.00000  Uiso   1.00
H37    H     0.02526   0.20189   0.36617   0.00000  Uiso   1.00
H38    H     0.07736   0.23539   0.34775   0.00000  Uiso   1.00
H39    H     0.01976   0.25674   0.37914   0.00000  Uiso   1.00
H40    H     0.05599   0.25745   0.27072   0.00000  Uiso   1.00
H41    H     0.33200   0.26117   0.30657   0.00000  Uiso   1.00
H42    H     0.06438   0.07318   0.14268   0.00000  Uiso   1.00
H43    H     0.11010   0.10222   0.16122   0.00000  Uiso   1.00
H44    H     0.10191   0.04827   0.17599   0.00000  Uiso   1.00
H45    H     0.05600   0.07877   0.25956   0.00000  Uiso   1.00
H46    H     0.23771   0.03649   0.19543   0.00000  Uiso   1.00
H47    H     0.01643   0.06616   0.22659   0.00000  Uiso   1.00
H48    H     0.31799   0.18499   0.45429   0.00000  Uiso   1.00
H49    H     0.10756   0.17091   0.11392   0.00000  Uiso   1.00
H50    H     0.06604   0.10881   0.36743   0.00000  Uiso   1.00
H51    H     0.05734   0.10925   0.07081   0.00000  Uiso   1.00
H52    H     0.09800   0.03991   0.30741   0.00000  Uiso   1.00
H53    H     0.09866   0.29823   0.30937   0.00000  Uiso   1.00
H54    H     0.27653   0.22235   0.29212   0.00000  Uiso   1.00
H55    H     0.29864   0.11026   0.20898   0.00000  Uiso   1.00
H56    H     0.28629   0.14019   0.41105   0.00000  Uiso   1.00
H57    H     0.03574   0.11005   0.49759   0.00000  Uiso   1.00
H58    H     0.22865   0.12820   0.36536   0.00000  Uiso   1.00
N59    N     0.04931   0.16666   0.24998   0.00000  Uiso   1.00
N60    N     0.28402   0.16669   0.24999   0.00000  Uiso   1.00
O61    O     0.12708   0.22678   0.25000   0.00000  Uiso   1.00
O62    O     0.12714   0.18617   0.08426   0.00000  Uiso   1.00
O63    O     0.04919   0.12221   0.40126   0.00000  Uiso   1.00
O64    O     0.09189   0.11645   0.05939   0.00000  Uiso   1.00
O65    O     0.20627   0.22679   0.25000   0.00000  Uiso   1.00
O66    O     0.10775   0.16665   0.32549   0.00000  Uiso   1.00
O67    O     0.18694   0.16666   0.32549   0.00000  Uiso   1.00
O68    O     0.12706   0.10654   0.24999   0.00000  Uiso   1.00
O69    O     0.20625   0.10655   0.24999   0.00000  Uiso   1.00
O70    O     0.14640   0.16667   0.17451   0.00000  Uiso   1.00
O71    O     0.22559   0.16668   0.17451   0.00000  Uiso   1.00
O72    O     0.31613   0.17222   0.48776   0.00000  Uiso   1.00
C73    C     0.49993   0.24585   0.25058   0.00000  Uiso   1.00
C74    C     0.46320   0.14462   0.40216   0.00000  Uiso   1.00
C75    C     0.54022   0.31108   0.22005   0.00000  Uiso   1.00
C76    C     0.47516   0.15970   0.34828   0.00000  Uiso   1.00
C77    C     0.54037   0.02072   0.21983   0.00000  Uiso   1.00
C78    C     0.50050   0.04305   0.25024   0.00000  Uiso   1.00
C79    C     0.46135   0.02271   0.28213   0.00000  Uiso   1.00
C80    C     0.46151   0.31325   0.28283   0.00000  Uiso   1.00
C81    C     0.50034   0.29063   0.25094   0.00000  Uiso   1.00
C82    C     0.63480   0.19796   0.27317   0.00000  Uiso   1.00
C83    C     0.35065   0.19943   0.27228   0.00000  Uiso   1.00
C84    C     0.48373   0.14354   0.48466   0.00000  Uiso   1.00
C85    C     0.36134   0.13281   0.23075   0.00000  Uiso   1.00
C86    C     0.64704   0.13543   0.22674   0.00000  Uiso   1.00
C87    C     0.50017   0.08759   0.24975   0.00000  Uiso   1.00
C88    C     0.52532   0.16768   0.15019   0.00000  Uiso   1.00
C89    C     0.60206   0.16404   0.01210   0.00000  Uiso   1.00
C90    C     0.53897   0.16660   0.09310   0.00000  Uiso   1.00
C91    C     0.41630   0.13104   0.42724   0.00000  Uiso   1.00
C92    C     0.40409   0.12292   0.47974   0.00000  Uiso   1.00
C93    C     0.43667   0.12947   0.00910   0.00000  Uiso   1.00
C94    C     0.36277   0.23890   0.29803   0.00000  Uiso   1.00
C95    C     0.49858   0.14351   0.42993   0.00000  Uiso   1.00
C96    C     0.37205   0.23241   0.35058   0.00000  Uiso   1.00
C97    C     0.37967   0.08824   0.22475   0.00000  Uiso   1.00
C98    C     0.41648   0.07774   0.17307   0.00000  Uiso   1.00
C99    C     0.51808   0.15387   0.01214   0.00000  Uiso   1.00
C100   C     0.56778   0.15455   0.48507   0.00000  Uiso   1.00
C101   C     0.58214   0.14443   0.43213   0.00000  Uiso   1.00
C102   C     0.54826   0.13900   0.40512   0.00000  Uiso   1.00
C103   C     0.50411   0.16589   0.06505   0.00000  Uiso   1.00
C104   C     0.58773   0.16607   0.06585   0.00000  Uiso   1.00
Cu105  Cu    0.45311   0.16666   0.25000   0.00000  Uiso   1.00
Cu106  Cu    0.54689   0.16667   0.25000   0.00000  Uiso   1.00
H107   H     0.61502   0.16979   0.08613   0.00000  Uiso   1.00
H108   H     0.57074   0.29384   0.19574   0.00000  Uiso   1.00
H109   H     0.35859   0.20189   0.36617   0.00000  Uiso   1.00
H110   H     0.41070   0.23539   0.34775   0.00000  Uiso   1.00
H111   H     0.35309   0.25674   0.37914   0.00000  Uiso   1.00
H112   H     0.38932   0.25745   0.27072   0.00000  Uiso   1.00
H113   H     0.66533   0.26117   0.30657   0.00000  Uiso   1.00
H114   H     0.39771   0.07318   0.14268   0.00000  Uiso   1.00
H115   H     0.44344   0.10222   0.16122   0.00000  Uiso   1.00
H116   H     0.43524   0.04827   0.17599   0.00000  Uiso   1.00
H117   H     0.38933   0.07877   0.25956   0.00000  Uiso   1.00
H118   H     0.57104   0.03649   0.19543   0.00000  Uiso   1.00
H119   H     0.34976   0.06616   0.22659   0.00000  Uiso   1.00
H120   H     0.65132   0.18499   0.45429   0.00000  Uiso   1.00
H121   H     0.44089   0.17091   0.11392   0.00000  Uiso   1.00
H122   H     0.39937   0.10881   0.36743   0.00000  Uiso   1.00
H123   H     0.39067   0.10925   0.07081   0.00000  Uiso   1.00
H124   H     0.43134   0.03991   0.30741   0.00000  Uiso   1.00
H125   H     0.43199   0.29823   0.30937   0.00000  Uiso   1.00
H126   H     0.60986   0.22235   0.29212   0.00000  Uiso   1.00
H127   H     0.63197   0.11026   0.20898   0.00000  Uiso   1.00
H128   H     0.61962   0.14019   0.41105   0.00000  Uiso   1.00
H129   H     0.36907   0.11005   0.49759   0.00000  Uiso   1.00
H130   H     0.56198   0.12820   0.36536   0.00000  Uiso   1.00
N131   N     0.38265   0.16666   0.24998   0.00000  Uiso   1.00
N132   N     0.61735   0.16669   0.24999   0.00000  Uiso   1.00
O133   O     0.46042   0.22678   0.25000   0.00000  Uiso   1.00
O134   O     0.46047   0.18617   0.08426   0.00000  Uiso   1.00
O135   O     0.38252   0.12221   0.40126   0.00000  Uiso   1.00
O136   O     0.42522   0.11645   0.05939   0.00000  Uiso   1.00
O137   O     0.53961   0.22679   0.25000   0.00000  Uiso   1.00
O138   O     0.44108   0.16665   0.32549   0.00000  Uiso   1.00
O139   O     0.52027   0.16666   0.32549   0.00000  Uiso   1.00
O140   O     0.46039   0.10654   0.24999   0.00000  Uiso   1.00
O141   O     0.53958   0.10655   0.24999   0.00000  Uiso   1.00
O142   O     0.47973   0.16667   0.17451   0.00000  Uiso   1.00
O143   O     0.55892   0.16668   0.17451   0.00000  Uiso   1.00
O144   O     0.64946   0.17222   0.48776   0.00000  Uiso   1.00
C145   C     0.83326   0.24585   0.25058   0.00000  Uiso   1.00
C146   C     0.79653   0.14462   0.40216   0.00000  Uiso   1.00
C147   C     0.87355   0.31108   0.22005   0.00000  Uiso   1.00
C148   C     0.80849   0.15970   0.34828   0.00000  Uiso   1.00
C149   C     0.87371   0.02072   0.21983   0.00000  Uiso   1.00
C150   C     0.83384   0.04305   0.25024   0.00000  Uiso   1.00
C151   C     0.79469   0.02271   0.28213   0.00000  Uiso   1.00
C152   C     0.79485   0.31325   0.28283   0.00000  Uiso   1.00
C153   C     0.83367   0.29063   0.25094   0.00000  Uiso   1.00
C154   C     0.96814   0.19796   0.27317   0.00000  Uiso   1.00
C155   C     0.68398   0.19943   0.27228   0.00000  Uiso   1.00
C156   C     0.81707   0.14354   0.48466   0.00000  Uiso   1.00
C157   C     0.69467   0.13281   0.23075   0.00000  Uiso   1.00
C158   C     0.98037   0.13543   0.22674   0.00000  Uiso   1.00
C159   C     0.83350   0.08759   0.24975   0.00000  Uiso   1.00
C160   C     0.85866   0.16768   0.15019   0.00000  Uiso   1.00
C161   C     0.93539   0.16404   0.01210   0.00000  Uiso   1.00
C162   C     0.87230   0.16660   0.09310   0.00000  Uiso   1.00
C163   C     0.74963   0.13104   0.42724   0.00000  Uiso   1.00
C164   C     0.73743   0.12292   0.47974   0.00000  Uiso   1.00
C165   C     0.77000   0.12947   0.00910   0.00000  Uiso   1.00
C166   C     0.69611   0.23890   0.29803   0.00000  Uiso   1.00
C167   C     0.83191   0.14351   0.42993   0.00000  Uiso   1.00
C168   C     0.70538   0.23241   0.35058   0.00000  Uiso   1.00
C169   C     0.71300   0.08824   0.22475   0.00000  Uiso   1.00
C170   C     0.74982   0.07774   0.17307   0.00000  Uiso   1.00
C171   C     0.85142   0.15387   0.01214   0.00000  Uiso   1.00
C172   C     0.90111   0.15455   0.48507   0.00000  Uiso   1.00
C173   C     0.91547   0.14443   0.43213   0.00000  Uiso   1.00
C174   C     0.88159   0.13900   0.40512   0.00000  Uiso   1.00
C175   C     0.83744   0.16589   0.06505   0.00000  Uiso   1.00
C176   C     0.92107   0.16607   0.06585   0.00000  Uiso   1.00
Cu177  Cu    0.78645   0.16666   0.25000   0.00000  Uiso   1.00
Cu178  Cu    0.88022   0.16667   0.25000   0.00000  Uiso   1.00
H179   H     0.94835   0.16979   0.08613   0.00000  Uiso   1.00
H180   H     0.90408   0.29384   0.19574   0.00000  Uiso   1.00
H181   H     0.69193   0.20189   0.36617   0.00000  Uiso   1.00
H182   H     0.74403   0.23539   0.34775   0.00000  Uiso   1.00
H183   H     0.68642   0.25674   0.37914   0.00000  Uiso   1.00
H184   H     0.72265   0.25745   0.27072   0.00000  Uiso   1.00
H185   H     0.99867   0.26117   0.30657   0.00000  Uiso   1.00
H186   H     0.73104   0.07318   0.14268   0.00000  Uiso   1.00
H187   H     0.77677   0.10222   0.16122   0.00000  Uiso   1.00
H188   H     0.76857   0.04827   0.17599   0.00000  Uiso   1.00
H189   H     0.72267   0.07877   0.25956   0.00000  Uiso   1.00
H190   H     0.90438   0.03649   0.19543   0.00000  Uiso   1.00
H191   H     0.68309   0.06616   0.22659   0.00000  Uiso   1.00
H192   H     0.98465   0.18499   0.45429   0.00000  Uiso   1.00
H193   H     0.77422   0.17091   0.11392   0.00000  Uiso   1.00
H194   H     0.73271   0.10881   0.36743   0.00000  Uiso   1.00
H195   H     0.72401   0.10925   0.07081   0.00000  Uiso   1.00
H196   H     0.76467   0.03991   0.30741   0.00000  Uiso   1.00
H197   H     0.76532   0.29823   0.30937   0.00000  Uiso   1.00
H198   H     0.94319   0.22235   0.29212   0.00000  Uiso   1.00
H199   H     0.96531   0.11026   0.20898   0.00000  Uiso   1.00
H200   H     0.95295   0.14019   0.41105   0.00000  Uiso   1.00
H201   H     0.70240   0.11005   0.49759   0.00000  Uiso   1.00
H202   H     0.89531   0.12820   0.36536   0.00000  Uiso   1.00
N203   N     0.71598   0.16666   0.24998   0.00000  Uiso   1.00
N204   N     0.95069   0.16669   0.24999   0.00000  Uiso   1.00
O205   O     0.79375   0.22678   0.25000   0.00000  Uiso   1.00
O206   O     0.79381   0.18617   0.08426   0.00000  Uiso   1.00
O207   O     0.71585   0.12221   0.40126   0.00000  Uiso   1.00
O208   O     0.75856   0.11645   0.05939   0.00000  Uiso   1.00
O209   O     0.87294   0.22679   0.25000   0.00000  Uiso   1.00
O210   O     0.77441   0.16665   0.32549   0.00000  Uiso   1.00
O211   O     0.85360   0.16666   0.32549   0.00000  Uiso   1.00
O212   O     0.79373   0.10654   0.24999   0.00000  Uiso   1.00
O213   O     0.87292   0.10655   0.24999   0.00000  Uiso   1.00
O214   O     0.81306   0.16667   0.17451   0.00000  Uiso   1.00
O215   O     0.89225   0.16668   0.17451   0.00000  Uiso   1.00
O216   O     0.98280   0.17222   0.48776   0.00000  Uiso   1.00
C217   C     0.16660   0.57919   0.25058   0.00000  Uiso   1.00
C218   C     0.12987   0.47795   0.40216   0.00000  Uiso   1.00
C219   C     0.20688   0.64442   0.22005   0.00000  Uiso   1.00
C220   C     0.14183   0.49303   0.34828   0.00000  Uiso   1.00
C221   C     0.20704   0.35406   0.21983   0.00000  Uiso   1.00
C222   C     0.16717   0.37638   0.25024   0.00000  Uiso   1.00
C223   C     0.12802   0.35604   0.28213   0.00000  Uiso   1.00
C224   C     0.12818   0.64658   0.28283   0.00000  Uiso   1.00
C225   C     0.16701   0.62397   0.25094   0.00000  Uiso   1.00
C226   C     0.30147   0.53129   0.27317   0.00000  Uiso   1.00
C227   C     0.01732   0.53276   0.27228   0.00000  Uiso   1.00
C228   C     0.15040   0.47687   0.48466   0.00000  Uiso   1.00
C229   C     0.02801   0.46614   0.23075   0.00000  Uiso   1.00
C230   C     0.31370   0.46876   0.22674   0.00000  Uiso   1.00
C231   C     0.16683   0.42093   0.24975   0.00000  Uiso   1.00
C232   C     0.19199   0.50101   0.15019   0.00000  Uiso   1.00
C233   C     0.26873   0.49737   0.01210   0.00000  Uiso   1.00
C234   C     0.20563   0.49993   0.09310   0.00000  Uiso   1.00
C235   C     0.08296   0.46438   0.42724   0.00000  Uiso   1.00
C236   C     0.07076   0.45625   0.47974   0.00000  Uiso   1.00
C237   C     0.10334   0.46281   0.00910   0.00000  Uiso   1.00
C238   C     0.02944   0.57224   0.29803   0.00000  Uiso   1.00
C239   C     0.16525   0.47685   0.42993   0.00000  Uiso   1.00
C240   C     0.03871   0.56575   0.35058   0.00000  Uiso   1.00
C241   C     0.04634   0.42158   0.22475   0.00000  Uiso   1.00
C242   C     0.08315   0.41107   0.17307   0.00000  Uiso   1.00
C243   C     0.18475   0.48721   0.01214   0.00000  Uiso   1.00
C244   C     0.23444   0.48788   0.48507   0.00000  Uiso   1.00
C245   C     0.24881   0.47776   0.43213   0.00000  Uiso   1.00
C246   C     0.21492   0.47233   0.40512   0.00000  Uiso   1.00
C247   C     0.17077   0.49922   0.06505   0.00000  Uiso   1.00
C248   C     0.25440   0.49940   0.06585   0.00000  Uiso   1.00
Cu249  Cu    0.11978   0.49999   0.25000   0.00000  Uiso   1.00
Cu250  Cu    0.21355   0.50001   0.25000   0.00000  Uiso   1.00
H251   H     0.28169   0.50312   0.08613   0.00000  Uiso   1.00
H252   H     0.23741   0.62717   0.19574   0.00000  Uiso   1.00
H253   H     0.02526   0.53523   0.36617   0.00000  Uiso   1.00
H254   H     0.07736   0.56872   0.34775   0.00000  Uiso   1.00
H255   H     0.01976   0.59007   0.37914   0.00000  Uiso   1.00
H256   H     0.05599   0.59078   0.27072   0.00000  Uiso   1.00
H257   H     0.33200   0.59451   0.30657   0.00000  Uiso   1.00
H258   H     0.06438   0.40651   0.14268   0.00000  Uiso   1.00
H259   H     0.11010   0.43555   0.16122   0.00000  Uiso   1.00
H260   H     0.10191   0.38161   0.17599   0.00000  Uiso   1.00
H261   H     0.05600   0.41210   0.25956   0.00000  Uiso   1.00
H262   H     0.23771   0.36983   0.19543   0.00000  Uiso   1.00
H263   H     0.01643   0.39950   0.22659   0.00000  Uiso   1.00
H264   H     0.31799   0.51832   0.45429   0.00000  Uiso   1.00
H265   H     0.10756   0.50424   0.11392   0.00000  Uiso   1.00
H266   H     0.06604   0.44214   0.36743   0.00000  Uiso   1.00
H267   H     0.05734   0.44258   0.07081   0.00000  Uiso   1.00
H268   H     0.09800   0.37324   0.30741   0.00000  Uiso   1.00
H269   H     0.09866   0.63157   0.30937   0.00000  Uiso   1.00
H270   H     0.27653   0.55569   0.29212   0.00000  Uiso   1.00
H271   H     0.29864   0.44359   0.20898   0.00000  Uiso   1.00
H272   H     0.28629   0.47352   0.41105   0.00000  Uiso   1.00
H273   H     0.03574   0.44339   0.49759   0.00000  Uiso   1.00
H274   H     0.22865   0.46154   0.36536   0.00000  Uiso   1.00
N275   N     0.04931   0.49999   0.24998   0.00000  Uiso   1.00
N276   N     0.28402   0.50002   0.24999   0.00000  Uiso   1.00
O277   O     0.12708   0.56011   0.25000   0.00000  Uiso   1.00
O278   O     0.12714   0.51950   0.08426   0.00000  Uiso   1.00
O279   O     0.04919   0.45554   0.40126   0.00000  Uiso   1.00
O280   O     0.09189   0.44978   0.05939   0.00000  Uiso   1.00
O281   O     0.20627   0.56012   0.25000   0.00000  Uiso   1.00
O282   O     0.10775   0.49998   0.32549   0.00000  Uiso   1.00
O283   O     0.18694   0.49999   0.32549   0.00000  Uiso   1.00
O284   O     0.12706   0.43988   0.24999   0.00000  Uiso   1.00
O285   O     0.20625   0.43989   0.24999   0.00000  Uiso   1.00
O286   O     0.14640   0.50001   0.17451   0.00000  Uiso   1.00
O287   O     0.22559   0.50002   0.17451   0.00000  Uiso   1.00
O288   O     0.31613   0.50556   0.48776   0.00000  Uiso   1.00
C289   C     0.49993   0.57919   0.25058   0.00000  Uiso   1.00
C290   C     0.46320   0.47795   0.40216   0.00000  Uiso   1.00
C291   C     0.54022   0.64442   0.22005   0.00000  Uiso   1.00
C292   C     0.47516   0.49303   0.34828   0.00000  Uiso   1.00
C293   C     0.54037   0.35406   0.21983   0.00000  Uiso   1.00
C294   C     0.50050   0.37638   0.25024   0.00000  Uiso   1.00
C295   C     0.46135   0.35604   0.28213   0.00000  Uiso   1.00
C296   C     0.46151   0.64658   0.28283   0.00000  Uiso   1.00
C297   C     0.50034   0.62397   0.25094   0.00000  Uiso   1.00
C298   C     0.63480   0.53129   0.27317   0.00000  Uiso   1.00
C299   C     0.35065   0.53276   0.27228   0.00000  Uiso   1.00
C300   C     0.48373   0.47687   0.48466   0.00000  Uiso   1.00
C301   C     0.36134   0.46614   0.23075   0.00000  Uiso   1.00
C302   C     0.64704   0.46876   0.22674   0.00000  Uiso   1.00
C303   C     0.50017   0.42093   0.24975   0.00000  Uiso   1.00
C304   C     0.52532   0.50101   0.15019   0.00000  Uiso   1.00
C305   C     0.60206   0.49737   0.01210   0.00000  Uiso   1.00
C306   C     0.53897   0.49993   0.09310   0.00000  Uiso   1.00
C307   C     0.41630   0.46438   0.42724   0.00000  Uiso   1.00
C308   C     0.40409   0.45625   0.47974   0.00000  Uiso   1.00
C309   C     0.43667   0.46281   0.00910   0.00000  Uiso   1.00
C310   C     0.36277   0.57224   0.29803   0.00000  Uiso   1.00
C311   C     0.49858   0.47685   0.42993   0.00000  Uiso   1.00
C312   C     0.37205   0.56575   0.35058   0.00000  Uiso   1.00
C313   C     0.37967   0.42158   0.22475   0.00000  Uiso   1.00
C314   C     0.41648   0.41107   0.17307   0.00000  Uiso   1.00
C315   C     0.51808   0.48721   0.01214   0.00000  Uiso   1.00
C316   C     0.56778   0.48788   0.48507   0.00000  Uiso   1.00
C317   C     0.58214   0.47776   0.43213   0.00000  Uiso   1.00
C318   C     0.54826   0.47233   0.40512   0.00000  Uiso   1.00
C319   C     0.50411   0.49922   0.06505   0.00000  Uiso   1.00
C320   C     0.58773   0.49940   0.06585   0.00000  Uiso   1.00
Cu321  Cu    0.45311   0.49999   0.25000   0.00000  Uiso   1.00
Cu322  Cu    0.54689   0.50001   0.25000   0.00000  Uiso   1.00
H323   H     0.61502   0.50312   0.08613   0.00000  Uiso   1.00
H324   H     0.57074   0.62717   0.19574   0.00000  Uiso   1.00
H325   H     0.35859   0.53523   0.36617   0.00000  Uiso   1.00
H326   H     0.41070   0.56872   0.34775   0.00000  Uiso   1.00
H327   H     0.35309   0.59007   0.37914   0.00000  Uiso   1.00
H328   H     0.38932   0.59078   0.27072   0.00000  Uiso   1.00
H329   H     0.66533   0.59451   0.30657   0.00000  Uiso   1.00
H330   H     0.39771   0.40651   0.14268   0.00000  Uiso   1.00
H331   H     0.44344   0.43555   0.16122   0.00000  Uiso   1.00
H332   H     0.43524   0.38161   0.17599   0.00000  Uiso   1.00
H333   H     0.38933   0.41210   0.25956   0.00000  Uiso   1.00
H334   H     0.57104   0.36983   0.19543   0.00000  Uiso   1.00
H335   H     0.34976   0.39950   0.22659   0.00000  Uiso   1.00
H336   H     0.65132   0.51832   0.45429   0.00000  Uiso   1.00
H337   H     0.44089   0.50424   0.11392   0.00000  Uiso   1.00
H338   H     0.39937   0.44214   0.36743   0.00000  Uiso   1.00
H339   H     0.39067   0.44258   0.07081   0.00000  Uiso   1.00
H340   H     0.43134   0.37324   0.30741   0.00000  Uiso   1.00
H341   H     0.43199   0.63157   0.30937   0.00000  Uiso   1.00
H342   H     0.60986   0.55569   0.29212   0.00000  Uiso   1.00
H343   H     0.63197   0.44359   0.20898   0.00000  Uiso   1.00
H344   H     0.61962   0.47352   0.41105   0.00000  Uiso   1.00
H345   H     0.36907   0.44339   0.49759   0.00000  Uiso   1.00
H346   H     0.56198   0.46154   0.36536   0.00000  Uiso   1.00
N347   N     0.38265   0.49999   0.24998   0.00000  Uiso   1.00
N348   N     0.61735   0.50002   0.24999   0.00000  Uiso   1.00
O349   O     0.46042   0.56011   0.25000   0.00000  Uiso   1.00
O350   O     0.46047   0.51950   0.08426   0.00000  Uiso   1.00
O351   O     0.38252   0.45554   0.40126   0.00000  Uiso   1.00
O352   O     0.42522   0.44978   0.05939   0.00000  Uiso   1.00
O353   O     0.53961   0.56012   0.25000   0.00000  Uiso   1.00
O354   O     0.44108   0.49998   0.32549   0.00000  Uiso   1.00
O355   O     0.52027   0.49999   0.32549   0.00000  Uiso   1.00
O356   O     0.46039   0.43988   0.24999   0.00000  Uiso   1.00
O357   O     0.53958   0.43989   0.24999   0.00000  Uiso   1.00
O358   O     0.47973   0.50001   0.17451   0.00000  Uiso   1.00
O359   O     0.55892   0.50002   0.17451   0.00000  Uiso   1.00
O360   O     0.64946   0.50556   0.48776   0.00000  Uiso   1.00
C361   C     0.83326   0.57919   0.25058   0.00000  Uiso   1.00
C362   C     0.79653   0.47795   0.40216   0.00000  Uiso   1.00
C363   C     0.87355   0.64442   0.22005   0.00000  Uiso   1.00
C364   C     0.80849   0.49303   0.34828   0.00000  Uiso   1.00
C365   C     0.87371   0.35406   0.21983   0.00000  Uiso   1.00
C366   C     0.83384   0.37638   0.25024   0.00000  Uiso   1.00
C367   C     0.79469   0.35604   0.28213   0.00000  Uiso   1.00
C368   C     0.79485   0.64658   0.28283   0.00000  Uiso   1.00
C369   C     0.83367   0.62397   0.25094   0.00000  Uiso   1.00
C370   C     0.96814   0.53129   0.27317   0.00000  Uiso   1.00
C371   C     0.68398   0.53276   0.27228   0.00000  Uiso   1.00
C372   C     0.81707   0.47687   0.48466   0.00000  Uiso   1.00
C373   C     0.69467   0.46614   0.23075   0.00000  Uiso   1.00
C374   C     0.98037   0.46876   0.22674   0.00000  Uiso   1.00
C375   C     0.83350   0.42093   0.24975   0.00000  Uiso   1.00
C376   C     0.85866   0.50101   0.15019   0.00000  Uiso   1.00
C377   C     0.93539   0.49737   0.01210   0.00000  Uiso   1.00
C378   C     0.87230   0.49993   0.09310   0.00000  Uiso   1.00
C379   C     0.74963   0.46438   0.42724   0.00000  Uiso   1.00
C380   C     0.73743   0.45625   0.47974   0.00000  Uiso   1.00
C381   C     0.77000   0.46281   0.00910   0.00000  Uiso   1.00
C382   C     0.69611   0.57224   0.29803   0.00000  Uiso   1.00
C383   C     0.83191   0.47685   0.42993   0.00000  Uiso   1.00
C384   C     0.70538   0.56575   0.35058   0.00000  Uiso   1.00
C385   C     0.71300   0.42158   0.22475   0.00000  Uiso   1.00
C386   C     0.74982   0.41107   0.17307   0.00000  Uiso   1.00
C387   C     0.85142   0.48721   0.01214   0.00000  Uiso   1.00
C388   C     0.90111   0.48788   0.48507   0.00000  Uiso   1.00
C389   C     0.91547   0.47776   0.43213   0.00000  Uiso   1.00
C390   C     0.88159   0.47233   0.40512   0.00000  Uiso   1.00
C391   C     0.83744   0.49922   0.06505   0.00000  Uiso   1.00
C392   C     0.92107   0.49940   0.06585   0.00000  Uiso   1.00
Cu393  Cu    0.78645   0.49999   0.25000   0.00000  Uiso   1.00
Cu394  Cu    0.88022   0.50001   0.25000   0.00000  Uiso   1.00
H395   H     0.94835   0.50312   0.08613   0.00000  Uiso   1.00
H396   H     0.90408   0.62717   0.19574   0.00000  Uiso   1.00
H397   H     0.69193   0.53523   0.36617   0.00000  Uiso   1.00
H398   H     0.74403   0.56872   0.34775   0.00000  Uiso   1.00
H399   H     0.68642   0.59007   0.37914   0.00000  Uiso   1.00
H400   H     0.72265   0.59078   0.27072   0.00000  Uiso   1.00
H401   H     0.99867   0.59451   0.30657   0.00000  Uiso   1.00
H402   H     0.73104   0.40651   0.14268   0.00000  Uiso   1.00
H403   H     0.77677   0.43555   0.16122   0.00000  Uiso   1.00
H404   H     0.76857   0.38161   0.17599   0.00000  Uiso   1.00
H405   H     0.72267   0.41210   0.25956   0.00000  Uiso   1.00
H406   H     0.90438   0.36983   0.19543   0.00000  Uiso   1.00
H407   H     0.68309   0.39950   0.22659   0.00000  Uiso   1.00
H408   H     0.98465   0.51832   0.45429   0.00000  Uiso   1.00
H409   H     0.77422   0.50424   0.11392   0.00000  Uiso   1.00
H410   H     0.73271   0.44214   0.36743   0.00000  Uiso   1.00
H411   H     0.72401   0.44258   0.07081   0.00000  Uiso   1.00
H412   H     0.76467   0.37324   0.30741   0.00000  Uiso   1.00
H413   H     0.76532   0.63157   0.30937   0.00000  Uiso   1.00
H414   H     0.94319   0.55569   0.29212   0.00000  Uiso   1.00
H415   H     0.96531   0.44359   0.20898   0.00000  Uiso   1.00
H416   H     0.95295   0.47352   0.41105   0.00000  Uiso   1.00
H417   H     0.70240   0.44339   0.49759   0.00000  Uiso   1.00
H418   H     0.89531   0.46154   0.36536   0.00000  Uiso   1.00
N419   N     0.71598   0.49999   0.24998   0.00000  Uiso   1.00
N420   N     0.95069   0.50002   0.24999   0.00000  Uiso   1.00
O421   O     0.79375   0.56011   0.25000   0.00000  Uiso   1.00
O422   O     0.79381   0.51950   0.08426   0.00000  Uiso   1.00
O423   O     0.71585   0.45554   0.40126   0.00000  Uiso   1.00
O424   O     0.75856   0.44978   0.05939   0.00000  Uiso   1.00
O425   O     0.87294   0.56012   0.25000   0.00000  Uiso   1.00
O426   O     0.77441   0.49998   0.32549   0.00000  Uiso   1.00
O427   O     0.85360   0.49999   0.32549   0.00000  Uiso   1.00
O428   O     0.79373   0.43988   0.24999   0.00000  Uiso   1.00
O429   O     0.87292   0.43989   0.24999   0.00000  Uiso   1.00
O430   O     0.81306   0.50001   0.17451   0.00000  Uiso   1.00
O431   O     0.89225   0.50002   0.17451   0.00000  Uiso   1.00
O432   O     0.98280   0.50556   0.48776   0.00000  Uiso   1.00
C433   C     0.16660   0.91252   0.25058   0.00000  Uiso   1.00
C434   C     0.12987   0.81129   0.40216   0.00000  Uiso   1.00
C435   C     0.20688   0.97775   0.22005   0.00000  Uiso   1.00
C436   C     0.14183   0.82637   0.34828   0.00000  Uiso   1.00
C437   C     0.20704   0.68739   0.21983   0.00000  Uiso   1.00
C438   C     0.16717   0.70972   0.25024   0.00000  Uiso   1.00
C439   C     0.12802   0.68937   0.28213   0.00000  Uiso   1.00
C440   C     0.12818   0.97991   0.28283   0.00000  Uiso   1.00
C441   C     0.16701   0.95730   0.25094   0.00000  Uiso   1.00
C442   C     0.30147   0.86462   0.27317   0.00000  Uiso   1.00
C443   C     0.01732   0.86610   0.27228   0.00000  Uiso   1.00
C444   C     0.15040   0.81021   0.48466   0.00000  Uiso   1.00
C445   C     0.02801   0.79947   0.23075   0.00000  Uiso   1.00
C446   C     0.31370   0.80210   0.22674   0.00000  Uiso   1.00
C447   C     0.16683   0.75426   0.24975   0.00000  Uiso   1.00
C448   C     0.19199   0.83434   0.15019   0.00000  Uiso   1.00
C449   C     0.26873   0.83071   0.01210   0.00000  Uiso   1.00
C450   C     0.20563   0.83327   0.09310   0.00000  Uiso   1.00
C451   C     0.08296   0.79771   0.42724   0.00000  Uiso   1.00
C452   C     0.07076   0.78958   0.47974   0.00000  Uiso   1.00
C453   C     0.10334   0.79614   0.00910   0.00000  Uiso   1.00
C454   C     0.02944   0.90557   0.29803   0.00000  Uiso   1.00
C455   C     0.16525   0.81018   0.42993   0.00000  Uiso   1.00
C456   C     0.03871   0.89908   0.35058   0.00000  Uiso   1.00
C457   C     0.04634   0.75491   0.22475   0.00000  Uiso   1.00
C458   C     0.08315   0.74440   0.17307   0.00000  Uiso   1.00
C459   C     0.18475   0.82054   0.01214   0.00000  Uiso   1.00
C460   C     0.23444   0.82122   0.48507   0.00000  Uiso   1.00
C461   C     0.24881   0.81110   0.43213   0.00000  Uiso   1.00
C462   C     0.21492   0.80566   0.40512   0.00000  Uiso   1.00
C463   C     0.17077   0.83256   0.06505   0.00000  Uiso   1.00
C464   C     0.25440   0.83273   0.06585   0.00000  Uiso   1.00
Cu465  Cu    0.11978   0.83333   0.25000   0.00000  Uiso   1.00
Cu466  Cu    0.21355   0.83334   0.25000   0.00000  Uiso   1.00
H467   H     0.28169   0.83645   0.08613   0.00000  Uiso   1.00
H468   H     0.23741   0.96050   0.19574   0.00000  Uiso   1.00
H469   H     0.02526   0.86856   0.36617   0.00000  Uiso   1.00
H470   H     0.07736   0.90205   0.34775   0.00000  Uiso   1.00
H471   H     0.01976   0.92340   0.37914   0.00000  Uiso   1.00
H472   H     0.05599   0.92411   0.27072   0.00000  Uiso   1.00
H473   H     0.33200   0.92784   0.30657   0.00000  Uiso   1.00
H474   H     0.06438   0.73984   0.14268   0.00000  Uiso   1.00
H475   H     0.11010   0.76889   0.16122   0.00000  Uiso   1.00
H476   H     0.10191   0.71494   0.17599   0.00000  Uiso   1.00
H477   H     0.05600   0.74544   0.25956   0.00000  Uiso   1.00
H478   H     0.23771   0.70316   0.19543   0.00000  Uiso   1.00
H479   H     0.01643   0.73283   0.22659   0.00000  Uiso   1.00
H480   H     0.31799   0.85165   0.45429   0.00000  Uiso   1.00
H481   H     0.10756   0.83757   0.11392   0.00000  Uiso   1.00
H482   H     0.06604   0.77548   0.36743   0.00000  Uiso   1.00
H483   H     0.05734   0.77592   0.07081   0.00000  Uiso   1.00
H484   H     0.09800   0.70657   0.30741   0.00000  Uiso   1.00
H485   H     0.09866   0.96490   0.30937   0.00000  Uiso   1.00
H486   H     0.27653   0.88902   0.29212   0.00000  Uiso   1.00
H487   H     0.29864   0.77692   0.20898   0.00000  Uiso   1.00
H488   H     0.28629   0.80686   0.41105   0.00000  Uiso   1.00
H489   H     0.03574   0.77672   0.49759   0.00000  Uiso   1.00
H490   H     0.22865   0.79487   0.36536   0.00000  Uiso   1.00
N491   N     0.04931   0.83332   0.24998   0.00000  Uiso   1.00
N492   N     0.28402   0.83335   0.24999   0.00000  Uiso   1.00
O493   O     0.12708   0.89345   0.25000   0.00000  Uiso   1.00
O494   O     0.12714   0.85283   0.08426   0.00000  Uiso   1.00
O495   O     0.04919   0.78887   0.40126   0.00000  Uiso   1.00
O496   O     0.09189   0.78312   0.05939   0.00000  Uiso   1.00
O497   O     0.20627   0.89346   0.25000   0.00000  Uiso   1.00
O498   O     0.10775   0.83332   0.32549   0.00000  Uiso   1.00
O499   O     0.18694   0.83333   0.32549   0.00000  Uiso   1.00
O500   O     0.12706   0.77321   0.24999   0.00000  Uiso   1.00
O501   O     0.20625   0.77322   0.24999   0.00000  Uiso   1.00
O502   O     0.14640   0.83334   0.17451   0.00000  Uiso   1.00
O503   O     0.22559   0.83335   0.17451   0.00000  Uiso   1.00
O504   O     0.31613   0.83889   0.48776   0.00000  Uiso   1.00
C505   C     0.49993   0.91252   0.25058   0.00000  Uiso   1.00
C506   C     0.46320   0.81129   0.40216   0.00000  Uiso   1.00
C507   C     0.54022   0.97775   0.22005   0.00000  Uiso   1.00
C508   C     0.47516   0.82637   0.34828   0.00000  Uiso   1.00
C509   C     0.54037   0.68739   0.21983   0.00000  Uiso   1.00
C510   C     0.50050   0.70972   0.25024   0.00000  Uiso   1.00
C511   C     0.46135   0.68937   0.28213   0.00000  Uiso   1.00
C512   C     0.46151   0.97991   0.28283   0.00000  Uiso   1.00
C513   C     0.50034   0.95730   0.25094   0.00000  Uiso   1.00
C514   C     0.63480   0.86462   0.27317   0.00000  Uiso   1.00
C515   C     0.35065   0.86610   0.27228   0.00000  Uiso   1.00
C516   C     0.48373   0.81021   0.48466   0.00000  Uiso   1.00
C517   C     0.36134   0.79947   0.23075   0.00000  Uiso   1.00
C518   C     0.64704   0.80210   0.22674   0.00000  Uiso   1.00
C519   C     0.50017   0.75426   0.24975   0.00000  Uiso   1.00
C520   C     0.52532   0.83434   0.15019   0.00000  Uiso   1.00
C521   C     0.60206   0.83071   0.01210   0.00000  Uiso   1.00
C522   C     0.53897   0.83327   0.09310   0.00000  Uiso   1.00
C523   C     0.41630   0.79771   0.42724   0.00000  Uiso   1.00
C524   C     0.40409   0.78958   0.47974   0.00000  Uiso   1.00
C525   C     0.43667   0.79614   0.00910   0.00000  Uiso   1.00
C526   C     0.36277   0.90557   0.29803   0.00000  Uiso   1.00
C527   C     0.49858   0.81018   0.42993   0.00000  Uiso   1.00
C528   C     0.37205   0.89908   0.35058   0.00000  Uiso   1.00
C529   C     0.37967   0.75491   0.22475   0.00000  Uiso   1.00
C530   C     0.41648   0.74440   0.17307   0.00000  Uiso   1.00
C531   C     0.51808   0.82054   0.01214   0.00000  Uiso   1.00
C532   C     0.56778   0.82122   0.48507   0.00000  Uiso   1.00
C533   C     0.58214   0.81110   0.43213   0.00000  Uiso   1.00
C534   C     0.54826   0.80566   0.40512   0.00000  Uiso   1.00
C535   C     0.50411   0.83256   0.06505   0.00000  Uiso   1.00
C536   C     0.58773   0.83273   0.06585   0.00000  Uiso   1.00
Cu537  Cu    0.45311   0.83333   0.25000   0.00000  Uiso   1.00
Cu538  Cu    0.54689   0.83334   0.25000   0.00000  Uiso   1.00
H539   H     0.61502   0.83645   0.08613   0.00000  Uiso   1.00
H540   H     0.57074   0.96050   0.19574   0.00000  Uiso   1.00
H541   H     0.35859   0.86856   0.36617   0.00000  Uiso   1.00
H542   H     0.41070   0.90205   0.34775   0.00000  Uiso   1.00
H543   H     0.35309   0.92340   0.37914   0.00000  Uiso   1.00
H544   H     0.38932   0.92411   0.27072   0.00000  Uiso   1.00
H545   H     0.66533   0.92784   0.30657   0.00000  Uiso   1.00
H546   H     0.39771   0.73984   0.14268   0.00000  Uiso   1.00
H547   H     0.44344   0.76889   0.16122   0.00000  Uiso   1.00
H548   H     0.43524   0.71494   0.17599   0.00000  Uiso   1.00
H549   H     0.38933   0.74544   0.25956   0.00000  Uiso   1.00
H550   H     0.57104   0.70316   0.19543   0.00000  Uiso   1.00
H551   H     0.34976   0.73283   0.22659   0.00000  Uiso   1.00
H552   H     0.65132   0.85165   0.45429   0.00000  Uiso   1.00
H553   H     0.44089   0.83757   0.11392   0.00000  Uiso   1.00
H554   H     0.39937   0.77548   0.36743   0.00000  Uiso   1.00
H555   H     0.39067   0.77592   0.07081   0.00000  Uiso   1.00
H556   H     0.43134   0.70657   0.30741   0.00000  Uiso   1.00
H557   H     0.43199   0.96490   0.30937   0.00000  Uiso   1.00
H558   H     0.60986   0.88902   0.29212   0.00000  Uiso   1.00
H559   H     0.63197   0.77692   0.20898   0.00000  Uiso   1.00
H560   H     0.61962   0.80686   0.41105   0.00000  Uiso   1.00
H561   H     0.36907   0.77672   0.49759   0.00000  Uiso   1.00
H562   H     0.56198   0.79487   0.36536   0.00000  Uiso   1.00
N563   N     0.38265   0.83332   0.24998   0.00000  Uiso   1.00
N564   N     0.61735   0.83335   0.24999   0.00000  Uiso   1.00
O565   O     0.46042   0.89345   0.25000   0.00000  Uiso   1.00
O566   O     0.46047   0.85283   0.08426   0.00000  Uiso   1.00
O567   O     0.38252   0.78887   0.40126   0.00000  Uiso   1.00
O568   O     0.42522   0.78312   0.05939   0.00000  Uiso   1.00
O569   O     0.53961   0.89346   0.25000   0.00000  Uiso   1.00
O570   O     0.44108   0.83332   0.32549   0.00000  Uiso   1.00
O571   O     0.52027   0.83333   0.32549   0.00000  Uiso   1.00
O572   O     0.46039   0.77321   0.24999   0.00000  Uiso   1.00
O573   O     0.53958   0.77322   0.24999   0.00000  Uiso   1.00
O574   O     0.47973   0.83334   0.17451   0.00000  Uiso   1.00
O575   O     0.55892   0.83335   0.17451   0.00000  Uiso   1.00
O576   O     0.64946   0.83889   0.48776   0.00000  Uiso   1.00
C577   C     0.83326   0.91252   0.25058   0.00000  Uiso   1.00
C578   C     0.79653   0.81129   0.40216   0.00000  Uiso   1.00
C579   C     0.87355   0.97775   0.22005   0.00000  Uiso   1.00
C580   C     0.80849   0.82637   0.34828   0.00000  Uiso   1.00
C581   C     0.87371   0.68739   0.21983   0.00000  Uiso   1.00
C582   C     0.83384   0.70972   0.25024   0.00000  Uiso   1.00
C583   C     0.79469   0.68937   0.28213   0.00000  Uiso   1.00
C584   C     0.79485   0.97991   0.28283   0.00000  Uiso   1.00
C585   C     0.83367   0.95730   0.25094   0.00000  Uiso   1.00
C586   C     0.96814   0.86462   0.27317   0.00000  Uiso   1.00
C587   C     0.68398   0.86610   0.27228   0.00000  Uiso   1.00
C588   C     0.81707   0.81021   0.48466   0.00000  Uiso   1.00
C589   C     0.69467   0.79947   0.23075   0.00000  Uiso   1.00
C590   C     0.98037   0.80210   0.22674   0.00000  Uiso   1.00
C591   C     0.83350   0.75426   0.24975   0.00000  Uiso   1.00
C592   C     0.85866   0.83434   0.15019   0.00000  Uiso   1.00
C593   C     0.93539   0.83071   0.01210   0.00000  Uiso   1.00
C594   C     0.87230   0.83327   0.09310   0.00000  Uiso   1.00
C595   C     0.74963   0.79771   0.42724   0.00000  Uiso   1.00
C596   C     0.73743   0.78958   0.47974   0.00000  Uiso   1.00
C597   C     0.77000   0.79614   0.00910   0.00000  Uiso   1.00
C598   C     0.69611   0.90557   0.29803   0.00000  Uiso   1.00
C599   C     0.83191   0.81018   0.42993   0.00000  Uiso   1.00
C600   C     0.70538   0.89908   0.35058   0.00000  Uiso   1.00
C601   C     0.71300   0.75491   0.22475   0.00000  Uiso   1.00
C602   C     0.74982   0.74440   0.17307   0.00000  Uiso   1.00
C603   C     0.85142   0.82054   0.01214   0.00000  Uiso   1.00
C604   C     0.90111   0.82122   0.48507   0.00000  Uiso   1.00
C605   C     0.91547   0.81110   0.43213   0.00000  Uiso   1.00
C606   C     0.88159   0.80566   0.40512   0.00000  Uiso   1.00
C607   C     0.83744   0.83256   0.06505   0.00000  Uiso   1.00
C608   C     0.92107   0.83273   0.06585   0.00000  Uiso   1.00
Cu609  Cu    0.78645   0.83333   0.25000   0.00000  Uiso   1.00
Cu610  Cu    0.88022   0.83334   0.25000   0.00000  Uiso   1.00
H611   H     0.94835   0.83645   0.08613   0.00000  Uiso   1.00
H612   H     0.90408   0.96050   0.19574   0.00000  Uiso   1.00
H613   H     0.69193   0.86856   0.36617   0.00000  Uiso   1.00
H614   H     0.74403   0.90205   0.34775   0.00000  Uiso   1.00
H615   H     0.68642   0.92340   0.37914   0.00000  Uiso   1.00
H616   H     0.72265   0.92411   0.27072   0.00000  Uiso   1.00
H617   H     0.99867   0.92784   0.30657   0.00000  Uiso   1.00
H618   H     0.73104   0.73984   0.14268   0.00000  Uiso   1.00
H619   H     0.77677   0.76889   0.16122   0.00000  Uiso   1.00
H620   H     0.76857   0.71494   0.17599   0.00000  Uiso   1.00
H621   H     0.72267   0.74544   0.25956   0.00000  Uiso   1.00
H622   H     0.90438   0.70316   0.19543   0.00000  Uiso   1.00
H623   H     0.68309   0.73283   0.22659   0.00000  Uiso   1.00
H624   H     0.98465   0.85165   0.45429   0.00000  Uiso   1.00
H625   H     0.77422   0.83757   0.11392   0.00000  Uiso   1.00
H626   H     0.73271   0.77548   0.36743   0.00000  Uiso   1.00
H627   H     0.72401   0.77592   0.07081   0.00000  Uiso   1.00
H628   H     0.76467   0.70657   0.30741   0.00000  Uiso   1.00
H629   H     0.76532   0.96490   0.30937   0.00000  Uiso   1.00
H630   H     0.94319   0.88902   0.29212   0.00000  Uiso   1.00
H631   H     0.96531   0.77692   0.20898   0.00000  Uiso   1.00
H632   H     0.95295   0.80686   0.41105   0.00000  Uiso   1.00
H633   H     0.70240   0.77672   0.49759   0.00000  Uiso   1.00
H634   H     0.89531   0.79487   0.36536   0.00000  Uiso   1.00
N635   N     0.71598   0.83332   0.24998   0.00000  Uiso   1.00
N636   N     0.95069   0.83335   0.24999   0.00000  Uiso   1.00
O637   O     0.79375   0.89345   0.25000   0.00000  Uiso   1.00
O638   O     0.79381   0.85283   0.08426   0.00000  Uiso   1.00
O639   O     0.71585   0.78887   0.40126   0.00000  Uiso   1.00
O640   O     0.75856   0.78312   0.05939   0.00000  Uiso   1.00
O641   O     0.87294   0.89346   0.25000   0.00000  Uiso   1.00
O642   O     0.77441   0.83332   0.32549   0.00000  Uiso   1.00
O643   O     0.85360   0.83333   0.32549   0.00000  Uiso   1.00
O644   O     0.79373   0.77321   0.24999   0.00000  Uiso   1.00
O645   O     0.87292   0.77322   0.24999   0.00000  Uiso   1.00
O646   O     0.81306   0.83334   0.17451   0.00000  Uiso   1.00
O647   O     0.89225   0.83335   0.17451   0.00000  Uiso   1.00
O648   O     0.98280   0.83889   0.48776   0.00000  Uiso   1.00
C649   C     0.16660   0.24585   0.75058   0.00000  Uiso   1.00
C650   C     0.12987   0.14462   0.90216   0.00000  Uiso   1.00
C651   C     0.20688   0.31108   0.72005   0.00000  Uiso   1.00
C652   C     0.14183   0.15970   0.84828   0.00000  Uiso   1.00
C653   C     0.20704   0.02072   0.71983   0.00000  Uiso   1.00
C654   C     0.16717   0.04305   0.75024   0.00000  Uiso   1.00
C655   C     0.12802   0.02271   0.78213   0.00000  Uiso   1.00
C656   C     0.12818   0.31325   0.78283   0.00000  Uiso   1.00
C657   C     0.16701   0.29063   0.75094   0.00000  Uiso   1.00
C658   C     0.30147   0.19796   0.77317   0.00000  Uiso   1.00
C659   C     0.01732   0.19943   0.77228   0.00000  Uiso   1.00
C660   C     0.15040   0.14354   0.98466   0.00000  Uiso   1.00
C661   C     0.02801   0.13281   0.73075   0.00000  Uiso   1.00
C662   C     0.31370   0.13543   0.72674   0.00000  Uiso   1.00
C663   C     0.16683   0.08759   0.74975   0.00000  Uiso   1.00
C664   C     0.19199   0.16768   0.65019   0.00000  Uiso   1.00
C665   C     0.26873   0.16404   0.51210   0.00000  Uiso   1.00
C666   C     0.20563   0.16660   0.59310   0.00000  Uiso   1.00
C667   C     0.08296   0.13104   0.92724   0.00000  Uiso   1.00
C668   C     0.07076   0.12292   0.97974   0.00000  Uiso   1.00
C669   C     0.10334   0.12947   0.50910   0.00000  Uiso   1.00
C670   C     0.02944   0.23890   0.79803   0.00000  Uiso   1.00
C671   C     0.16525   0.14351   0.92993   0.00000  Uiso   1.00
C672   C     0.03871   0.23241   0.85058   0.00000  Uiso   1.00
C673   C     0.04634   0.08824   0.72475   0.00000  Uiso   1.00
C674   C     0.08315   0.07774   0.67307   0.00000  Uiso   1.00
C675   C     0.18475   0.15387   0.51214   0.00000  Uiso   1.00
C676   C     0.23444   0.15455   0.98507   0.00000  Uiso   1.00
C677   C     0.24881   0.14443   0.93213   0.00000  Uiso   1.00
C678   C     0.21492   0.13900   0.90512   0.00000  Uiso   1.00
C679   C     0.17077   0.16589   0.56505   0.00000  Uiso   1.00
C680   C     0.25440   0.16607   0.56585   0.00000  Uiso   1.00
Cu681  Cu    0.11978   0.16666   0.75000   0.00000  Uiso   1.00
Cu682  Cu    0.21355   0.16667   0.75000   0.00000  Uiso   1.00
H683   H     0.28169   0.16979   0.58613   0.00000  Uiso   1.00
H684   H     0.23741   0.29384   0.69574   0.00000  Uiso   1.00
H685   H     0.02526   0.20189   0.86617   0.00000  Uiso   1.00
H686   H     0.07736   0.23539   0.84775   0.00000  Uiso   1.00
H687   H     0.01976   0.25674   0.87914   0.00000  Uiso   1.00
H688   H     0.05599   0.25745   0.77072   0.00000  Uiso   1.00
H689   H     0.33200   0.26117   0.80657   0.00000  Uiso   1.00
H690   H     0.06438   0.07318   0.64268   0.00000  Uiso   1.00
H691   H     0.11010   0.10222   0.66122   0.00000  Uiso   1.00
H692   H     0.10191   0.04827   0.67599   0.00000  Uiso   1.00
H693   H     0.05600   0.07877   0.75956   0.00000  Uiso   1.00
H694   H     0.23771   0.03649   0.69543   0.00000  Uiso   1.00
H695   H     0.01643   0.06616   0.72659   0.00000  Uiso   1.00
H696   H     0.31799   0.18499   0.95429   0.00000  Uiso   1.00
H697   H     0.10756   0.17091   0.61392   0.00000  Uiso   1.00
H698   H     0.06604   0.10881   0.86743   0.00000  Uiso   1.00
H699   H     0.05734   0.10925   0.57081   0.00000  Uiso   1.00
H700   H     0.09800   0.03991   0.80741   0.00000  Uiso   1.00
H701   H     0.09866   0.29823   0.80937   0.00000  Uiso   1.00
H702   H     0.27653   0.22235   0.79212   0.00000  Uiso   1.00
H703   H     0.29864   0.11026   0.70898   0.00000  Uiso   1.00
H704   H     0.28629   0.14019   0.91105   0.00000  Uiso   1.00
H705   H     0.03574   0.11005   0.99759   0.00000  Uiso   1.00
H706   H     0.22865   0.12820   0.86536   0.00000  Uiso   1.00
N707   N     0.04931   0.16666   0.74998   0.00000  Uiso   1.00
N708   N     0.28402   0.16669   0.74999   0.00000  Uiso   1.00
O709   O     0.12708   0.22678   0.75000   0.00000  Uiso   1.00
O710   O     0.12714   0.18617   0.58426   0.00000  Uiso   1.00
O711   O     0.04919   0.12221   0.90126   0.00000  Uiso   1.00
O712   O     0.09189   0.11645   0.55939   0.00000  Uiso   1.00
O713   O     0.20627   0.22679   0.75000   0.00000  Uiso   1.00
O714   O     0.10775   0.16665   0.82549   0.00000  Uiso   1.00
O715   O     0.18694   0.16666   0.82549   0.00000  Uiso   1.00
O716   O     0.12706   0.10654   0.74999   0.00000  Uiso   1.00
O717   O     0.20625   0.10655   0.74999   0.00000  Uiso   1.00
O718   O     0.14640   0.16667   0.67451   0.00000  Uiso   1.00
O719   O     0.22559   0.16668   0.67451   0.00000  Uiso   1.00
O720   O     0.31613   0.17222   0.98776   0.00000  Uiso   1.00
C721   C     0.49993   0.24585   0.75058   0.00000  Uiso   1.00
C722   C     0.46320   0.14462   0.90216   0.00000  Uiso   1.00
C723   C     0.54022   0.31108   0.72005   0.00000  Uiso   1.00
C724   C     0.47516   0.15970   0.84828   0.00000  Uiso   1.00
C725   C     0.54037   0.02072   0.71983   0.00000  Uiso   1.00
C726   C     0.50050   0.04305   0.75024   0.00000  Uiso   1.00
C727   C     0.46135   0.02271   0.78213   0.00000  Uiso   1.00
C728   C     0.46151   0.31325   0.78283   0.00000  Uiso   1.00
C729   C     0.50034   0.29063   0.75094   0.00000  Uiso   1.00
C730   C     0.63480   0.19796   0.77317   0.00000  Uiso   1.00
C731   C     0.35065   0.19943   0.77228   0.00000  Uiso   1.00
C732   C     0.48373   0.14354   0.98466   0.00000  Uiso   1.00
C733   C     0.36134   0.13281   0.73075   0.00000  Uiso   1.00
C734   C     0.64704   0.13543   0.72674   0.00000  Uiso   1.00
C735   C     0.50017   0.08759   0.74975   0.00000  Uiso   1.00
C736   C     0.52532   0.16768   0.65019   0.00000  Uiso   1.00
C737   C     0.60206   0.16404   0.51210   0.00000  Uiso   1.00
C738   C     0.53897   0.16660   0.59310   0.00000  Uiso   1.00
C739   C     0.41630   0.13104   0.92724   0.00000  Uiso   1.00
C740   C     0.40409   0.12292   0.97974   0.00000  Uiso   1.00
C741   C     0.43667   0.12947   0.50910   0.00000  Uiso   1.00
C742   C     0.36277   0.23890   0.79803   0.00000  Uiso   1.00
C743   C     0.49858   0.14351   0.92993   0.00000  Uiso   1.00
C744   C     0.37205   0.23241   0.85058   0.00000  Uiso   1.00
C745   C     0.37967   0.08824   0.72475   0.00000  Uiso   1.00
C746   C     0.41648   0.07774   0.67307   0.00000  Uiso   1.00
C747   C     0.51808   0.15387   0.51214   0.00000  Uiso   1.00
C748   C     0.56778   0.15455   0.98507   0.00000  Uiso   1.00
C749   C     0.58214   0.14443   0.93213   0.00000  Uiso   1.00
C750   C     0.54826   0.13900   0.90512   0.00000  Uiso   1.00
C751   C     0.50411   0.16589   0.56505   0.00000  Uiso   1.00
C752   C     0.58773   0.16607   0.56585   0.00000  Uiso   1.00
Cu753  Cu    0.45311   0.16666   0.75000   0.00000  Uiso   1.00
Cu754  Cu    0.54689   0.16667   0.75000   0.00000  Uiso   1.00
H755   H     0.61502   0.16979   0.58613   0.00000  Uiso   1.00
H756   H     0.57074   0.29384   0.69574   0.00000  Uiso   1.00
H757   H     0.35859   0.20189   0.86617   0.00000  Uiso   1.00
H758   H     0.41070   0.23539   0.84775   0.00000  Uiso   1.00
H759   H     0.35309   0.25674   0.87914   0.00000  Uiso   1.00
H760   H     0.38932   0.25745   0.77072   0.00000  Uiso   1.00
H761   H     0.66533   0.26117   0.80657   0.00000  Uiso   1.00
H762   H     0.39771   0.07318   0.64268   0.00000  Uiso   1.00
H763   H     0.44344   0.10222   0.66122   0.00000  Uiso   1.00
H764   H     0.43524   0.04827   0.67599   0.00000  Uiso   1.00
H765   H     0.38933   0.07877   0.75956   0.00000  Uiso   1.00
H766   H     0.57104   0.03649   0.69543   0.00000  Uiso   1.00
H767   H     0.34976   0.06616   0.72659   0.00000  Uiso   1.00
H768   H     0.65132   0.18499   0.95429   0.00000  Uiso   1.00
H769   H     0.44089   0.17091   0.61392   0.00000  Uiso   1.00
H770   H     0.39937   0.10881   0.86743   0.00000  Uiso   1.00
H771   H     0.39067   0.10925   0.57081   0.00000  Uiso   1.00
H772   H     0.43134   0.03991   0.80741   0.00000  Uiso   1.00
H773   H     0.43199   0.29823   0.80937   0.00000  Uiso   1.00
H774   H     0.60986   0.22235   0.79212   0.00000  Uiso   1.00
H775   H     0.63197   0.11026   0.70898   0.00000  Uiso   1.00
H776   H     0.61962   0.14019   0.91105   0.00000  Uiso   1.00
H777   H     0.36907   0.11005   0.99759   0.00000  Uiso   1.00
H778   H     0.56198   0.12820   0.86536   0.00000  Uiso   1.00
N779   N     0.38265   0.16666   0.74998   0.00000  Uiso   1.00
N780   N     0.61735   0.16669   0.74999   0.00000  Uiso   1.00
O781   O     0.46042   0.22678   0.75000   0.00000  Uiso   1.00
O782   O     0.46047   0.18617   0.58426   0.00000  Uiso   1.00
O783   O     0.38252   0.12221   0.90126   0.00000  Uiso   1.00
O784   O     0.42522   0.11645   0.55939   0.00000  Uiso   1.00
O785   O     0.53961   0.22679   0.75000   0.00000  Uiso   1.00
O786   O     0.44108   0.16665   0.82549   0.00000  Uiso   1.00
O787   O     0.52027   0.16666   0.82549   0.00000  Uiso   1.00
O788   O     0.46039   0.10654   0.74999   0.00000  Uiso   1.00
O789   O     0.53958   0.10655   0.74999   0.00000  Uiso   1.00
O790   O     0.47973   0.16667   0.67451   0.00000  Uiso   1.00
O791   O     0.55892   0.16668   0.67451   0.00000  Uiso   1.00
O792   O     0.64946   0.17222   0.98776   0.00000  Uiso   1.00
C793   C     0.83326   0.24585   0.75058   0.00000  Uiso   1.00
C794   C     0.79653   0.14462   0.90216   0.00000  Uiso   1.00
C795   C     0.87355   0.31108   0.72005   0.00000  Uiso   1.00
C796   C     0.80849   0.15970   0.84828   0.00000  Uiso   1.00
C797   C     0.87371   0.02072   0.71983   0.00000  Uiso   1.00
C798   C     0.83384   0.04305   0.75024   0.00000  Uiso   1.00
C799   C     0.79469   0.02271   0.78213   0.00000  Uiso   1.00
C800   C     0.79485   0.31325   0.78283   0.00000  Uiso   1.00
C801   C     0.83367   0.29063   0.75094   0.00000  Uiso   1.00
C802   C     0.96814   0.19796   0.77317   0.00000  Uiso   1.00
C803   C     0.68398   0.19943   0.77228   0.00000  Uiso   1.00
C804   C     0.81707   0.14354   0.98466   0.00000  Uiso   1.00
C805   C     0.69467   0.13281   0.73075   0.00000  Uiso   1.00
C806   C     0.98037   0.13543   0.72674   0.00000  Uiso   1.00
C807   C     0.83350   0.08759   0.74975   0.00000  Uiso   1.00
C808   C     0.85866   0.16768   0.65019   0.00000  Uiso   1.00
C809   C     0.93539   0.16404   0.51210   0.00000  Uiso   1.00
C810   C     0.87230   0.16660   0.59310   0.00000  Uiso   1.00
C811   C     0.74963   0.13104   0.92724   0.00000  Uiso   1.00
C812   C     0.73743   0.12292   0.97974   0.00000  Uiso   1.00
C813   C     0.77000   0.12947   0.50910   0.00000  Uiso   1.00
C814   C     0.69611   0.23890   0.79803   0.00000  Uiso   1.00
C815   C     0.83191   0.14351   0.92993   0.00000  Uiso   1.00
C816   C     0.70538   0.23241   0.85058   0.00000  Uiso   1.00
C817   C     0.71300   0.08824   0.72475   0.00000  Uiso   1.00
C818   C     0.74982   0.07774   0.67307   0.00000  Uiso   1.00
C819   C     0.85142   0.15387   0.51214   0.00000  Uiso   1.00
C820   C     0.90111   0.15455   0.98507   0.00000  Uiso   1.00
C821   C     0.91547   0.14443   0.93213   0.00000  Uiso   1.00
C822   C     0.88159   0.13900   0.90512   0.00000  Uiso   1.00
C823   C     0.83744   0.16589   0.56505   0.00000  Uiso   1.00
C824   C     0.92107   0.16607   0.56585   0.00000  Uiso   1.00
Cu825  Cu    0.78645   0.16666   0.75000   0.00000  Uiso   1.00
Cu826  Cu    0.88022   0.16667   0.75000   0.00000  Uiso   1.00
H827   H     0.94835   0.16979   0.58613   0.00000  Uiso   1.00
H828   H     0.90408   0.29384   0.69574   0.00000  Uiso   1.00
H829   H     0.69193   0.20189   0.86617   0.00000  Uiso   1.00
H830   H     0.74403   0.23539   0.84775   0.00000  Uiso   1.00
H831   H     0.68642   0.25674   0.87914   0.00000  Uiso   1.00
H832   H     0.72265   0.25745   0.77072   0.00000  Uiso   1.00
H833   H     0.99867   0.26117   0.80657   0.00000  Uiso   1.00
H834   H     0.73104   0.07318   0.64268   0.00000  Uiso   1.00
H835   H     0.77677   0.10222   0.66122   0.00000  Uiso   1.00
H836   H     0.76857   0.04827   0.67599   0.00000  Uiso   1.00
H837   H     0.72267   0.07877   0.75956   0.00000  Uiso   1.00
H838   H     0.90438   0.03649   0.69543   0.00000  Uiso   1.00
H839   H     0.68309   0.06616   0.72659   0.00000  Uiso   1.00
H840   H     0.98465   0.18499   0.95429   0.00000  Uiso   1.00
H841   H     0.77422   0.17091   0.61392   0.00000  Uiso   1.00
H842   H     0.73271   0.10881   0.86743   0.00000  Uiso   1.00
H843   H     0.72401   0.10925   0.57081   0.00000  Uiso   1.00
H844   H     0.76467   0.03991   0.80741   0.00000  Uiso   1.00
H845   H     0.76532   0.29823   0.80937   0.00000  Uiso   1.00
H846   H     0.94319   0.22235   0.79212   0.00000  Uiso   1.00
H847   H     0.96531   0.11026   0.70898   0.00000  Uiso   1.00
H848   H     0.95295   0.14019   0.91105   0.00000  Uiso   1.00
H849   H     0.70240   0.11005   0.99759   0.00000  Uiso   1.00
H850   H     0.89531   0.12820   0.86536   0.00000  Uiso   1.00
N851   N     0.71598   0.16666   0.74998   0.00000  Uiso   1.00
N852   N     0.95069   0.16669   0.74999   0.00000  Uiso   1.00
O853   O     0.79375   0.22678   0.75000   0.00000  Uiso   1.00
O854   O     0.79381   0.18617   0.58426   0.00000  Uiso   1.00
O855   O     0.71585   0.12221   0.90126   0.00000  Uiso   1.00
O856   O     0.75856   0.11645   0.55939   0.00000  Uiso   1.00
O857   O     0.87294   0.22679   0.75000   0.00000  Uiso   1.00
O858   O     0.77441   0.16665   0.82549   0.00000  Uiso   1.00
O859   O     0.85360   0.16666   0.82549   0.00000  Uiso   1.00
O860   O     0.79373   0.10654   0.74999   0.00000  Uiso   1.00
O861   O     0.87292   0.10655   0.74999   0.00000  Uiso   1.00
O862   O     0.81306   0.16667   0.67451   0.00000  Uiso   1.00
O863   O     0.89225   0.16668   0.67451   0.00000  Uiso   1.00
O864   O     0.98280   0.17222   0.98776   0.00000  Uiso   1.00
C865   C     0.16660   0.57919   0.75058   0.00000  Uiso   1.00
C866   C     0.12987   0.47795   0.90216   0.00000  Uiso   1.00
C867   C     0.20688   0.64442   0.72005   0.00000  Uiso   1.00
C868   C     0.14183   0.49303   0.84828   0.00000  Uiso   1.00
C869   C     0.20704   0.35406   0.71983   0.00000  Uiso   1.00
C870   C     0.16717   0.37638   0.75024   0.00000  Uiso   1.00
C871   C     0.12802   0.35604   0.78213   0.00000  Uiso   1.00
C872   C     0.12818   0.64658   0.78283   0.00000  Uiso   1.00
C873   C     0.16701   0.62397   0.75094   0.00000  Uiso   1.00
C874   C     0.30147   0.53129   0.77317   0.00000  Uiso   1.00
C875   C     0.01732   0.53276   0.77228   0.00000  Uiso   1.00
C876   C     0.15040   0.47687   0.98466   0.00000  Uiso   1.00
C877   C     0.02801   0.46614   0.73075   0.00000  Uiso   1.00
C878   C     0.31370   0.46876   0.72674   0.00000  Uiso   1.00
C879   C     0.16683   0.42093   0.74975   0.00000  Uiso   1.00
C880   C     0.19199   0.50101   0.65019   0.00000  Uiso   1.00
C881   C     0.26873   0.49737   0.51210   0.00000  Uiso   1.00
C882   C     0.20563   0.49993   0.59310   0.00000  Uiso   1.00
C883   C     0.08296   0.46438   0.92724   0.00000  Uiso   1.00
C884   C     0.07076   0.45625   0.97974   0.00000  Uiso   1.00
C885   C     0.10334   0.46281   0.50910   0.00000  Uiso   1.00
C886   C     0.02944   0.57224   0.79803   0.00000  Uiso   1.00
C887   C     0.16525   0.47685   0.92993   0.00000  Uiso   1.00
C888   C     0.03871   0.56575   0.85058   0.00000  Uiso   1.00
C889   C     0.04634   0.42158   0.72475   0.00000  Uiso   1.00
C890   C     0.08315   0.41107   0.67307   0.00000  Uiso   1.00
C891   C     0.18475   0.48721   0.51214   0.00000  Uiso   1.00
C892   C     0.23444   0.48788   0.98507   0.00000  Uiso   1.00
C893   C     0.24881   0.47776   0.93213   0.00000  Uiso   1.00
C894   C     0.21492   0.47233   0.90512   0.00000  Uiso   1.00
C895   C     0.17077   0.49922   0.56505   0.00000  Uiso   1.00
C896   C     0.25440   0.49940   0.56585   0.00000  Uiso   1.00
Cu897  Cu    0.11978   0.49999   0.75000   0.00000  Uiso   1.00
Cu898  Cu    0.21355   0.50001   0.75000   0.00000  Uiso   1.00
H899   H     0.28169   0.50312   0.58613   0.00000  Uiso   1.00
H900   H     0.23741   0.62717   0.69574   0.00000  Uiso   1.00
H901   H     0.02526   0.53523   0.86617   0.00000  Uiso   1.00
H902   H     0.07736   0.56872   0.84775   0.00000  Uiso   1.00
H903   H     0.01976   0.59007   0.87914   0.00000  Uiso   1.00
H904   H     0.05599   0.59078   0.77072   0.00000  Uiso   1.00
H905   H     0.33200   0.59451   0.80657   0.00000  Uiso   1.00
H906   H     0.06438   0.40651   0.64268   0.00000  Uiso   1.00
H907   H     0.11010   0.43555   0.66122   0.00000  Uiso   1.00
H908   H     0.10191   0.38161   0.67599   0.00000  Uiso   1.00
H909   H     0.05600   0.41210   0.75956   0.00000  Uiso   1.00
H910   H     0.23771   0.36983   0.69543   0.00000  Uiso   1.00
H911   H     0.01643   0.39950   0.72659   0.00000  Uiso   1.00
H912   H     0.31799   0.51832   0.95429   0.00000  Uiso   1.00
H913   H     0.10756   0.50424   0.61392   0.00000  Uiso   1.00
H914   H     0.06604   0.44214   0.86743   0.00000  Uiso   1.00
H915   H     0.05734   0.44258   0.57081   0.00000  Uiso   1.00
H916   H     0.09800   0.37324   0.80741   0.00000  Uiso   1.00
H917   H     0.09866   0.63157   0.80937   0.00000  Uiso   1.00
H918   H     0.27653   0.55569   0.79212   0.00000  Uiso   1.00
H919   H     0.29864   0.44359   0.70898   0.00000  Uiso   1.00
H920   H     0.28629   0.47352   0.91105   0.00000  Uiso   1.00
H921   H     0.03574   0.44339   0.99759   0.00000  Uiso   1.00
H922   H     0.22865   0.46154   0.86536   0.00000  Uiso   1.00
N923   N     0.04931   0.49999   0.74998   0.00000  Uiso   1.00
N924   N     0.28402   0.50002   0.74999   0.00000  Uiso   1.00
O925   O     0.12708   0.56011   0.75000   0.00000  Uiso   1.00
O926   O     0.12714   0.51950   0.58426   0.00000  Uiso   1.00
O927   O     0.04919   0.45554   0.90126   0.00000  Uiso   1.00
O928   O     0.09189   0.44978   0.55939   0.00000  Uiso   1.00
O929   O     0.20627   0.56012   0.75000   0.00000  Uiso   1.00
O930   O     0.10775   0.49998   0.82549   0.00000  Uiso   1.00
O931   O     0.18694   0.49999   0.82549   0.00000  Uiso   1.00
O932   O     0.12706   0.43988   0.74999   0.00000  Uiso   1.00
O933   O     0.20625   0.43989   0.74999   0.00000  Uiso   1.00
O934   O     0.14640   0.50001   0.67451   0.00000  Uiso   1.00
O935   O     0.22559   0.50002   0.67451   0.00000  Uiso   1.00
O936   O     0.31613   0.50556   0.98776   0.00000  Uiso   1.00
C937   C     0.49993   0.57919   0.75058   0.00000  Uiso   1.00
C938   C     0.46320   0.47795   0.90216   0.00000  Uiso   1.00
C939   C     0.54022   0.64442   0.72005   0.00000  Uiso   1.00
C940   C     0.47516   0.49303   0.84828   0.00000  Uiso   1.00
C941   C     0.54037   0.35406   0.71983   0.00000  Uiso   1.00
C942   C     0.50050   0.37638   0.75024   0.00000  Uiso   1.00
C943   C     0.46135   0.35604   0.78213   0.00000  Uiso   1.00
C944   C     0.46151   0.64658   0.78283   0.00000  Uiso   1.00
C945   C     0.50034   0.62397   0.75094   0.00000  Uiso   1.00
C946   C     0.63480   0.53129   0.77317   0.00000  Uiso   1.00
C947   C     0.35065   0.53276   0.77228   0.00000  Uiso   1.00
C948   C     0.48373   0.47687   0.98466   0.00000  Uiso   1.00
C949   C     0.36134   0.46614   0.73075   0.00000  Uiso   1.00
C950   C     0.64704   0.46876   0.72674   0.00000  Uiso   1.00
C951   C     0.50017   0.42093   0.74975   0.00000  Uiso   1.00
C952   C     0.52532   0.50101   0.65019   0.00000  Uiso   1.00
C953   C     0.60206   0.49737   0.51210   0.00000  Uiso   1.00
C954   C     0.53897   0.49993   0.59310   0.00000  Uiso   1.00
C955   C     0.41630   0.46438   0.92724   0.00000  Uiso   1.00
C956   C     0.40409   0.45625   0.97974   0.00000  Uiso   1.00
C957   C     0.43667   0.46281   0.50910   0.00000  Uiso   1.00
C958   C     0.36277   0.57224   0.79803   0.00000  Uiso   1.00
C959   C     0.49858   0.47685   0.92993   0.00000  Uiso   1.00
C960   C     0.37205   0.56575   0.85058   0.00000  Uiso   1.00
C961   C     0.37967   0.42158   0.72475   0.00000  Uiso   1.00
C962   C     0.41648   0.41107   0.67307   0.00000  Uiso   1.00
C963   C     0.51808   0.48721   0.51214   0.00000  Uiso   1.00
C964   C     0.56778   0.48788   0.98507   0.00000  Uiso   1.00
C965   C     0.58214   0.47776   0.93213   0.00000  Uiso   1.00
C966   C     0.54826   0.47233   0.90512   0.00000  Uiso   1.00
C967   C     0.50411   0.49922   0.56505   0.00000  Uiso   1.00
C968   C     0.58773   0.49940   0.56585   0.00000  Uiso   1.00
Cu969  Cu    0.45311   0.49999   0.75000   0.00000  Uiso   1.00
Cu970  Cu    0.54689   0.50001   0.75000   0.00000  Uiso   1.00
H971   H     0.61502   0.50312   0.58613   0.00000  Uiso   1.00
H972   H     0.57074   0.62717   0.69574   0.00000  Uiso   1.00
H973   H     0.35859   0.53523   0.86617   0.00000  Uiso   1.00
H974   H     0.41070   0.56872   0.84775   0.00000  Uiso   1.00
H975   H     0.35309   0.59007   0.87914   0.00000  Uiso   1.00
H976   H     0.38932   0.59078   0.77072   0.00000  Uiso   1.00
H977   H     0.66533   0.59451   0.80657   0.00000  Uiso   1.00
H978   H     0.39771   0.40651   0.64268   0.00000  Uiso   1.00
H979   H     0.44344   0.43555   0.66122   0.00000  Uiso   1.00
H980   H     0.43524   0.38161   0.67599   0.00000  Uiso   1.00
H981   H     0.38933   0.41210   0.75956   0.00000  Uiso   1.00
H982   H     0.57104   0.36983   0.69543   0.00000  Uiso   1.00
H983   H     0.34976   0.39950   0.72659   0.00000  Uiso   1.00
H984   H     0.65132   0.51832   0.95429   0.00000  Uiso   1.00
H985   H     0.44089   0.50424   0.61392   0.00000  Uiso   1.00
H986   H     0.39937   0.44214   0.86743   0.00000  Uiso   1.00
H987   H     0.39067   0.44258   0.57081   0.00000  Uiso   1.00
H988   H     0.43134   0.37324   0.80741   0.00000  Uiso   1.00
H989   H     0.43199   0.63157   0.80937   0.00000  Uiso   1.00
H990   H     0.60986   0.55569   0.79212   0.00000  Uiso   1.00
H991   H     0.63197   0.44359   0.70898   0.00000  Uiso   1.00
H992   H     0.61962   0.47352   0.91105   0.00000  Uiso   1.00
H993   H     0.36907   0.44339   0.99759   0.00000  Uiso   1.00
H994   H     0.56198   0.46154   0.86536   0.00000  Uiso   1.00
N995   N     0.38265   0.49999   0.74998   0.00000  Uiso   1.00
N996   N     0.61735   0.50002   0.74999   0.00000  Uiso   1.00
O997   O     0.46042   0.56011   0.75000   0.00000  Uiso   1.00
O998   O     0.46047   0.51950   0.58426   0.00000  Uiso   1.00
O999   O     0.38252   0.45554   0.90126   0.00000  Uiso   1.00
O1000  O     0.42522   0.44978   0.55939   0.00000  Uiso   1.00
O1001  O     0.53961   0.56012   0.75000   0.00000  Uiso   1.00
O1002  O     0.44108   0.49998   0.82549   0.00000  Uiso   1.00
O1003  O     0.52027   0.49999   0.82549   0.00000  Uiso   1.00
O1004  O     0.46039   0.43988   0.74999   0.00000  Uiso   1.00
O1005  O     0.53958   0.43989   0.74999   0.00000  Uiso   1.00
O1006  O     0.47973   0.50001   0.67451   0.00000  Uiso   1.00
O1007  O     0.55892   0.50002   0.67451   0.00000  Uiso   1.00
O1008  O     0.64946   0.50556   0.98776   0.00000  Uiso   1.00
C1009  C     0.83326   0.57919   0.75058   0.00000  Uiso   1.00
C1010  C     0.79653   0.47795   0.90216   0.00000  Uiso   1.00
C1011  C     0.87355   0.64442   0.72005   0.00000  Uiso   1.00
C1012  C     0.80849   0.49303   0.84828   0.00000  Uiso   1.00
C1013  C     0.87371   0.35406   0.71983   0.00000  Uiso   1.00
C1014  C     0.83384   0.37638   0.75024   0.00000  Uiso   1.00
C1015  C     0.79469   0.35604   0.78213   0.00000  Uiso   1.00
C1016  C     0.79485   0.64658   0.78283   0.00000  Uiso   1.00
C1017  C     0.83367   0.62397   0.75094   0.00000  Uiso   1.00
C1018  C     0.96814   0.53129   0.77317   0.00000  Uiso   1.00
C1019  C     0.68398   0.53276   0.77228   0.00000  Uiso   1.00
C1020  C     0.81707   0.47687   0.98466   0.00000  Uiso   1.00
C1021  C     0.69467   0.46614   0.73075   0.00000  Uiso   1.00
C1022  C     0.98037   0.46876   0.72674   0.00000  Uiso   1.00
C1023  C     0.83350   0.42093   0.74975   0.00000  Uiso   1.00
C1024  C     0.85866   0.50101   0.65019   0.00000  Uiso   1.00
C1025  C     0.93539   0.49737   0.51210   0.00000  Uiso   1.00
C1026  C     0.87230   0.49993   0.59310   0.00000  Uiso   1.00
C1027  C     0.74963   0.46438   0.92724   0.00000  Uiso   1.00
C1028  C     0.73743   0.45625   0.97974   0.00000  Uiso   1.00
C1029  C     0.77000   0.46281   0.50910   0.00000  Uiso   1.00
C1030  C     0.69611   0.57224   0.79803   0.00000  Uiso   1.00
C1031  C     0.83191   0.47685   0.92993   0.00000  Uiso   1.00
C1032  C     0.70538   0.56575   0.85058   0.00000  Uiso   1.00
C1033  C     0.71300   0.42158   0.72475   0.00000  Uiso   1.00
C1034  C     0.74982   0.41107   0.67307   0.00000  Uiso   1.00
C1035  C     0.85142   0.48721   0.51214   0.00000  Uiso   1.00
C1036  C     0.90111   0.48788   0.98507   0.00000  Uiso   1.00
C1037  C     0.91547   0.47776   0.93213   0.00000  Uiso   1.00
C1038  C     0.88159   0.47233   0.90512   0.00000  Uiso   1.00
C1039  C     0.83744   0.49922   0.56505   0.00000  Uiso   1.00
C1040  C     0.92107   0.49940   0.56585   0.00000  Uiso   1.00
Cu1041 Cu    0.78645   0.49999   0.75000   0.00000  Uiso   1.00
Cu1042 Cu    0.88022   0.50001   0.75000   0.00000  Uiso   1.00
H1043  H     0.94835   0.50312   0.58613   0.00000  Uiso   1.00
H1044  H     0.90408   0.62717   0.69574   0.00000  Uiso   1.00
H1045  H     0.69193   0.53523   0.86617   0.00000  Uiso   1.00
H1046  H     0.74403   0.56872   0.84775   0.00000  Uiso   1.00
H1047  H     0.68642   0.59007   0.87914   0.00000  Uiso   1.00
H1048  H     0.72265   0.59078   0.77072   0.00000  Uiso   1.00
H1049  H     0.99867   0.59451   0.80657   0.00000  Uiso   1.00
H1050  H     0.73104   0.40651   0.64268   0.00000  Uiso   1.00
H1051  H     0.77677   0.43555   0.66122   0.00000  Uiso   1.00
H1052  H     0.76857   0.38161   0.67599   0.00000  Uiso   1.00
H1053  H     0.72267   0.41210   0.75956   0.00000  Uiso   1.00
H1054  H     0.90438   0.36983   0.69543   0.00000  Uiso   1.00
H1055  H     0.68309   0.39950   0.72659   0.00000  Uiso   1.00
H1056  H     0.98465   0.51832   0.95429   0.00000  Uiso   1.00
H1057  H     0.77422   0.50424   0.61392   0.00000  Uiso   1.00
H1058  H     0.73271   0.44214   0.86743   0.00000  Uiso   1.00
H1059  H     0.72401   0.44258   0.57081   0.00000  Uiso   1.00
H1060  H     0.76467   0.37324   0.80741   0.00000  Uiso   1.00
H1061  H     0.76532   0.63157   0.80937   0.00000  Uiso   1.00
H1062  H     0.94319   0.55569   0.79212   0.00000  Uiso   1.00
H1063  H     0.96531   0.44359   0.70898   0.00000  Uiso   1.00
H1064  H     0.95295   0.47352   0.91105   0.00000  Uiso   1.00
H1065  H     0.70240   0.44339   0.99759   0.00000  Uiso   1.00
H1066  H     0.89531   0.46154   0.86536   0.00000  Uiso   1.00
N1067  N     0.71598   0.49999   0.74998   0.00000  Uiso   1.00
N1068  N     0.95069   0.50002   0.74999   0.00000  Uiso   1.00
O1069  O     0.79375   0.56011   0.75000   0.00000  Uiso   1.00
O1070  O     0.79381   0.51950   0.58426   0.00000  Uiso   1.00
O1071  O     0.71585   0.45554   0.90126   0.00000  Uiso   1.00
O1072  O     0.75856   0.44978   0.55939   0.00000  Uiso   1.00
O1073  O     0.87294   0.56012   0.75000   0.00000  Uiso   1.00
O1074  O     0.77441   0.49998   0.82549   0.00000  Uiso   1.00
O1075  O     0.85360   0.49999   0.82549   0.00000  Uiso   1.00
O1076  O     0.79373   0.43988   0.74999   0.00000  Uiso   1.00
O1077  O     0.87292   0.43989   0.74999   0.00000  Uiso   1.00
O1078  O     0.81306   0.50001   0.67451   0.00000  Uiso   1.00
O1079  O     0.89225   0.50002   0.67451   0.00000  Uiso   1.00
O1080  O     0.98280   0.50556   0.98776   0.00000  Uiso   1.00
C1081  C     0.16660   0.91252   0.75058   0.00000  Uiso   1.00
C1082  C     0.12987   0.81129   0.90216   0.00000  Uiso   1.00
C1083  C     0.20688   0.97775   0.72005   0.00000  Uiso   1.00
C1084  C     0.14183   0.82637   0.84828   0.00000  Uiso   1.00
C1085  C     0.20704   0.68739   0.71983   0.00000  Uiso   1.00
C1086  C     0.16717   0.70972   0.75024   0.00000  Uiso   1.00
C1087  C     0.12802   0.68937   0.78213   0.00000  Uiso   1.00
C1088  C     0.12818   0.97991   0.78283   0.00000  Uiso   1.00
C1089  C     0.16701   0.95730   0.75094   0.00000  Uiso   1.00
C1090  C     0.30147   0.86462   0.77317   0.00000  Uiso   1.00
C1091  C     0.01732   0.86610   0.77228   0.00000  Uiso   1.00
C1092  C     0.15040   0.81021   0.98466   0.00000  Uiso   1.00
C1093  C     0.02801   0.79947   0.73075   0.00000  Uiso   1.00
C1094  C     0.31370   0.80210   0.72674   0.00000  Uiso   1.00
C1095  C     0.16683   0.75426   0.74975   0.00000  Uiso   1.00
C1096  C     0.19199   0.83434   0.65019   0.00000  Uiso   1.00
C1097  C     0.26873   0.83071   0.51210   0.00000  Uiso   1.00
C1098  C     0.20563   0.83327   0.59310   0.00000  Uiso   1.00
C1099  C     0.08296   0.79771   0.92724   0.00000  Uiso   1.00
C1100  C     0.07076   0.78958   0.97974   0.00000  Uiso   1.00
C1101  C     0.10334   0.79614   0.50910   0.00000  Uiso   1.00
C1102  C     0.02944   0.90557   0.79803   0.00000  Uiso   1.00
C1103  C     0.16525   0.81018   0.92993   0.00000  Uiso   1.00
C1104  C     0.03871   0.89908   0.85058   0.00000  Uiso   1.00
C1105  C     0.04634   0.75491   0.72475   0.00000  Uiso   1.00
C1106  C     0.08315   0.74440   0.67307   0.00000  Uiso   1.00
C1107  C     0.18475   0.82054   0.51214   0.00000  Uiso   1.00
C1108  C     0.23444   0.82122   0.98507   0.00000  Uiso   1.00
C1109  C     0.24881   0.81110   0.93213   0.00000  Uiso   1.00
C1110  C     0.21492   0.80566   0.90512   0.00000  Uiso   1.00
C1111  C     0.17077   0.83256   0.56505   0.00000  Uiso   1.00
C1112  C     0.25440   0.83273   0.56585   0.00000  Uiso   1.00
Cu1113 Cu    0.11978   0.83333   0.75000   0.00000  Uiso   1.00
Cu1114 Cu    0.21355   0.83334   0.75000   0.00000  Uiso   1.00
H1115  H     0.28169   0.83645   0.58613   0.00000  Uiso   1.00
H1116  H     0.23741   0.96050   0.69574   0.00000  Uiso   1.00
H1117  H     0.02526   0.86856   0.86617   0.00000  Uiso   1.00
H1118  H     0.07736   0.90205   0.84775   0.00000  Uiso   1.00
H1119  H     0.01976   0.92340   0.87914   0.00000  Uiso   1.00
H1120  H     0.05599   0.92411   0.77072   0.00000  Uiso   1.00
H1121  H     0.33200   0.92784   0.80657   0.00000  Uiso   1.00
H1122  H     0.06438   0.73984   0.64268   0.00000  Uiso   1.00
H1123  H     0.11010   0.76889   0.66122   0.00000  Uiso   1.00
H1124  H     0.10191   0.71494   0.67599   0.00000  Uiso   1.00
H1125  H     0.05600   0.74544   0.75956   0.00000  Uiso   1.00
H1126  H     0.23771   0.70316   0.69543   0.00000  Uiso   1.00
H1127  H     0.01643   0.73283   0.72659   0.00000  Uiso   1.00
H1128  H     0.31799   0.85165   0.95429   0.00000  Uiso   1.00
H1129  H     0.10756   0.83757   0.61392   0.00000  Uiso   1.00
H1130  H     0.06604   0.77548   0.86743   0.00000  Uiso   1.00
H1131  H     0.05734   0.77592   0.57081   0.00000  Uiso   1.00
H1132  H     0.09800   0.70657   0.80741   0.00000  Uiso   1.00
H1133  H     0.09866   0.96490   0.80937   0.00000  Uiso   1.00
H1134  H     0.27653   0.88902   0.79212   0.00000  Uiso   1.00
H1135  H     0.29864   0.77692   0.70898   0.00000  Uiso   1.00
H1136  H     0.28629   0.80686   0.91105   0.00000  Uiso   1.00
H1137  H     0.03574   0.77672   0.99759   0.00000  Uiso   1.00
H1138  H     0.22865   0.79487   0.86536   0.00000  Uiso   1.00
N1139  N     0.04931   0.83332   0.74998   0.00000  Uiso   1.00
N1140  N     0.28402   0.83335   0.74999   0.00000  Uiso   1.00
O1141  O     0.12708   0.89345   0.75000   0.00000  Uiso   1.00
O1142  O     0.12714   0.85283   0.58426   0.00000  Uiso   1.00
O1143  O     0.04919   0.78887   0.90126   0.00000  Uiso   1.00
O1144  O     0.09189   0.78312   0.55939   0.00000  Uiso   1.00
O1145  O     0.20627   0.89346   0.75000   0.00000  Uiso   1.00
O1146  O     0.10775   0.83332   0.82549   0.00000  Uiso   1.00
O1147  O     0.18694   0.83333   0.82549   0.00000  Uiso   1.00
O1148  O     0.12706   0.77321   0.74999   0.00000  Uiso   1.00
O1149  O     0.20625   0.77322   0.74999   0.00000  Uiso   1.00
O1150  O     0.14640   0.83334   0.67451   0.00000  Uiso   1.00
O1151  O     0.22559   0.83335   0.67451   0.00000  Uiso   1.00
O1152  O     0.31613   0.83889   0.98776   0.00000  Uiso   1.00
C1153  C     0.49993   0.91252   0.75058   0.00000  Uiso   1.00
C1154  C     0.46320   0.81129   0.90216   0.00000  Uiso   1.00
C1155  C     0.54022   0.97775   0.72005   0.00000  Uiso   1.00
C1156  C     0.47516   0.82637   0.84828   0.00000  Uiso   1.00
C1157  C     0.54037   0.68739   0.71983   0.00000  Uiso   1.00
C1158  C     0.50050   0.70972   0.75024   0.00000  Uiso   1.00
C1159  C     0.46135   0.68937   0.78213   0.00000  Uiso   1.00
C1160  C     0.46151   0.97991   0.78283   0.00000  Uiso   1.00
C1161  C     0.50034   0.95730   0.75094   0.00000  Uiso   1.00
C1162  C     0.63480   0.86462   0.77317   0.00000  Uiso   1.00
C1163  C     0.35065   0.86610   0.77228   0.00000  Uiso   1.00
C1164  C     0.48373   0.81021   0.98466   0.00000  Uiso   1.00
C1165  C     0.36134   0.79947   0.73075   0.00000  Uiso   1.00
C1166  C     0.64704   0.80210   0.72674   0.00000  Uiso   1.00
C1167  C     0.50017   0.75426   0.74975   0.00000  Uiso   1.00
C1168  C     0.52532   0.83434   0.65019   0.00000  Uiso   1.00
C1169  C     0.60206   0.83071   0.51210   0.00000  Uiso   1.00
C1170  C     0.53897   0.83327   0.59310   0.00000  Uiso   1.00
C1171  C     0.41630   0.79771   0.92724   0.00000  Uiso   1.00
C1172  C     0.40409   0.78958   0.97974   0.00000  Uiso   1.00
C1173  C     0.43667   0.79614   0.50910   0.00000  Uiso   1.00
C1174  C     0.36277   0.90557   0.79803   0.00000  Uiso   1.00
C1175  C     0.49858   0.81018   0.92993   0.00000  Uiso   1.00
C1176  C     0.37205   0.89908   0.85058   0.00000  Uiso   1.00
C1177  C     0.37967   0.75491   0.72475   0.00000  Uiso   1.00
C1178  C     0.41648   0.74440   0.67307   0.00000  Uiso   1.00
C1179  C     0.51808   0.82054   0.51214   0.00000  Uiso   1.00
C1180  C     0.56778   0.82122   0.98507   0.00000  Uiso   1.00
C1181  C     0.58214   0.81110   0.93213   0.00000  Uiso   1.00
C1182  C     0.54826   0.80566   0.90512   0.00000  Uiso   1.00
C1183  C     0.50411   0.83256   0.56505   0.00000  Uiso   1.00
C1184  C     0.58773   0.83273   0.56585   0.00000  Uiso   1.00
Cu1185 Cu    0.45311   0.83333   0.75000   0.00000  Uiso   1.00
Cu1186 Cu    0.54689   0.83334   0.75000   0.00000  Uiso   1.00
H1187  H     0.61502   0.83645   0.58613   0.00000  Uiso   1.00
H1188  H     0.57074   0.96050   0.69574   0.00000  Uiso   1.00
H1189  H     0.35859   0.86856   0.86617   0.00000  Uiso   1.00
H1190  H     0.41070   0.90205   0.84775   0.00000  Uiso   1.00
H1191  H     0.35309   0.92340   0.87914   0.00000  Uiso   1.00
H1192  H     0.38932   0.92411   0.77072   0.00000  Uiso   1.00
H1193  H     0.66533   0.92784   0.80657   0.00000  Uiso   1.00
H1194  H     0.39771   0.73984   0.64268   0.00000  Uiso   1.00
H1195  H     0.44344   0.76889   0.66122   0.00000  Uiso   1.00
H1196  H     0.43524   0.71494   0.67599   0.00000  Uiso   1.00
H1197  H     0.38933   0.74544   0.75956   0.00000  Uiso   1.00
H1198  H     0.57104   0.70316   0.69543   0.00000  Uiso   1.00
H1199  H     0.34976   0.73283   0.72659   0.00000  Uiso   1.00
H1200  H     0.65132   0.85165   0.95429   0.00000  Uiso   1.00
H1201  H     0.44089   0.83757   0.61392   0.00000  Uiso   1.00
H1202  H     0.39937   0.77548   0.86743   0.00000  Uiso   1.00
H1203  H     0.39067   0.77592   0.57081   0.00000  Uiso   1.00
H1204  H     0.43134   0.70657   0.80741   0.00000  Uiso   1.00
H1205  H     0.43199   0.96490   0.80937   0.00000  Uiso   1.00
H1206  H     0.60986   0.88902   0.79212   0.00000  Uiso   1.00
H1207  H     0.63197   0.77692   0.70898   0.00000  Uiso   1.00
H1208  H     0.61962   0.80686   0.91105   0.00000  Uiso   1.00
H1209  H     0.36907   0.77672   0.99759   0.00000  Uiso   1.00
H1210  H     0.56198   0.79487   0.86536   0.00000  Uiso   1.00
N1211  N     0.38265   0.83332   0.74998   0.00000  Uiso   1.00
N1212  N     0.61735   0.83335   0.74999   0.00000  Uiso   1.00
O1213  O     0.46042   0.89345   0.75000   0.00000  Uiso   1.00
O1214  O     0.46047   0.85283   0.58426   0.00000  Uiso   1.00
O1215  O     0.38252   0.78887   0.90126   0.00000  Uiso   1.00
O1216  O     0.42522   0.78312   0.55939   0.00000  Uiso   1.00
O1217  O     0.53961   0.89346   0.75000   0.00000  Uiso   1.00
O1218  O     0.44108   0.83332   0.82549   0.00000  Uiso   1.00
O1219  O     0.52027   0.83333   0.82549   0.00000  Uiso   1.00
O1220  O     0.46039   0.77321   0.74999   0.00000  Uiso   1.00
O1221  O     0.53958   0.77322   0.74999   0.00000  Uiso   1.00
O1222  O     0.47973   0.83334   0.67451   0.00000  Uiso   1.00
O1223  O     0.55892   0.83335   0.67451   0.00000  Uiso   1.00
O1224  O     0.64946   0.83889   0.98776   0.00000  Uiso   1.00
C1225  C     0.83326   0.91252   0.75058   0.00000  Uiso   1.00
C1226  C     0.79653   0.81129   0.90216   0.00000  Uiso   1.00
C1227  C     0.87355   0.97775   0.72005   0.00000  Uiso   1.00
C1228  C     0.80849   0.82637   0.84828   0.00000  Uiso   1.00
C1229  C     0.87371   0.68739   0.71983   0.00000  Uiso   1.00
C1230  C     0.83384   0.70972   0.75024   0.00000  Uiso   1.00
C1231  C     0.79469   0.68937   0.78213   0.00000  Uiso   1.00
C1232  C     0.79485   0.97991   0.78283   0.00000  Uiso   1.00
C1233  C     0.83367   0.95730   0.75094   0.00000  Uiso   1.00
C1234  C     0.96814   0.86462   0.77317   0.00000  Uiso   1.00
C1235  C     0.68398   0.86610   0.77228   0.00000  Uiso   1.00
C1236  C     0.81707   0.81021   0.98466   0.00000  Uiso   1.00
C1237  C     0.69467   0.79947   0.73075   0.00000  Uiso   1.00
C1238  C     0.98037   0.80210   0.72674   0.00000  Uiso   1.00
C1239  C     0.83350   0.75426   0.74975   0.00000  Uiso   1.00
C1240  C     0.85866   0.83434   0.65019   0.00000  Uiso   1.00
C1241  C     0.93539   0.83071   0.51210   0.00000  Uiso   1.00
C1242  C     0.87230   0.83327   0.59310   0.00000  Uiso   1.00
C1243  C     0.74963   0.79771   0.92724   0.00000  Uiso   1.00
C1244  C     0.73743   0.78958   0.97974   0.00000  Uiso   1.00
C1245  C     0.77000   0.79614   0.50910   0.00000  Uiso   1.00
C1246  C     0.69611   0.90557   0.79803   0.00000  Uiso   1.00
C1247  C     0.83191   0.81018   0.92993   0.00000  Uiso   1.00
C1248  C     0.70538   0.89908   0.85058   0.00000  Uiso   1.00
C1249  C     0.71300   0.75491   0.72475   0.00000  Uiso   1.00
C1250  C     0.74982   0.74440   0.67307   0.00000  Uiso   1.00
C1251  C     0.85142   0.82054   0.51214   0.00000  Uiso   1.00
C1252  C     0.90111   0.82122   0.98507   0.00000  Uiso   1.00
C1253  C     0.91547   0.81110   0.93213   0.00000  Uiso   1.00
C1254  C     0.88159   0.80566   0.90512   0.00000  Uiso   1.00
C1255  C     0.83744   0.83256   0.56505   0.00000  Uiso   1.00
C1256  C     0.92107   0.83273   0.56585   0.00000  Uiso   1.00
Cu1257 Cu    0.78645   0.83333   0.75000   0.00000  Uiso   1.00
Cu1258 Cu    0.88022   0.83334   0.75000   0.00000  Uiso   1.00
H1259  H     0.94835   0.83645   0.58613   0.00000  Uiso   1.00
H1260  H     0.90408   0.96050   0.69574   0.00000  Uiso   1.00
H1261  H     0.69193   0.86856   0.86617   0.00000  Uiso   1.00
H1262  H     0.74403   0.90205   0.84775   0.00000  Uiso   1.00
H1263  H     0.68642   0.92340   0.87914   0.00000  Uiso   1.00
H1264  H     0.72265   0.92411   0.77072   0.00000  Uiso   1.00
H1265  H     0.99867   0.92784   0.80657   0.00000  Uiso   1.00
H1266  H     0.73104   0.73984   0.64268   0.00000  Uiso   1.00
H1267  H     0.77677   0.76889   0.66122   0.00000  Uiso   1.00
H1268  H     0.76857   0.71494   0.67599   0.00000  Uiso   1.00
H1269  H     0.72267   0.74544   0.75956   0.00000  Uiso   1.00
H1270  H     0.90438   0.70316   0.69543   0.00000  Uiso   1.00
H1271  H     0.68309   0.73283   0.72659   0.00000  Uiso   1.00
H1272  H     0.98465   0.85165   0.95429   0.00000  Uiso   1.00
H1273  H     0.77422   0.83757   0.61392   0.00000  Uiso   1.00
H1274  H     0.73271   0.77548   0.86743   0.00000  Uiso   1.00
H1275  H     0.72401   0.77592   0.57081   0.00000  Uiso   1.00
H1276  H     0.76467   0.70657   0.80741   0.00000  Uiso   1.00
H1277  H     0.76532   0.96490   0.80937   0.00000  Uiso   1.00
H1278  H     0.94319   0.88902   0.79212   0.00000  Uiso   1.00
H1279  H     0.96531   0.77692   0.70898   0.00000  Uiso   1.00
H1280  H     0.95295   0.80686   0.91105   0.00000  Uiso   1.00
H1281  H     0.70240   0.77672   0.99759   0.00000  Uiso   1.00
H1282  H     0.89531   0.79487   0.86536   0.00000  Uiso   1.00
N1283  N     0.71598   0.83332   0.74998   0.00000  Uiso   1.00
N1284  N     0.95069   0.83335   0.74999   0.00000  Uiso   1.00
O1285  O     0.79375   0.89345   0.75000   0.00000  Uiso   1.00
O1286  O     0.79381   0.85283   0.58426   0.00000  Uiso   1.00
O1287  O     0.71585   0.78887   0.90126   0.00000  Uiso   1.00
O1288  O     0.75856   0.78312   0.55939   0.00000  Uiso   1.00
O1289  O     0.87294   0.89346   0.75000   0.00000  Uiso   1.00
O1290  O     0.77441   0.83332   0.82549   0.00000  Uiso   1.00
O1291  O     0.85360   0.83333   0.82549   0.00000  Uiso   1.00
O1292  O     0.79373   0.77321   0.74999   0.00000  Uiso   1.00
O1293  O     0.87292   0.77322   0.74999   0.00000  Uiso   1.00
O1294  O     0.81306   0.83334   0.67451   0.00000  Uiso   1.00
O1295  O     0.89225   0.83335   0.67451   0.00000  Uiso   1.00
O1296  O     0.98280   0.83889   0.98776   0.00000  Uiso   1.00
loop_
_geom_bond_atom_site_label_1
_geom_bond_atom_site_label_2
_geom_bond_distance
_geom_bond_site_symmetry_2
_ccdc_geom_bond_type
C1     O65     1.299   .     A
C1     C9      1.445   .     S
C1     O61     1.304   .     A
C2     C4      1.490   .     S
C2     C23     1.428   .     A
C2     C19     1.415   .     A
C3     C9      1.400   .     A
C3     H36     1.084   .     S
C3     C221    1.387   .     S
C4     O67     1.302   .     A
C4     O66     1.322   .     A
C5     H46     1.084   .     S
C5     C6      1.399   .     A
C5     C435    1.387   1_545 S
C6     C7      1.395   .     A
C6     C15     1.438   .     S
C7     H52     1.083   .     S
C7     C440    1.382   1_545 S
C8     H53     1.076   .     S
C8     C9      1.399   .     A
C8     C223    1.382   .     S
C10    H54     1.082   .     S
C10    N60     1.343   .     A
C10    C83     1.420   .     S
C11    C22     1.520   .     S
C11    N59     1.410   .     A
C11    C154    1.420   1_455 S
C12    C23     1.414   .     A
C12    C669    1.420   .     S
C12    C675    1.430   .     S
C13    N59     1.410   .     A
C13    C25     1.521   .     S
C13    C158    1.417   1_455 S
C14    N60     1.345   .     A
C14    H55     1.083   .     S
C14    C85     1.417   .     S
C15    O68     1.303   .     A
C15    O69     1.298   .     A
C16    O71     1.317   .     A
C16    O70     1.301   .     A
C16    C18     1.474   .     S
C17    C32     1.388   .     A
C17    C676    1.414   1_554 S
C17    O720    1.376   1_554 S
C18    C32     1.398   .     A
C18    C31     1.420   .     A
C19    C20     1.389   .     A
C19    O63     1.378   .     S
C20    H57     1.083   .     S
C20    C669    1.402   .     S
C21    O64     1.378   .     S
C21    C660    1.420   1_554 S
C21    C668    1.402   1_554 S
C22    H40     1.096   .     S
C22    C24     1.531   .     S
C22    H185    1.113   1_455 S
C23    C30     1.413   .     A
C24    H38     1.106   .     S
C24    H37     1.110   .     S
C24    H39     1.111   .     S
C25    H47     1.114   .     S
C25    C26     1.526   .     S
C25    H45     1.101   .     S
C26    H43     1.101   .     S
C26    H44     1.110   .     S
C26    H42     1.108   .     S
C27    C31     1.409   .     A
C27    C660    1.430   1_554 S
C27    C676    1.421   1_554 S
C28    C29     1.396   .     A
C28    C665    1.414   .     S
C28    C675    1.421   .     S
C29    H56     1.082   .     S
C29    C30     1.383   .     A
C30    H58     1.079   .     S
C31    O62     1.381   .     S
C32    H35     1.084   .     S
Cu33   N59     2.042   .     S
Cu33   O70     1.960   .     S
Cu33   O61     1.952   .     S
Cu33   Cu34    2.717   .     S
Cu33   O66     1.962   .     S
Cu33   O68     1.951   .     S
Cu34   N60     2.042   .     S
Cu34   O69     1.952   .     S
Cu34   O65     1.951   .     S
Cu34   O67     1.960   .     S
Cu34   O71     1.962   .     S
H41    C94     1.113   .     S
H48    O72     0.989   .     S
H49    O62     0.986   .     S
H50    O63     0.991   .     S
H51    O64     0.992   .     S
O72    C665    1.376   .     S
C73    O137    1.299   .     A
C73    C81     1.445   .     S
C73    O133    1.304   .     A
C74    C76     1.490   .     S
C74    C95     1.428   .     A
C74    C91     1.415   .     A
C75    C81     1.400   .     A
C75    H108    1.084   .     S
C75    C293    1.387   .     S
C76    O139    1.302   .     A
C76    O138    1.322   .     A
C77    H118    1.084   .     S
C77    C78     1.399   .     A
C77    C507    1.387   1_545 S
C78    C79     1.395   .     A
C78    C87     1.438   .     S
C79    H124    1.083   .     S
C79    C512    1.382   1_545 S
C80    H125    1.076   .     S
C80    C81     1.399   .     A
C80    C295    1.382   .     S
C82    H126    1.082   .     S
C82    N132    1.343   .     A
C82    C155    1.420   .     S
C83    C94     1.520   .     S
C83    N131    1.410   .     A
C84    C95     1.414   .     A
C84    C741    1.420   .     S
C84    C747    1.430   .     S
C85    N131    1.410   .     A
C85    C97     1.521   .     S
C86    N132    1.345   .     A
C86    H127    1.083   .     S
C86    C157    1.417   .     S
C87    O140    1.303   .     A
C87    O141    1.298   .     A
C88    O143    1.317   .     A
C88    O142    1.301   .     A
C88    C90     1.474   .     S
C89    C104    1.388   .     A
C89    C748    1.414   1_554 S
C89    O792    1.376   1_554 S
C90    C104    1.398   .     A
C90    C103    1.420   .     A
C91    C92     1.389   .     A
C91    O135    1.378   .     S
C92    H129    1.083   .     S
C92    C741    1.402   .     S
C93    O136    1.378   .     S
C93    C732    1.420   1_554 S
C93    C740    1.402   1_554 S
C94    H112    1.096   .     S
C94    C96     1.531   .     S
C95    C102    1.413   .     A
C96    H110    1.106   .     S
C96    H109    1.110   .     S
C96    H111    1.111   .     S
C97    H119    1.114   .     S
C97    C98     1.526   .     S
C97    H117    1.101   .     S
C98    H115    1.101   .     S
C98    H116    1.110   .     S
C98    H114    1.108   .     S
C99    C103    1.409   .     A
C99    C732    1.430   1_554 S
C99    C748    1.421   1_554 S
C100   C101    1.396   .     A
C100   C737    1.414   .     S
C100   C747    1.421   .     S
C101   H128    1.082   .     S
C101   C102    1.383   .     A
C102   H130    1.079   .     S
C103   O134    1.381   .     S
C104   H107    1.084   .     S
Cu105  N131    2.042   .     S
Cu105  O142    1.960   .     S
Cu105  O133    1.952   .     S
Cu105  Cu106   2.717   .     S
Cu105  O138    1.962   .     S
Cu105  O140    1.951   .     S
Cu106  N132    2.042   .     S
Cu106  O141    1.952   .     S
Cu106  O137    1.951   .     S
Cu106  O139    1.960   .     S
Cu106  O143    1.962   .     S
H113   C166    1.113   .     S
H120   O144    0.989   .     S
H121   O134    0.986   .     S
H122   O135    0.991   .     S
H123   O136    0.992   .     S
O144   C737    1.376   .     S
C145   O209    1.299   .     A
C145   C153    1.445   .     S
C145   O205    1.304   .     A
C146   C148    1.490   .     S
C146   C167    1.428   .     A
C146   C163    1.415   .     A
C147   C153    1.400   .     A
C147   H180    1.084   .     S
C147   C365    1.387   .     S
C148   O211    1.302   .     A
C148   O210    1.322   .     A
C149   H190    1.084   .     S
C149   C150    1.399   .     A
C149   C579    1.387   1_545 S
C150   C151    1.395   .     A
C150   C159    1.438   .     S
C151   H196    1.083   .     S
C151   C584    1.382   1_545 S
C152   H197    1.076   .     S
C152   C153    1.399   .     A
C152   C367    1.382   .     S
C154   H198    1.082   .     S
C154   N204    1.343   .     A
C154   C11     1.420   1_655 S
C155   C166    1.520   .     S
C155   N203    1.410   .     A
C156   C167    1.414   .     A
C156   C813    1.420   .     S
C156   C819    1.430   .     S
C157   N203    1.410   .     A
C157   C169    1.521   .     S
C158   N204    1.345   .     A
C158   H199    1.083   .     S
C158   C13     1.417   1_655 S
C159   O212    1.303   .     A
C159   O213    1.298   .     A
C160   O215    1.317   .     A
C160   O214    1.301   .     A
C160   C162    1.474   .     S
C161   C176    1.388   .     A
C161   C820    1.414   1_554 S
C161   O864    1.376   1_554 S
C162   C176    1.398   .     A
C162   C175    1.420   .     A
C163   C164    1.389   .     A
C163   O207    1.378   .     S
C164   H201    1.083   .     S
C164   C813    1.402   .     S
C165   O208    1.378   .     S
C165   C804    1.420   1_554 S
C165   C812    1.402   1_554 S
C166   H184    1.096   .     S
C166   C168    1.531   .     S
C167   C174    1.413   .     A
C168   H182    1.106   .     S
C168   H181    1.110   .     S
C168   H183    1.111   .     S
C169   H191    1.114   .     S
C169   C170    1.526   .     S
C169   H189    1.101   .     S
C170   H187    1.101   .     S
C170   H188    1.110   .     S
C170   H186    1.108   .     S
C171   C175    1.409   .     A
C171   C804    1.430   1_554 S
C171   C820    1.421   1_554 S
C172   C173    1.396   .     A
C172   C809    1.414   .     S
C172   C819    1.421   .     S
C173   H200    1.082   .     S
C173   C174    1.383   .     A
C174   H202    1.079   .     S
C175   O206    1.381   .     S
C176   H179    1.084   .     S
Cu177  N203    2.042   .     S
Cu177  O214    1.960   .     S
Cu177  O205    1.952   .     S
Cu177  Cu178   2.717   .     S
Cu177  O210    1.962   .     S
Cu177  O212    1.951   .     S
Cu178  N204    2.042   .     S
Cu178  O213    1.952   .     S
Cu178  O209    1.951   .     S
Cu178  O211    1.960   .     S
Cu178  O215    1.962   .     S
H185   C22     1.113   1_655 S
H192   O216    0.989   .     S
H193   O206    0.986   .     S
H194   O207    0.991   .     S
H195   O208    0.992   .     S
O216   C809    1.376   .     S
C217   O281    1.299   .     A
C217   C225    1.445   .     S
C217   O277    1.304   .     A
C218   C220    1.490   .     S
C218   C239    1.428   .     A
C218   C235    1.415   .     A
C219   C225    1.400   .     A
C219   H252    1.084   .     S
C219   C437    1.387   .     S
C220   O283    1.302   .     A
C220   O282    1.322   .     A
C221   H262    1.084   .     S
C221   C222    1.399   .     A
C222   C223    1.395   .     A
C222   C231    1.438   .     S
C223   H268    1.083   .     S
C224   H269    1.076   .     S
C224   C225    1.399   .     A
C224   C439    1.382   .     S
C226   H270    1.082   .     S
C226   N276    1.343   .     A
C226   C299    1.420   .     S
C227   C238    1.520   .     S
C227   N275    1.410   .     A
C227   C370    1.420   1_455 S
C228   C239    1.414   .     A
C228   C885    1.420   .     S
C228   C891    1.430   .     S
C229   N275    1.410   .     A
C229   C241    1.521   .     S
C229   C374    1.417   1_455 S
C230   N276    1.345   .     A
C230   H271    1.083   .     S
C230   C301    1.417   .     S
C231   O284    1.303   .     A
C231   O285    1.298   .     A
C232   O287    1.317   .     A
C232   O286    1.301   .     A
C232   C234    1.474   .     S
C233   C248    1.388   .     A
C233   C892    1.414   1_554 S
C233   O936    1.376   1_554 S
C234   C248    1.398   .     A
C234   C247    1.420   .     A
C235   C236    1.389   .     A
C235   O279    1.378   .     S
C236   H273    1.083   .     S
C236   C885    1.402   .     S
C237   O280    1.378   .     S
C237   C876    1.420   1_554 S
C237   C884    1.402   1_554 S
C238   H256    1.096   .     S
C238   C240    1.531   .     S
C238   H401    1.113   1_455 S
C239   C246    1.413   .     A
C240   H254    1.106   .     S
C240   H253    1.110   .     S
C240   H255    1.111   .     S
C241   H263    1.114   .     S
C241   C242    1.526   .     S
C241   H261    1.101   .     S
C242   H259    1.101   .     S
C242   H260    1.110   .     S
C242   H258    1.108   .     S
C243   C247    1.409   .     A
C243   C876    1.430   1_554 S
C243   C892    1.421   1_554 S
C244   C245    1.396   .     A
C244   C881    1.414   .     S
C244   C891    1.421   .     S
C245   H272    1.082   .     S
C245   C246    1.383   .     A
C246   H274    1.079   .     S
C247   O278    1.381   .     S
C248   H251    1.084   .     S
Cu249  N275    2.042   .     S
Cu249  O286    1.960   .     S
Cu249  O277    1.952   .     S
Cu249  Cu250   2.717   .     S
Cu249  O282    1.962   .     S
Cu249  O284    1.951   .     S
Cu250  N276    2.042   .     S
Cu250  O285    1.952   .     S
Cu250  O281    1.951   .     S
Cu250  O283    1.960   .     S
Cu250  O287    1.962   .     S
H257   C310    1.113   .     S
H264   O288    0.989   .     S
H265   O278    0.986   .     S
H266   O279    0.991   .     S
H267   O280    0.992   .     S
O288   C881    1.376   .     S
C289   O353    1.299   .     A
C289   C297    1.445   .     S
C289   O349    1.304   .     A
C290   C292    1.490   .     S
C290   C311    1.428   .     A
C290   C307    1.415   .     A
C291   C297    1.400   .     A
C291   H324    1.084   .     S
C291   C509    1.387   .     S
C292   O355    1.302   .     A
C292   O354    1.322   .     A
C293   H334    1.084   .     S
C293   C294    1.399   .     A
C294   C295    1.395   .     A
C294   C303    1.438   .     S
C295   H340    1.083   .     S
C296   H341    1.076   .     S
C296   C297    1.399   .     A
C296   C511    1.382   .     S
C298   H342    1.082   .     S
C298   N348    1.343   .     A
C298   C371    1.420   .     S
C299   C310    1.520   .     S
C299   N347    1.410   .     A
C300   C311    1.414   .     A
C300   C957    1.420   .     S
C300   C963    1.430   .     S
C301   N347    1.410   .     A
C301   C313    1.521   .     S
C302   N348    1.345   .     A
C302   H343    1.083   .     S
C302   C373    1.417   .     S
C303   O356    1.303   .     A
C303   O357    1.298   .     A
C304   O359    1.317   .     A
C304   O358    1.301   .     A
C304   C306    1.474   .     S
C305   C320    1.388   .     A
C305   C964    1.414   1_554 S
C305   O1008   1.376   1_554 S
C306   C320    1.398   .     A
C306   C319    1.420   .     A
C307   C308    1.389   .     A
C307   O351    1.378   .     S
C308   H345    1.083   .     S
C308   C957    1.402   .     S
C309   O352    1.378   .     S
C309   C948    1.420   1_554 S
C309   C956    1.402   1_554 S
C310   H328    1.096   .     S
C310   C312    1.531   .     S
C311   C318    1.413   .     A
C312   H326    1.106   .     S
C312   H325    1.110   .     S
C312   H327    1.111   .     S
C313   H335    1.114   .     S
C313   C314    1.526   .     S
C313   H333    1.101   .     S
C314   H331    1.101   .     S
C314   H332    1.110   .     S
C314   H330    1.108   .     S
C315   C319    1.409   .     A
C315   C948    1.430   1_554 S
C315   C964    1.421   1_554 S
C316   C317    1.396   .     A
C316   C953    1.414   .     S
C316   C963    1.421   .     S
C317   H344    1.082   .     S
C317   C318    1.383   .     A
C318   H346    1.079   .     S
C319   O350    1.381   .     S
C320   H323    1.084   .     S
Cu321  N347    2.042   .     S
Cu321  O358    1.960   .     S
Cu321  O349    1.952   .     S
Cu321  Cu322   2.717   .     S
Cu321  O354    1.962   .     S
Cu321  O356    1.951   .     S
Cu322  N348    2.042   .     S
Cu322  O357    1.952   .     S
Cu322  O353    1.951   .     S
Cu322  O355    1.960   .     S
Cu322  O359    1.962   .     S
H329   C382    1.113   .     S
H336   O360    0.989   .     S
H337   O350    0.986   .     S
H338   O351    0.991   .     S
H339   O352    0.992   .     S
O360   C953    1.376   .     S
C361   O425    1.299   .     A
C361   C369    1.445   .     S
C361   O421    1.304   .     A
C362   C364    1.490   .     S
C362   C383    1.428   .     A
C362   C379    1.415   .     A
C363   C369    1.400   .     A
C363   H396    1.084   .     S
C363   C581    1.387   .     S
C364   O427    1.302   .     A
C364   O426    1.322   .     A
C365   H406    1.084   .     S
C365   C366    1.399   .     A
C366   C367    1.395   .     A
C366   C375    1.438   .     S
C367   H412    1.083   .     S
C368   H413    1.076   .     S
C368   C369    1.399   .     A
C368   C583    1.382   .     S
C370   H414    1.082   .     S
C370   N420    1.343   .     A
C370   C227    1.420   1_655 S
C371   C382    1.520   .     S
C371   N419    1.410   .     A
C372   C383    1.414   .     A
C372   C1029   1.420   .     S
C372   C1035   1.430   .     S
C373   N419    1.410   .     A
C373   C385    1.521   .     S
C374   N420    1.345   .     A
C374   H415    1.083   .     S
C374   C229    1.417   1_655 S
C375   O428    1.303   .     A
C375   O429    1.298   .     A
C376   O431    1.317   .     A
C376   O430    1.301   .     A
C376   C378    1.474   .     S
C377   C392    1.388   .     A
C377   C1036   1.414   1_554 S
C377   O1080   1.376   1_554 S
C378   C392    1.398   .     A
C378   C391    1.420   .     A
C379   C380    1.389   .     A
C379   O423    1.378   .     S
C380   H417    1.083   .     S
C380   C1029   1.402   .     S
C381   O424    1.378   .     S
C381   C1020   1.420   1_554 S
C381   C1028   1.402   1_554 S
C382   H400    1.096   .     S
C382   C384    1.531   .     S
C383   C390    1.413   .     A
C384   H398    1.106   .     S
C384   H397    1.110   .     S
C384   H399    1.111   .     S
C385   H407    1.114   .     S
C385   C386    1.526   .     S
C385   H405    1.101   .     S
C386   H403    1.101   .     S
C386   H404    1.110   .     S
C386   H402    1.108   .     S
C387   C391    1.409   .     A
C387   C1020   1.430   1_554 S
C387   C1036   1.421   1_554 S
C388   C389    1.396   .     A
C388   C1025   1.414   .     S
C388   C1035   1.421   .     S
C389   H416    1.082   .     S
C389   C390    1.383   .     A
C390   H418    1.079   .     S
C391   O422    1.381   .     S
C392   H395    1.084   .     S
Cu393  N419    2.042   .     S
Cu393  O430    1.960   .     S
Cu393  O421    1.952   .     S
Cu393  Cu394   2.717   .     S
Cu393  O426    1.962   .     S
Cu393  O428    1.951   .     S
Cu394  N420    2.042   .     S
Cu394  O429    1.952   .     S
Cu394  O425    1.951   .     S
Cu394  O427    1.960   .     S
Cu394  O431    1.962   .     S
H401   C238    1.113   1_655 S
H408   O432    0.989   .     S
H409   O422    0.986   .     S
H410   O423    0.991   .     S
H411   O424    0.992   .     S
O432   C1025   1.376   .     S
C433   O497    1.299   .     A
C433   C441    1.445   .     S
C433   O493    1.304   .     A
C434   C436    1.490   .     S
C434   C455    1.428   .     A
C434   C451    1.415   .     A
C435   C441    1.400   .     A
C435   H468    1.084   .     S
C435   C5      1.387   1_565 S
C436   O499    1.302   .     A
C436   O498    1.322   .     A
C437   H478    1.084   .     S
C437   C438    1.399   .     A
C438   C439    1.395   .     A
C438   C447    1.438   .     S
C439   H484    1.083   .     S
C440   H485    1.076   .     S
C440   C441    1.399   .     A
C440   C7      1.382   1_565 S
C442   H486    1.082   .     S
C442   N492    1.343   .     A
C442   C515    1.420   .     S
C443   C454    1.520   .     S
C443   N491    1.410   .     A
C443   C586    1.420   1_455 S
C444   C455    1.414   .     A
C444   C1101   1.420   .     S
C444   C1107   1.430   .     S
C445   N491    1.410   .     A
C445   C457    1.521   .     S
C445   C590    1.417   1_455 S
C446   N492    1.345   .     A
C446   H487    1.083   .     S
C446   C517    1.417   .     S
C447   O500    1.303   .     A
C447   O501    1.298   .     A
C448   O503    1.317   .     A
C448   O502    1.301   .     A
C448   C450    1.474   .     S
C449   C464    1.388   .     A
C449   C1108   1.414   1_554 S
C449   O1152   1.376   1_554 S
C450   C464    1.398   .     A
C450   C463    1.420   .     A
C451   C452    1.389   .     A
C451   O495    1.378   .     S
C452   H489    1.083   .     S
C452   C1101   1.402   .     S
C453   O496    1.378   .     S
C453   C1092   1.420   1_554 S
C453   C1100   1.402   1_554 S
C454   H472    1.096   .     S
C454   C456    1.531   .     S
C454   H617    1.113   1_455 S
C455   C462    1.413   .     A
C456   H470    1.106   .     S
C456   H469    1.110   .     S
C456   H471    1.111   .     S
C457   H479    1.114   .     S
C457   C458    1.526   .     S
C457   H477    1.101   .     S
C458   H475    1.101   .     S
C458   H476    1.110   .     S
C458   H474    1.108   .     S
C459   C463    1.409   .     A
C459   C1092   1.430   1_554 S
C459   C1108   1.421   1_554 S
C460   C461    1.396   .     A
C460   C1097   1.414   .     S
C460   C1107   1.421   .     S
C461   H488    1.082   .     S
C461   C462    1.383   .     A
C462   H490    1.079   .     S
C463   O494    1.381   .     S
C464   H467    1.084   .     S
Cu465  N491    2.042   .     S
Cu465  O502    1.960   .     S
Cu465  O493    1.952   .     S
Cu465  Cu466   2.717   .     S
Cu465  O498    1.962   .     S
Cu465  O500    1.951   .     S
Cu466  N492    2.042   .     S
Cu466  O501    1.952   .     S
Cu466  O497    1.951   .     S
Cu466  O499    1.960   .     S
Cu466  O503    1.962   .     S
H473   C526    1.113   .     S
H480   O504    0.989   .     S
H481   O494    0.986   .     S
H482   O495    0.991   .     S
H483   O496    0.992   .     S
O504   C1097   1.376   .     S
C505   O569    1.299   .     A
C505   C513    1.445   .     S
C505   O565    1.304   .     A
C506   C508    1.490   .     S
C506   C527    1.428   .     A
C506   C523    1.415   .     A
C507   C513    1.400   .     A
C507   H540    1.084   .     S
C507   C77     1.387   1_565 S
C508   O571    1.302   .     A
C508   O570    1.322   .     A
C509   H550    1.084   .     S
C509   C510    1.399   .     A
C510   C511    1.395   .     A
C510   C519    1.438   .     S
C511   H556    1.083   .     S
C512   H557    1.076   .     S
C512   C513    1.399   .     A
C512   C79     1.382   1_565 S
C514   H558    1.082   .     S
C514   N564    1.343   .     A
C514   C587    1.420   .     S
C515   C526    1.520   .     S
C515   N563    1.410   .     A
C516   C527    1.414   .     A
C516   C1173   1.420   .     S
C516   C1179   1.430   .     S
C517   N563    1.410   .     A
C517   C529    1.521   .     S
C518   N564    1.345   .     A
C518   H559    1.083   .     S
C518   C589    1.417   .     S
C519   O572    1.303   .     A
C519   O573    1.298   .     A
C520   O575    1.317   .     A
C520   O574    1.301   .     A
C520   C522    1.474   .     S
C521   C536    1.388   .     A
C521   C1180   1.414   1_554 S
C521   O1224   1.376   1_554 S
C522   C536    1.398   .     A
C522   C535    1.420   .     A
C523   C524    1.389   .     A
C523   O567    1.378   .     S
C524   H561    1.083   .     S
C524   C1173   1.402   .     S
C525   O568    1.378   .     S
C525   C1164   1.420   1_554 S
C525   C1172   1.402   1_554 S
C526   H544    1.096   .     S
C526   C528    1.531   .     S
C527   C534    1.413   .     A
C528   H542    1.106   .     S
C528   H541    1.110   .     S
C528   H543    1.111   .     S
C529   H551    1.114   .     S
C529   C530    1.526   .     S
C529   H549    1.101   .     S
C530   H547    1.101   .     S
C530   H548    1.110   .     S
C530   H546    1.108   .     S
C531   C535    1.409   .     A
C531   C1164   1.430   1_554 S
C531   C1180   1.421   1_554 S
C532   C533    1.396   .     A
C532   C1169   1.414   .     S
C532   C1179   1.421   .     S
C533   H560    1.082   .     S
C533   C534    1.383   .     A
C534   H562    1.079   .     S
C535   O566    1.381   .     S
C536   H539    1.084   .     S
Cu537  N563    2.042   .     S
Cu537  O574    1.960   .     S
Cu537  O565    1.952   .     S
Cu537  Cu538   2.717   .     S
Cu537  O570    1.962   .     S
Cu537  O572    1.951   .     S
Cu538  N564    2.042   .     S
Cu538  O573    1.952   .     S
Cu538  O569    1.951   .     S
Cu538  O571    1.960   .     S
Cu538  O575    1.962   .     S
H545   C598    1.113   .     S
H552   O576    0.989   .     S
H553   O566    0.986   .     S
H554   O567    0.991   .     S
H555   O568    0.992   .     S
O576   C1169   1.376   .     S
C577   O641    1.299   .     A
C577   C585    1.445   .     S
C577   O637    1.304   .     A
C578   C580    1.490   .     S
C578   C599    1.428   .     A
C578   C595    1.415   .     A
C579   C585    1.400   .     A
C579   H612    1.084   .     S
C579   C149    1.387   1_565 S
C580   O643    1.302   .     A
C580   O642    1.322   .     A
C581   H622    1.084   .     S
C581   C582    1.399   .     A
C582   C583    1.395   .     A
C582   C591    1.438   .     S
C583   H628    1.083   .     S
C584   H629    1.076   .     S
C584   C585    1.399   .     A
C584   C151    1.382   1_565 S
C586   H630    1.082   .     S
C586   N636    1.343   .     A
C586   C443    1.420   1_655 S
C587   C598    1.520   .     S
C587   N635    1.410   .     A
C588   C599    1.414   .     A
C588   C1245   1.420   .     S
C588   C1251   1.430   .     S
C589   N635    1.410   .     A
C589   C601    1.521   .     S
C590   N636    1.345   .     A
C590   H631    1.083   .     S
C590   C445    1.417   1_655 S
C591   O644    1.303   .     A
C591   O645    1.298   .     A
C592   O647    1.317   .     A
C592   O646    1.301   .     A
C592   C594    1.474   .     S
C593   C608    1.388   .     A
C593   C1252   1.414   1_554 S
C593   O1296   1.376   1_554 S
C594   C608    1.398   .     A
C594   C607    1.420   .     A
C595   C596    1.389   .     A
C595   O639    1.378   .     S
C596   H633    1.083   .     S
C596   C1245   1.402   .     S
C597   O640    1.378   .     S
C597   C1236   1.420   1_554 S
C597   C1244   1.402   1_554 S
C598   H616    1.096   .     S
C598   C600    1.531   .     S
C599   C606    1.413   .     A
C600   H614    1.106   .     S
C600   H613    1.110   .     S
C600   H615    1.111   .     S
C601   H623    1.114   .     S
C601   C602    1.526   .     S
C601   H621    1.101   .     S
C602   H619    1.101   .     S
C602   H620    1.110   .     S
C602   H618    1.108   .     S
C603   C607    1.409   .     A
C603   C1236   1.430   1_554 S
C603   C1252   1.421   1_554 S
C604   C605    1.396   .     A
C604   C1241   1.414   .     S
C604   C1251   1.421   .     S
C605   H632    1.082   .     S
C605   C606    1.383   .     A
C606   H634    1.079   .     S
C607   O638    1.381   .     S
C608   H611    1.084   .     S
Cu609  N635    2.042   .     S
Cu609  O646    1.960   .     S
Cu609  O637    1.952   .     S
Cu609  Cu610   2.717   .     S
Cu609  O642    1.962   .     S
Cu609  O644    1.951   .     S
Cu610  N636    2.042   .     S
Cu610  O645    1.952   .     S
Cu610  O641    1.951   .     S
Cu610  O643    1.960   .     S
Cu610  O647    1.962   .     S
H617   C454    1.113   1_655 S
H624   O648    0.989   .     S
H625   O638    0.986   .     S
H626   O639    0.991   .     S
H627   O640    0.992   .     S
O648   C1241   1.376   .     S
C649   O713    1.299   .     A
C649   C657    1.445   .     S
C649   O709    1.304   .     A
C650   C652    1.490   .     S
C650   C671    1.428   .     A
C650   C667    1.415   .     A
C651   C657    1.400   .     A
C651   H684    1.084   .     S
C651   C869    1.387   .     S
C652   O715    1.302   .     A
C652   O714    1.322   .     A
C653   H694    1.084   .     S
C653   C654    1.399   .     A
C653   C1083   1.387   1_545 S
C654   C655    1.395   .     A
C654   C663    1.438   .     S
C655   H700    1.083   .     S
C655   C1088   1.382   1_545 S
C656   H701    1.076   .     S
C656   C657    1.399   .     A
C656   C871    1.382   .     S
C658   H702    1.082   .     S
C658   N708    1.343   .     A
C658   C731    1.420   .     S
C659   C670    1.520   .     S
C659   N707    1.410   .     A
C659   C802    1.420   1_455 S
C660   C671    1.414   .     A
C660   C21     1.420   1_556 S
C660   C27     1.430   1_556 S
C661   N707    1.410   .     A
C661   C673    1.521   .     S
C661   C806    1.417   1_455 S
C662   N708    1.345   .     A
C662   H703    1.083   .     S
C662   C733    1.417   .     S
C663   O716    1.303   .     A
C663   O717    1.298   .     A
C664   O719    1.317   .     A
C664   O718    1.301   .     A
C664   C666    1.474   .     S
C665   C680    1.388   .     A
C666   C680    1.398   .     A
C666   C679    1.420   .     A
C667   C668    1.389   .     A
C667   O711    1.378   .     S
C668   H705    1.083   .     S
C668   C21     1.402   1_556 S
C669   O712    1.378   .     S
C670   H688    1.096   .     S
C670   C672    1.531   .     S
C670   H833    1.113   1_455 S
C671   C678    1.413   .     A
C672   H686    1.106   .     S
C672   H685    1.110   .     S
C672   H687    1.111   .     S
C673   H695    1.114   .     S
C673   C674    1.526   .     S
C673   H693    1.101   .     S
C674   H691    1.101   .     S
C674   H692    1.110   .     S
C674   H690    1.108   .     S
C675   C679    1.409   .     A
C676   C677    1.396   .     A
C676   C17     1.414   1_556 S
C676   C27     1.421   1_556 S
C677   H704    1.082   .     S
C677   C678    1.383   .     A
C678   H706    1.079   .     S
C679   O710    1.381   .     S
C680   H683    1.084   .     S
Cu681  N707    2.042   .     S
Cu681  O718    1.960   .     S
Cu681  O709    1.952   .     S
Cu681  Cu682   2.717   .     S
Cu681  O714    1.962   .     S
Cu681  O716    1.951   .     S
Cu682  N708    2.042   .     S
Cu682  O717    1.952   .     S
Cu682  O713    1.951   .     S
Cu682  O715    1.960   .     S
Cu682  O719    1.962   .     S
H689   C742    1.113   .     S
H696   O720    0.989   .     S
H697   O710    0.986   .     S
H698   O711    0.991   .     S
H699   O712    0.992   .     S
O720   C17     1.376   1_556 S
C721   O785    1.299   .     A
C721   C729    1.445   .     S
C721   O781    1.304   .     A
C722   C724    1.490   .     S
C722   C743    1.428   .     A
C722   C739    1.415   .     A
C723   C729    1.400   .     A
C723   H756    1.084   .     S
C723   C941    1.387   .     S
C724   O787    1.302   .     A
C724   O786    1.322   .     A
C725   H766    1.084   .     S
C725   C726    1.399   .     A
C725   C1155   1.387   1_545 S
C726   C727    1.395   .     A
C726   C735    1.438   .     S
C727   H772    1.083   .     S
C727   C1160   1.382   1_545 S
C728   H773    1.076   .     S
C728   C729    1.399   .     A
C728   C943    1.382   .     S
C730   H774    1.082   .     S
C730   N780    1.343   .     A
C730   C803    1.420   .     S
C731   C742    1.520   .     S
C731   N779    1.410   .     A
C732   C743    1.414   .     A
C732   C93     1.420   1_556 S
C732   C99     1.430   1_556 S
C733   N779    1.410   .     A
C733   C745    1.521   .     S
C734   N780    1.345   .     A
C734   H775    1.083   .     S
C734   C805    1.417   .     S
C735   O788    1.303   .     A
C735   O789    1.298   .     A
C736   O791    1.317   .     A
C736   O790    1.301   .     A
C736   C738    1.474   .     S
C737   C752    1.388   .     A
C738   C752    1.398   .     A
C738   C751    1.420   .     A
C739   C740    1.389   .     A
C739   O783    1.378   .     S
C740   H777    1.083   .     S
C740   C93     1.402   1_556 S
C741   O784    1.378   .     S
C742   H760    1.096   .     S
C742   C744    1.531   .     S
C743   C750    1.413   .     A
C744   H758    1.106   .     S
C744   H757    1.110   .     S
C744   H759    1.111   .     S
C745   H767    1.114   .     S
C745   C746    1.526   .     S
C745   H765    1.101   .     S
C746   H763    1.101   .     S
C746   H764    1.110   .     S
C746   H762    1.108   .     S
C747   C751    1.409   .     A
C748   C749    1.396   .     A
C748   C89     1.414   1_556 S
C748   C99     1.421   1_556 S
C749   H776    1.082   .     S
C749   C750    1.383   .     A
C750   H778    1.079   .     S
C751   O782    1.381   .     S
C752   H755    1.084   .     S
Cu753  N779    2.042   .     S
Cu753  O790    1.960   .     S
Cu753  O781    1.952   .     S
Cu753  Cu754   2.717   .     S
Cu753  O786    1.962   .     S
Cu753  O788    1.951   .     S
Cu754  N780    2.042   .     S
Cu754  O789    1.952   .     S
Cu754  O785    1.951   .     S
Cu754  O787    1.960   .     S
Cu754  O791    1.962   .     S
H761   C814    1.113   .     S
H768   O792    0.989   .     S
H769   O782    0.986   .     S
H770   O783    0.991   .     S
H771   O784    0.992   .     S
O792   C89     1.376   1_556 S
C793   O857    1.299   .     A
C793   C801    1.445   .     S
C793   O853    1.304   .     A
C794   C796    1.490   .     S
C794   C815    1.428   .     A
C794   C811    1.415   .     A
C795   C801    1.400   .     A
C795   H828    1.084   .     S
C795   C1013   1.387   .     S
C796   O859    1.302   .     A
C796   O858    1.322   .     A
C797   H838    1.084   .     S
C797   C798    1.399   .     A
C797   C1227   1.387   1_545 S
C798   C799    1.395   .     A
C798   C807    1.438   .     S
C799   H844    1.083   .     S
C799   C1232   1.382   1_545 S
C800   H845    1.076   .     S
C800   C801    1.399   .     A
C800   C1015   1.382   .     S
C802   H846    1.082   .     S
C802   N852    1.343   .     A
C802   C659    1.420   1_655 S
C803   C814    1.520   .     S
C803   N851    1.410   .     A
C804   C815    1.414   .     A
C804   C165    1.420   1_556 S
C804   C171    1.430   1_556 S
C805   N851    1.410   .     A
C805   C817    1.521   .     S
C806   N852    1.345   .     A
C806   H847    1.083   .     S
C806   C661    1.417   1_655 S
C807   O860    1.303   .     A
C807   O861    1.298   .     A
C808   O863    1.317   .     A
C808   O862    1.301   .     A
C808   C810    1.474   .     S
C809   C824    1.388   .     A
C810   C824    1.398   .     A
C810   C823    1.420   .     A
C811   C812    1.389   .     A
C811   O855    1.378   .     S
C812   H849    1.083   .     S
C812   C165    1.402   1_556 S
C813   O856    1.378   .     S
C814   H832    1.096   .     S
C814   C816    1.531   .     S
C815   C822    1.413   .     A
C816   H830    1.106   .     S
C816   H829    1.110   .     S
C816   H831    1.111   .     S
C817   H839    1.114   .     S
C817   C818    1.526   .     S
C817   H837    1.101   .     S
C818   H835    1.101   .     S
C818   H836    1.110   .     S
C818   H834    1.108   .     S
C819   C823    1.409   .     A
C820   C821    1.396   .     A
C820   C161    1.414   1_556 S
C820   C171    1.421   1_556 S
C821   H848    1.082   .     S
C821   C822    1.383   .     A
C822   H850    1.079   .     S
C823   O854    1.381   .     S
C824   H827    1.084   .     S
Cu825  N851    2.042   .     S
Cu825  O862    1.960   .     S
Cu825  O853    1.952   .     S
Cu825  Cu826   2.717   .     S
Cu825  O858    1.962   .     S
Cu825  O860    1.951   .     S
Cu826  N852    2.042   .     S
Cu826  O861    1.952   .     S
Cu826  O857    1.951   .     S
Cu826  O859    1.960   .     S
Cu826  O863    1.962   .     S
H833   C670    1.113   1_655 S
H840   O864    0.989   .     S
H841   O854    0.986   .     S
H842   O855    0.991   .     S
H843   O856    0.992   .     S
O864   C161    1.376   1_556 S
C865   O929    1.299   .     A
C865   C873    1.445   .     S
C865   O925    1.304   .     A
C866   C868    1.490   .     S
C866   C887    1.428   .     A
C866   C883    1.415   .     A
C867   C873    1.400   .     A
C867   H900    1.084   .     S
C867   C1085   1.387   .     S
C868   O931    1.302   .     A
C868   O930    1.322   .     A
C869   H910    1.084   .     S
C869   C870    1.399   .     A
C870   C871    1.395   .     A
C870   C879    1.438   .     S
C871   H916    1.083   .     S
C872   H917    1.076   .     S
C872   C873    1.399   .     A
C872   C1087   1.382   .     S
C874   H918    1.082   .     S
C874   N924    1.343   .     A
C874   C947    1.420   .     S
C875   C886    1.520   .     S
C875   N923    1.410   .     A
C875   C1018   1.420   1_455 S
C876   C887    1.414   .     A
C876   C237    1.420   1_556 S
C876   C243    1.430   1_556 S
C877   N923    1.410   .     A
C877   C889    1.521   .     S
C877   C1022   1.417   1_455 S
C878   N924    1.345   .     A
C878   H919    1.083   .     S
C878   C949    1.417   .     S
C879   O932    1.303   .     A
C879   O933    1.298   .     A
C880   O935    1.317   .     A
C880   O934    1.301   .     A
C880   C882    1.474   .     S
C881   C896    1.388   .     A
C882   C896    1.398   .     A
C882   C895    1.420   .     A
C883   C884    1.389   .     A
C883   O927    1.378   .     S
C884   H921    1.083   .     S
C884   C237    1.402   1_556 S
C885   O928    1.378   .     S
C886   H904    1.096   .     S
C886   C888    1.531   .     S
C886   H1049   1.113   1_455 S
C887   C894    1.413   .     A
C888   H902    1.106   .     S
C888   H901    1.110   .     S
C888   H903    1.111   .     S
C889   H911    1.114   .     S
C889   C890    1.526   .     S
C889   H909    1.101   .     S
C890   H907    1.101   .     S
C890   H908    1.110   .     S
C890   H906    1.108   .     S
C891   C895    1.409   .     A
C892   C893    1.396   .     A
C892   C233    1.414   1_556 S
C892   C243    1.421   1_556 S
C893   H920    1.082   .     S
C893   C894    1.383   .     A
C894   H922    1.079   .     S
C895   O926    1.381   .     S
C896   H899    1.084   .     S
Cu897  N923    2.042   .     S
Cu897  O934    1.960   .     S
Cu897  O925    1.952   .     S
Cu897  Cu898   2.717   .     S
Cu897  O930    1.962   .     S
Cu897  O932    1.951   .     S
Cu898  N924    2.042   .     S
Cu898  O933    1.952   .     S
Cu898  O929    1.951   .     S
Cu898  O931    1.960   .     S
Cu898  O935    1.962   .     S
H905   C958    1.113   .     S
H912   O936    0.989   .     S
H913   O926    0.986   .     S
H914   O927    0.991   .     S
H915   O928    0.992   .     S
O936   C233    1.376   1_556 S
C937   O1001   1.299   .     A
C937   C945    1.445   .     S
C937   O997    1.304   .     A
C938   C940    1.490   .     S
C938   C959    1.428   .     A
C938   C955    1.415   .     A
C939   C945    1.400   .     A
C939   H972    1.084   .     S
C939   C1157   1.387   .     S
C940   O1003   1.302   .     A
C940   O1002   1.322   .     A
C941   H982    1.084   .     S
C941   C942    1.399   .     A
C942   C943    1.395   .     A
C942   C951    1.438   .     S
C943   H988    1.083   .     S
C944   H989    1.076   .     S
C944   C945    1.399   .     A
C944   C1159   1.382   .     S
C946   H990    1.082   .     S
C946   N996    1.343   .     A
C946   C1019   1.420   .     S
C947   C958    1.520   .     S
C947   N995    1.410   .     A
C948   C959    1.414   .     A
C948   C309    1.420   1_556 S
C948   C315    1.430   1_556 S
C949   N995    1.410   .     A
C949   C961    1.521   .     S
C950   N996    1.345   .     A
C950   H991    1.083   .     S
C950   C1021   1.417   .     S
C951   O1004   1.303   .     A
C951   O1005   1.298   .     A
C952   O1007   1.317   .     A
C952   O1006   1.301   .     A
C952   C954    1.474   .     S
C953   C968    1.388   .     A
C954   C968    1.398   .     A
C954   C967    1.420   .     A
C955   C956    1.389   .     A
C955   O999    1.378   .     S
C956   H993    1.083   .     S
C956   C309    1.402   1_556 S
C957   O1000   1.378   .     S
C958   H976    1.096   .     S
C958   C960    1.531   .     S
C959   C966    1.413   .     A
C960   H974    1.106   .     S
C960   H973    1.110   .     S
C960   H975    1.111   .     S
C961   H983    1.114   .     S
C961   C962    1.526   .     S
C961   H981    1.101   .     S
C962   H979    1.101   .     S
C962   H980    1.110   .     S
C962   H978    1.108   .     S
C963   C967    1.409   .     A
C964   C965    1.396   .     A
C964   C305    1.414   1_556 S
C964   C315    1.421   1_556 S
C965   H992    1.082   .     S
C965   C966    1.383   .     A
C966   H994    1.079   .     S
C967   O998    1.381   .     S
C968   H971    1.084   .     S
Cu969  N995    2.042   .     S
Cu969  O1006   1.960   .     S
Cu969  O997    1.952   .     S
Cu969  Cu970   2.717   .     S
Cu969  O1002   1.962   .     S
Cu969  O1004   1.951   .     S
Cu970  N996    2.042   .     S
Cu970  O1005   1.952   .     S
Cu970  O1001   1.951   .     S
Cu970  O1003   1.960   .     S
Cu970  O1007   1.962   .     S
H977   C1030   1.113   .     S
H984   O1008   0.989   .     S
H985   O998    0.986   .     S
H986   O999    0.991   .     S
H987   O1000   0.992   .     S
O1008  C305    1.376   1_556 S
C1009  O1073   1.299   .     A
C1009  C1017   1.445   .     S
C1009  O1069   1.304   .     A
C1010  C1012   1.490   .     S
C1010  C1031   1.428   .     A
C1010  C1027   1.415   .     A
C1011  C1017   1.400   .     A
C1011  H1044   1.084   .     S
C1011  C1229   1.387   .     S
C1012  O1075   1.302   .     A
C1012  O1074   1.322   .     A
C1013  H1054   1.084   .     S
C1013  C1014   1.399   .     A
C1014  C1015   1.395   .     A
C1014  C1023   1.438   .     S
C1015  H1060   1.083   .     S
C1016  H1061   1.076   .     S
C1016  C1017   1.399   .     A
C1016  C1231   1.382   .     S
C1018  H1062   1.082   .     S
C1018  N1068   1.343   .     A
C1018  C875    1.420   1_655 S
C1019  C1030   1.520   .     S
C1019  N1067   1.410   .     A
C1020  C1031   1.414   .     A
C1020  C381    1.420   1_556 S
C1020  C387    1.430   1_556 S
C1021  N1067   1.410   .     A
C1021  C1033   1.521   .     S
C1022  N1068   1.345   .     A
C1022  H1063   1.083   .     S
C1022  C877    1.417   1_655 S
C1023  O1076   1.303   .     A
C1023  O1077   1.298   .     A
C1024  O1079   1.317   .     A
C1024  O1078   1.301   .     A
C1024  C1026   1.474   .     S
C1025  C1040   1.388   .     A
C1026  C1040   1.398   .     A
C1026  C1039   1.420   .     A
C1027  C1028   1.389   .     A
C1027  O1071   1.378   .     S
C1028  H1065   1.083   .     S
C1028  C381    1.402   1_556 S
C1029  O1072   1.378   .     S
C1030  H1048   1.096   .     S
C1030  C1032   1.531   .     S
C1031  C1038   1.413   .     A
C1032  H1046   1.106   .     S
C1032  H1045   1.110   .     S
C1032  H1047   1.111   .     S
C1033  H1055   1.114   .     S
C1033  C1034   1.526   .     S
C1033  H1053   1.101   .     S
C1034  H1051   1.101   .     S
C1034  H1052   1.110   .     S
C1034  H1050   1.108   .     S
C1035  C1039   1.409   .     A
C1036  C1037   1.396   .     A
C1036  C377    1.414   1_556 S
C1036  C387    1.421   1_556 S
C1037  H1064   1.082   .     S
C1037  C1038   1.383   .     A
C1038  H1066   1.079   .     S
C1039  O1070   1.381   .     S
C1040  H1043   1.084   .     S
Cu1041 N1067   2.042   .     S
Cu1041 O1078   1.960   .     S
Cu1041 O1069   1.952   .     S
Cu1041 Cu1042  2.717   .     S
Cu1041 O1074   1.962   .     S
Cu1041 O1076   1.951   .     S
Cu1042 N1068   2.042   .     S
Cu1042 O1077   1.952   .     S
Cu1042 O1073   1.951   .     S
Cu1042 O1075   1.960   .     S
Cu1042 O1079   1.962   .     S
H1049  C886    1.113   1_655 S
H1056  O1080   0.989   .     S
H1057  O1070   0.986   .     S
H1058  O1071   0.991   .     S
H1059  O1072   0.992   .     S
O1080  C377    1.376   1_556 S
C1081  O1145   1.299   .     A
C1081  C1089   1.445   .     S
C1081  O1141   1.304   .     A
C1082  C1084   1.490   .     S
C1082  C1103   1.428   .     A
C1082  C1099   1.415   .     A
C1083  C1089   1.400   .     A
C1083  H1116   1.084   .     S
C1083  C653    1.387   1_565 S
C1084  O1147   1.302   .     A
C1084  O1146   1.322   .     A
C1085  H1126   1.084   .     S
C1085  C1086   1.399   .     A
C1086  C1087   1.395   .     A
C1086  C1095   1.438   .     S
C1087  H1132   1.083   .     S
C1088  H1133   1.076   .     S
C1088  C1089   1.399   .     A
C1088  C655    1.382   1_565 S
C1090  H1134   1.082   .     S
C1090  N1140   1.343   .     A
C1090  C1163   1.420   .     S
C1091  C1102   1.520   .     S
C1091  N1139   1.410   .     A
C1091  C1234   1.420   1_455 S
C1092  C1103   1.414   .     A
C1092  C453    1.420   1_556 S
C1092  C459    1.430   1_556 S
C1093  N1139   1.410   .     A
C1093  C1105   1.521   .     S
C1093  C1238   1.417   1_455 S
C1094  N1140   1.345   .     A
C1094  H1135   1.083   .     S
C1094  C1165   1.417   .     S
C1095  O1148   1.303   .     A
C1095  O1149   1.298   .     A
C1096  O1151   1.317   .     A
C1096  O1150   1.301   .     A
C1096  C1098   1.474   .     S
C1097  C1112   1.388   .     A
C1098  C1112   1.398   .     A
C1098  C1111   1.420   .     A
C1099  C1100   1.389   .     A
C1099  O1143   1.378   .     S
C1100  H1137   1.083   .     S
C1100  C453    1.402   1_556 S
C1101  O1144   1.378   .     S
C1102  H1120   1.096   .     S
C1102  C1104   1.531   .     S
C1102  H1265   1.113   1_455 S
C1103  C1110   1.413   .     A
C1104  H1118   1.106   .     S
C1104  H1117   1.110   .     S
C1104  H1119   1.111   .     S
C1105  H1127   1.114   .     S
C1105  C1106   1.526   .     S
C1105  H1125   1.101   .     S
C1106  H1123   1.101   .     S
C1106  H1124   1.110   .     S
C1106  H1122   1.108   .     S
C1107  C1111   1.409   .     A
C1108  C1109   1.396   .     A
C1108  C449    1.414   1_556 S
C1108  C459    1.421   1_556 S
C1109  H1136   1.082   .     S
C1109  C1110   1.383   .     A
C1110  H1138   1.079   .     S
C1111  O1142   1.381   .     S
C1112  H1115   1.084   .     S
Cu1113 N1139   2.042   .     S
Cu1113 O1150   1.960   .     S
Cu1113 O1141   1.952   .     S
Cu1113 Cu1114  2.717   .     S
Cu1113 O1146   1.962   .     S
Cu1113 O1148   1.951   .     S
Cu1114 N1140   2.042   .     S
Cu1114 O1149   1.952   .     S
Cu1114 O1145   1.951   .     S
Cu1114 O1147   1.960   .     S
Cu1114 O1151   1.962   .     S
H1121  C1174   1.113   .     S
H1128  O1152   0.989   .     S
H1129  O1142   0.986   .     S
H1130  O1143   0.991   .     S
H1131  O1144   0.992   .     S
O1152  C449    1.376   1_556 S
C1153  O1217   1.299   .     A
C1153  C1161   1.445   .     S
C1153  O1213   1.304   .     A
C1154  C1156   1.490   .     S
C1154  C1175   1.428   .     A
C1154  C1171   1.415   .     A
C1155  C1161   1.400   .     A
C1155  H1188   1.084   .     S
C1155  C725    1.387   1_565 S
C1156  O1219   1.302   .     A
C1156  O1218   1.322   .     A
C1157  H1198   1.084   .     S
C1157  C1158   1.399   .     A
C1158  C1159   1.395   .     A
C1158  C1167   1.438   .     S
C1159  H1204   1.083   .     S
C1160  H1205   1.076   .     S
C1160  C1161   1.399   .     A
C1160  C727    1.382   1_565 S
C1162  H1206   1.082   .     S
C1162  N1212   1.343   .     A
C1162  C1235   1.420   .     S
C1163  C1174   1.520   .     S
C1163  N1211   1.410   .     A
C1164  C1175   1.414   .     A
C1164  C525    1.420   1_556 S
C1164  C531    1.430   1_556 S
C1165  N1211   1.410   .     A
C1165  C1177   1.521   .     S
C1166  N1212   1.345   .     A
C1166  H1207   1.083   .     S
C1166  C1237   1.417   .     S
C1167  O1220   1.303   .     A
C1167  O1221   1.298   .     A
C1168  O1223   1.317   .     A
C1168  O1222   1.301   .     A
C1168  C1170   1.474   .     S
C1169  C1184   1.388   .     A
C1170  C1184   1.398   .     A
C1170  C1183   1.420   .     A
C1171  C1172   1.389   .     A
C1171  O1215   1.378   .     S
C1172  H1209   1.083   .     S
C1172  C525    1.402   1_556 S
C1173  O1216   1.378   .     S
C1174  H1192   1.096   .     S
C1174  C1176   1.531   .     S
C1175  C1182   1.413   .     A
C1176  H1190   1.106   .     S
C1176  H1189   1.110   .     S
C1176  H1191   1.111   .     S
C1177  H1199   1.114   .     S
C1177  C1178   1.526   .     S
C1177  H1197   1.101   .     S
C1178  H1195   1.101   .     S
C1178  H1196   1.110   .     S
C1178  H1194   1.108   .     S
C1179  C1183   1.409   .     A
C1180  C1181   1.396   .     A
C1180  C521    1.414   1_556 S
C1180  C531    1.421   1_556 S
C1181  H1208   1.082   .     S
C1181  C1182   1.383   .     A
C1182  H1210   1.079   .     S
C1183  O1214   1.381   .     S
C1184  H1187   1.084   .     S
Cu1185 N1211   2.042   .     S
Cu1185 O1222   1.960   .     S
Cu1185 O1213   1.952   .     S
Cu1185 Cu1186  2.717   .     S
Cu1185 O1218   1.962   .     S
Cu1185 O1220   1.951   .     S
Cu1186 N1212   2.042   .     S
Cu1186 O1221   1.952   .     S
Cu1186 O1217   1.951   .     S
Cu1186 O1219   1.960   .     S
Cu1186 O1223   1.962   .     S
H1193  C1246   1.113   .     S
H1200  O1224   0.989   .     S
H1201  O1214   0.986   .     S
H1202  O1215   0.991   .     S
H1203  O1216   0.992   .     S
O1224  C521    1.376   1_556 S
C1225  O1289   1.299   .     A
C1225  C1233   1.445   .     S
C1225  O1285   1.304   .     A
C1226  C1228   1.490   .     S
C1226  C1247   1.428   .     A
C1226  C1243   1.415   .     A
C1227  C1233   1.400   .     A
C1227  H1260   1.084   .     S
C1227  C797    1.387   1_565 S
C1228  O1291   1.302   .     A
C1228  O1290   1.322   .     A
C1229  H1270   1.084   .     S
C1229  C1230   1.399   .     A
C1230  C1231   1.395   .     A
C1230  C1239   1.438   .     S
C1231  H1276   1.083   .     S
C1232  H1277   1.076   .     S
C1232  C1233   1.399   .     A
C1232  C799    1.382   1_565 S
C1234  H1278   1.082   .     S
C1234  N1284   1.343   .     A
C1234  C1091   1.420   1_655 S
C1235  C1246   1.520   .     S
C1235  N1283   1.410   .     A
C1236  C1247   1.414   .     A
C1236  C597    1.420   1_556 S
C1236  C603    1.430   1_556 S
C1237  N1283   1.410   .     A
C1237  C1249   1.521   .     S
C1238  N1284   1.345   .     A
C1238  H1279   1.083   .     S
C1238  C1093   1.417   1_655 S
C1239  O1292   1.303   .     A
C1239  O1293   1.298   .     A
C1240  O1295   1.317   .     A
C1240  O1294   1.301   .     A
C1240  C1242   1.474   .     S
C1241  C1256   1.388   .     A
C1242  C1256   1.398   .     A
C1242  C1255   1.420   .     A
C1243  C1244   1.389   .     A
C1243  O1287   1.378   .     S
C1244  H1281   1.083   .     S
C1244  C597    1.402   1_556 S
C1245  O1288   1.378   .     S
C1246  H1264   1.096   .     S
C1246  C1248   1.531   .     S
C1247  C1254   1.413   .     A
C1248  H1262   1.106   .     S
C1248  H1261   1.110   .     S
C1248  H1263   1.111   .     S
C1249  H1271   1.114   .     S
C1249  C1250   1.526   .     S
C1249  H1269   1.101   .     S
C1250  H1267   1.101   .     S
C1250  H1268   1.110   .     S
C1250  H1266   1.108   .     S
C1251  C1255   1.409   .     A
C1252  C1253   1.396   .     A
C1252  C593    1.414   1_556 S
C1252  C603    1.421   1_556 S
C1253  H1280   1.082   .     S
C1253  C1254   1.383   .     A
C1254  H1282   1.079   .     S
C1255  O1286   1.381   .     S
C1256  H1259   1.084   .     S
Cu1257 N1283   2.042   .     S
Cu1257 O1294   1.960   .     S
Cu1257 O1285   1.952   .     S
Cu1257 Cu1258  2.717   .     S
Cu1257 O1290   1.962   .     S
Cu1257 O1292   1.951   .     S
Cu1258 N1284   2.042   .     S
Cu1258 O1293   1.952   .     S
Cu1258 O1289   1.951   .     S
Cu1258 O1291   1.960   .     S
Cu1258 O1295   1.962   .     S
H1265  C1102   1.113   1_655 S
H1272  O1296   0.989   .     S
H1273  O1286   0.986   .     S
H1274  O1287   0.991   .     S
H1275  O1288   0.992   .     S
O1296  C593    1.376   1_556 S
