data_str_m2_o1_o10_pcu_sym.77
_audit_creation_date              2020-01-03
_audit_creation_method            'Materials Studio'
_symmetry_space_group_name_H-M    'P1'
_symmetry_Int_Tables_number       1
_symmetry_cell_setting            triclinic
loop_
_symmetry_equiv_pos_as_xyz
  x,y,z
_cell_length_a                    26.4787
_cell_length_b                    32.2944
_cell_length_c                    28.6129
_cell_angle_alpha                 89.7195
_cell_angle_beta                  97.5475
_cell_angle_gamma                 91.1458
loop_
_atom_site_label
_atom_site_type_symbol
_atom_site_fract_x
_atom_site_fract_y
_atom_site_fract_z
_atom_site_U_iso_or_equiv
_atom_site_adp_type
_atom_site_occupancy
Br1    Br    0.06330   0.04989   0.11846   0.00000  Uiso   1.00
Br2    Br    0.27004   0.28344   0.21487   0.00000  Uiso   1.00
Br3    Br    0.06360   0.28003   0.11813   0.00000  Uiso   1.00
Br4    Br    0.26974   0.05330   0.21521   0.00000  Uiso   1.00
C5     C     0.16647   0.08749   0.16672   0.00000  Uiso   1.00
C6     C     0.20996   0.02230   0.18790   0.00000  Uiso   1.00
C7     C     0.16685   0.29046   0.16646   0.00000  Uiso   1.00
C8     C     0.16649   0.04287   0.16688   0.00000  Uiso   1.00
C9     C     0.13716   0.13894   0.02154   0.00000  Uiso   1.00
C10    C     0.19618   0.19440   0.31179   0.00000  Uiso   1.00
C11    C     0.13705   0.13879   0.30521   0.00000  Uiso   1.00
C12    C     0.19629   0.19454   0.02812   0.00000  Uiso   1.00
C13    C     0.16686   0.24585   0.16661   0.00000  Uiso   1.00
C14    C     0.06819   0.16636   0.15480   0.00000  Uiso   1.00
C15    C     0.26515   0.16697   0.17853   0.00000  Uiso   1.00
C16    C     0.01327   0.16402   0.14818   0.00000  Uiso   1.00
C17    C     0.32007   0.16931   0.18515   0.00000  Uiso   1.00
C18    C     0.12321   0.02090   0.14563   0.00000  Uiso   1.00
C19    C     0.21012   0.31243   0.18770   0.00000  Uiso   1.00
C20    C     0.12337   0.31103   0.14543   0.00000  Uiso   1.00
Cu21   Cu    0.16667   0.16667   0.21355   0.00000  Uiso   1.00
Cu22   Cu    0.16667   0.16666   0.11978   0.00000  Uiso   1.00
H23    H     0.11355   0.11679   0.03771   0.00000  Uiso   1.00
H24    H     0.26474   0.22159   0.04902   0.00000  Uiso   1.00
H25    H     0.21978   0.21655   0.29562   0.00000  Uiso   1.00
H26    H     0.33272   0.17730   0.07832   0.00000  Uiso   1.00
H27    H     0.00115   0.12618   0.09118   0.00000  Uiso   1.00
H28    H     0.00062   0.15603   0.25501   0.00000  Uiso   1.00
H29    H     0.33218   0.20715   0.24215   0.00000  Uiso   1.00
H30    H     0.11825   0.07956   0.28824   0.00000  Uiso   1.00
H31    H     0.06860   0.11174   0.28431   0.00000  Uiso   1.00
H32    H     0.21508   0.25378   0.04510   0.00000  Uiso   1.00
N33    N     0.16668   0.16668   0.28403   0.00000  Uiso   1.00
N34    N     0.16665   0.16666   0.04931   0.00000  Uiso   1.00
N35    N     0.32174   0.15472   0.10147   0.00000  Uiso   1.00
N36    N     0.01160   0.17861   0.23186   0.00000  Uiso   1.00
N37    N     0.10608   0.10904   0.27719   0.00000  Uiso   1.00
N38    N     0.22725   0.22429   0.05614   0.00000  Uiso   1.00
O39    O     0.16666   0.10655   0.20625   0.00000  Uiso   1.00
O40    O     0.16667   0.22678   0.12709   0.00000  Uiso   1.00
O41    O     0.16666   0.10654   0.12706   0.00000  Uiso   1.00
O42    O     0.16667   0.22679   0.20628   0.00000  Uiso   1.00
O43    O     0.09161   0.16667   0.19712   0.00000  Uiso   1.00
O44    O     0.24172   0.16666   0.13621   0.00000  Uiso   1.00
O45    O     0.09161   0.16666   0.11793   0.00000  Uiso   1.00
O46    O     0.24172   0.16667   0.21540   0.00000  Uiso   1.00
Br47   Br    0.39664   0.04989   0.11846   0.00000  Uiso   1.00
Br48   Br    0.60337   0.28344   0.21487   0.00000  Uiso   1.00
Br49   Br    0.39693   0.28003   0.11813   0.00000  Uiso   1.00
Br50   Br    0.60307   0.05330   0.21521   0.00000  Uiso   1.00
C51    C     0.49980   0.08749   0.16672   0.00000  Uiso   1.00
C52    C     0.54330   0.02230   0.18790   0.00000  Uiso   1.00
C53    C     0.50018   0.29046   0.16646   0.00000  Uiso   1.00
C54    C     0.49982   0.04287   0.16688   0.00000  Uiso   1.00
C55    C     0.47049   0.13894   0.02154   0.00000  Uiso   1.00
C56    C     0.52951   0.19440   0.31179   0.00000  Uiso   1.00
C57    C     0.47038   0.13879   0.30521   0.00000  Uiso   1.00
C58    C     0.52962   0.19454   0.02812   0.00000  Uiso   1.00
C59    C     0.50020   0.24585   0.16661   0.00000  Uiso   1.00
C60    C     0.40152   0.16636   0.15480   0.00000  Uiso   1.00
C61    C     0.59848   0.16697   0.17853   0.00000  Uiso   1.00
C62    C     0.34660   0.16402   0.14818   0.00000  Uiso   1.00
C63    C     0.65340   0.16931   0.18515   0.00000  Uiso   1.00
C64    C     0.45655   0.02090   0.14563   0.00000  Uiso   1.00
C65    C     0.54345   0.31243   0.18770   0.00000  Uiso   1.00
C66    C     0.45671   0.31103   0.14543   0.00000  Uiso   1.00
Cu67   Cu    0.50000   0.16667   0.21355   0.00000  Uiso   1.00
Cu68   Cu    0.50000   0.16666   0.11978   0.00000  Uiso   1.00
H69    H     0.44689   0.11679   0.03771   0.00000  Uiso   1.00
H70    H     0.59807   0.22159   0.04902   0.00000  Uiso   1.00
H71    H     0.55311   0.21655   0.29562   0.00000  Uiso   1.00
H72    H     0.66605   0.17730   0.07832   0.00000  Uiso   1.00
H73    H     0.33448   0.12618   0.09118   0.00000  Uiso   1.00
H74    H     0.33396   0.15603   0.25501   0.00000  Uiso   1.00
H75    H     0.66552   0.20715   0.24215   0.00000  Uiso   1.00
H76    H     0.45159   0.07956   0.28824   0.00000  Uiso   1.00
H77    H     0.40193   0.11174   0.28431   0.00000  Uiso   1.00
H78    H     0.54841   0.25378   0.04510   0.00000  Uiso   1.00
N79    N     0.50001   0.16668   0.28403   0.00000  Uiso   1.00
N80    N     0.49999   0.16666   0.04931   0.00000  Uiso   1.00
N81    N     0.65507   0.15472   0.10147   0.00000  Uiso   1.00
N82    N     0.34493   0.17861   0.23186   0.00000  Uiso   1.00
N83    N     0.43942   0.10904   0.27719   0.00000  Uiso   1.00
N84    N     0.56058   0.22429   0.05614   0.00000  Uiso   1.00
O85    O     0.50000   0.10655   0.20625   0.00000  Uiso   1.00
O86    O     0.50000   0.22678   0.12709   0.00000  Uiso   1.00
O87    O     0.50000   0.10654   0.12706   0.00000  Uiso   1.00
O88    O     0.50000   0.22679   0.20628   0.00000  Uiso   1.00
O89    O     0.42495   0.16667   0.19712   0.00000  Uiso   1.00
O90    O     0.57505   0.16666   0.13621   0.00000  Uiso   1.00
O91    O     0.42494   0.16666   0.11793   0.00000  Uiso   1.00
O92    O     0.57506   0.16667   0.21540   0.00000  Uiso   1.00
Br93   Br    0.72997   0.04989   0.11846   0.00000  Uiso   1.00
Br94   Br    0.93670   0.28344   0.21487   0.00000  Uiso   1.00
Br95   Br    0.73026   0.28003   0.11813   0.00000  Uiso   1.00
Br96   Br    0.93640   0.05330   0.21521   0.00000  Uiso   1.00
C97    C     0.83314   0.08749   0.16672   0.00000  Uiso   1.00
C98    C     0.87663   0.02230   0.18790   0.00000  Uiso   1.00
C99    C     0.83351   0.29046   0.16646   0.00000  Uiso   1.00
C100   C     0.83316   0.04287   0.16688   0.00000  Uiso   1.00
C101   C     0.80382   0.13894   0.02154   0.00000  Uiso   1.00
C102   C     0.86284   0.19440   0.31179   0.00000  Uiso   1.00
C103   C     0.80372   0.13879   0.30521   0.00000  Uiso   1.00
C104   C     0.86295   0.19454   0.02812   0.00000  Uiso   1.00
C105   C     0.83353   0.24585   0.16661   0.00000  Uiso   1.00
C106   C     0.73485   0.16636   0.15480   0.00000  Uiso   1.00
C107   C     0.93181   0.16697   0.17853   0.00000  Uiso   1.00
C108   C     0.67993   0.16402   0.14818   0.00000  Uiso   1.00
C109   C     0.98674   0.16931   0.18515   0.00000  Uiso   1.00
C110   C     0.78988   0.02090   0.14563   0.00000  Uiso   1.00
C111   C     0.87679   0.31243   0.18770   0.00000  Uiso   1.00
C112   C     0.79004   0.31103   0.14543   0.00000  Uiso   1.00
Cu113  Cu    0.83333   0.16667   0.21355   0.00000  Uiso   1.00
Cu114  Cu    0.83333   0.16666   0.11978   0.00000  Uiso   1.00
H115   H     0.78022   0.11679   0.03771   0.00000  Uiso   1.00
H116   H     0.93140   0.22159   0.04902   0.00000  Uiso   1.00
H117   H     0.88645   0.21655   0.29562   0.00000  Uiso   1.00
H118   H     0.99938   0.17730   0.07832   0.00000  Uiso   1.00
H119   H     0.66781   0.12618   0.09118   0.00000  Uiso   1.00
H120   H     0.66729   0.15603   0.25501   0.00000  Uiso   1.00
H121   H     0.99885   0.20715   0.24215   0.00000  Uiso   1.00
H122   H     0.78492   0.07956   0.28824   0.00000  Uiso   1.00
H123   H     0.73526   0.11174   0.28431   0.00000  Uiso   1.00
H124   H     0.88174   0.25378   0.04510   0.00000  Uiso   1.00
N125   N     0.83335   0.16668   0.28403   0.00000  Uiso   1.00
N126   N     0.83332   0.16666   0.04931   0.00000  Uiso   1.00
N127   N     0.98840   0.15472   0.10147   0.00000  Uiso   1.00
N128   N     0.67826   0.17861   0.23186   0.00000  Uiso   1.00
N129   N     0.77275   0.10904   0.27719   0.00000  Uiso   1.00
N130   N     0.89392   0.22429   0.05614   0.00000  Uiso   1.00
O131   O     0.83333   0.10655   0.20625   0.00000  Uiso   1.00
O132   O     0.83334   0.22678   0.12709   0.00000  Uiso   1.00
O133   O     0.83333   0.10654   0.12706   0.00000  Uiso   1.00
O134   O     0.83334   0.22679   0.20628   0.00000  Uiso   1.00
O135   O     0.75828   0.16667   0.19712   0.00000  Uiso   1.00
O136   O     0.90839   0.16666   0.13621   0.00000  Uiso   1.00
O137   O     0.75828   0.16666   0.11793   0.00000  Uiso   1.00
O138   O     0.90839   0.16667   0.21540   0.00000  Uiso   1.00
Br139  Br    0.06330   0.38322   0.11846   0.00000  Uiso   1.00
Br140  Br    0.27004   0.61678   0.21487   0.00000  Uiso   1.00
Br141  Br    0.06360   0.61337   0.11813   0.00000  Uiso   1.00
Br142  Br    0.26974   0.38663   0.21521   0.00000  Uiso   1.00
C143   C     0.16647   0.42082   0.16672   0.00000  Uiso   1.00
C144   C     0.20996   0.35564   0.18790   0.00000  Uiso   1.00
C145   C     0.16685   0.62379   0.16646   0.00000  Uiso   1.00
C146   C     0.16649   0.37621   0.16688   0.00000  Uiso   1.00
C147   C     0.13716   0.47227   0.02154   0.00000  Uiso   1.00
C148   C     0.19618   0.52773   0.31179   0.00000  Uiso   1.00
C149   C     0.13705   0.47212   0.30521   0.00000  Uiso   1.00
C150   C     0.19629   0.52788   0.02812   0.00000  Uiso   1.00
C151   C     0.16686   0.57918   0.16661   0.00000  Uiso   1.00
C152   C     0.06819   0.49970   0.15480   0.00000  Uiso   1.00
C153   C     0.26515   0.50030   0.17853   0.00000  Uiso   1.00
C154   C     0.01327   0.49736   0.14818   0.00000  Uiso   1.00
C155   C     0.32007   0.50265   0.18515   0.00000  Uiso   1.00
C156   C     0.12321   0.35423   0.14563   0.00000  Uiso   1.00
C157   C     0.21012   0.64577   0.18770   0.00000  Uiso   1.00
C158   C     0.12337   0.64436   0.14543   0.00000  Uiso   1.00
Cu159  Cu    0.16667   0.50001   0.21355   0.00000  Uiso   1.00
Cu160  Cu    0.16667   0.49999   0.11978   0.00000  Uiso   1.00
H161   H     0.11355   0.45012   0.03771   0.00000  Uiso   1.00
H162   H     0.26474   0.55493   0.04902   0.00000  Uiso   1.00
H163   H     0.21978   0.54988   0.29562   0.00000  Uiso   1.00
H164   H     0.33272   0.51064   0.07832   0.00000  Uiso   1.00
H165   H     0.00115   0.45951   0.09118   0.00000  Uiso   1.00
H166   H     0.00062   0.48936   0.25501   0.00000  Uiso   1.00
H167   H     0.33218   0.54049   0.24215   0.00000  Uiso   1.00
H168   H     0.11825   0.41289   0.28824   0.00000  Uiso   1.00
H169   H     0.06860   0.44508   0.28431   0.00000  Uiso   1.00
H170   H     0.21508   0.58711   0.04510   0.00000  Uiso   1.00
N171   N     0.16668   0.50001   0.28403   0.00000  Uiso   1.00
N172   N     0.16665   0.49999   0.04931   0.00000  Uiso   1.00
N173   N     0.32174   0.48806   0.10147   0.00000  Uiso   1.00
N174   N     0.01160   0.51195   0.23186   0.00000  Uiso   1.00
N175   N     0.10608   0.44237   0.27719   0.00000  Uiso   1.00
N176   N     0.22725   0.55763   0.05614   0.00000  Uiso   1.00
O177   O     0.16666   0.43989   0.20625   0.00000  Uiso   1.00
O178   O     0.16667   0.56011   0.12709   0.00000  Uiso   1.00
O179   O     0.16666   0.43988   0.12706   0.00000  Uiso   1.00
O180   O     0.16667   0.56012   0.20628   0.00000  Uiso   1.00
O181   O     0.09161   0.50000   0.19712   0.00000  Uiso   1.00
O182   O     0.24172   0.50000   0.13621   0.00000  Uiso   1.00
O183   O     0.09161   0.49999   0.11793   0.00000  Uiso   1.00
O184   O     0.24172   0.50001   0.21540   0.00000  Uiso   1.00
Br185  Br    0.39664   0.38322   0.11846   0.00000  Uiso   1.00
Br186  Br    0.60337   0.61678   0.21487   0.00000  Uiso   1.00
Br187  Br    0.39693   0.61337   0.11813   0.00000  Uiso   1.00
Br188  Br    0.60307   0.38663   0.21521   0.00000  Uiso   1.00
C189   C     0.49980   0.42082   0.16672   0.00000  Uiso   1.00
C190   C     0.54330   0.35564   0.18790   0.00000  Uiso   1.00
C191   C     0.50018   0.62379   0.16646   0.00000  Uiso   1.00
C192   C     0.49982   0.37621   0.16688   0.00000  Uiso   1.00
C193   C     0.47049   0.47227   0.02154   0.00000  Uiso   1.00
C194   C     0.52951   0.52773   0.31179   0.00000  Uiso   1.00
C195   C     0.47038   0.47212   0.30521   0.00000  Uiso   1.00
C196   C     0.52962   0.52788   0.02812   0.00000  Uiso   1.00
C197   C     0.50020   0.57918   0.16661   0.00000  Uiso   1.00
C198   C     0.40152   0.49970   0.15480   0.00000  Uiso   1.00
C199   C     0.59848   0.50030   0.17853   0.00000  Uiso   1.00
C200   C     0.34660   0.49736   0.14818   0.00000  Uiso   1.00
C201   C     0.65340   0.50265   0.18515   0.00000  Uiso   1.00
C202   C     0.45655   0.35423   0.14563   0.00000  Uiso   1.00
C203   C     0.54345   0.64577   0.18770   0.00000  Uiso   1.00
C204   C     0.45671   0.64436   0.14543   0.00000  Uiso   1.00
Cu205  Cu    0.50000   0.50001   0.21355   0.00000  Uiso   1.00
Cu206  Cu    0.50000   0.49999   0.11978   0.00000  Uiso   1.00
H207   H     0.44689   0.45012   0.03771   0.00000  Uiso   1.00
H208   H     0.59807   0.55493   0.04902   0.00000  Uiso   1.00
H209   H     0.55311   0.54988   0.29562   0.00000  Uiso   1.00
H210   H     0.66605   0.51064   0.07832   0.00000  Uiso   1.00
H211   H     0.33448   0.45951   0.09118   0.00000  Uiso   1.00
H212   H     0.33396   0.48936   0.25501   0.00000  Uiso   1.00
H213   H     0.66552   0.54049   0.24215   0.00000  Uiso   1.00
H214   H     0.45159   0.41289   0.28824   0.00000  Uiso   1.00
H215   H     0.40193   0.44508   0.28431   0.00000  Uiso   1.00
H216   H     0.54841   0.58711   0.04510   0.00000  Uiso   1.00
N217   N     0.50001   0.50001   0.28403   0.00000  Uiso   1.00
N218   N     0.49999   0.49999   0.04931   0.00000  Uiso   1.00
N219   N     0.65507   0.48806   0.10147   0.00000  Uiso   1.00
N220   N     0.34493   0.51195   0.23186   0.00000  Uiso   1.00
N221   N     0.43942   0.44237   0.27719   0.00000  Uiso   1.00
N222   N     0.56058   0.55763   0.05614   0.00000  Uiso   1.00
O223   O     0.50000   0.43989   0.20625   0.00000  Uiso   1.00
O224   O     0.50000   0.56011   0.12709   0.00000  Uiso   1.00
O225   O     0.50000   0.43988   0.12706   0.00000  Uiso   1.00
O226   O     0.50000   0.56012   0.20628   0.00000  Uiso   1.00
O227   O     0.42495   0.50000   0.19712   0.00000  Uiso   1.00
O228   O     0.57505   0.50000   0.13621   0.00000  Uiso   1.00
O229   O     0.42494   0.49999   0.11793   0.00000  Uiso   1.00
O230   O     0.57506   0.50001   0.21540   0.00000  Uiso   1.00
Br231  Br    0.72997   0.38322   0.11846   0.00000  Uiso   1.00
Br232  Br    0.93670   0.61678   0.21487   0.00000  Uiso   1.00
Br233  Br    0.73026   0.61337   0.11813   0.00000  Uiso   1.00
Br234  Br    0.93640   0.38663   0.21521   0.00000  Uiso   1.00
C235   C     0.83314   0.42082   0.16672   0.00000  Uiso   1.00
C236   C     0.87663   0.35564   0.18790   0.00000  Uiso   1.00
C237   C     0.83351   0.62379   0.16646   0.00000  Uiso   1.00
C238   C     0.83316   0.37621   0.16688   0.00000  Uiso   1.00
C239   C     0.80382   0.47227   0.02154   0.00000  Uiso   1.00
C240   C     0.86284   0.52773   0.31179   0.00000  Uiso   1.00
C241   C     0.80372   0.47212   0.30521   0.00000  Uiso   1.00
C242   C     0.86295   0.52788   0.02812   0.00000  Uiso   1.00
C243   C     0.83353   0.57918   0.16661   0.00000  Uiso   1.00
C244   C     0.73485   0.49970   0.15480   0.00000  Uiso   1.00
C245   C     0.93181   0.50030   0.17853   0.00000  Uiso   1.00
C246   C     0.67993   0.49736   0.14818   0.00000  Uiso   1.00
C247   C     0.98674   0.50265   0.18515   0.00000  Uiso   1.00
C248   C     0.78988   0.35423   0.14563   0.00000  Uiso   1.00
C249   C     0.87679   0.64577   0.18770   0.00000  Uiso   1.00
C250   C     0.79004   0.64436   0.14543   0.00000  Uiso   1.00
Cu251  Cu    0.83333   0.50001   0.21355   0.00000  Uiso   1.00
Cu252  Cu    0.83333   0.49999   0.11978   0.00000  Uiso   1.00
H253   H     0.78022   0.45012   0.03771   0.00000  Uiso   1.00
H254   H     0.93140   0.55493   0.04902   0.00000  Uiso   1.00
H255   H     0.88645   0.54988   0.29562   0.00000  Uiso   1.00
H256   H     0.99938   0.51064   0.07832   0.00000  Uiso   1.00
H257   H     0.66781   0.45951   0.09118   0.00000  Uiso   1.00
H258   H     0.66729   0.48936   0.25501   0.00000  Uiso   1.00
H259   H     0.99885   0.54049   0.24215   0.00000  Uiso   1.00
H260   H     0.78492   0.41289   0.28824   0.00000  Uiso   1.00
H261   H     0.73526   0.44508   0.28431   0.00000  Uiso   1.00
H262   H     0.88174   0.58711   0.04510   0.00000  Uiso   1.00
N263   N     0.83335   0.50001   0.28403   0.00000  Uiso   1.00
N264   N     0.83332   0.49999   0.04931   0.00000  Uiso   1.00
N265   N     0.98840   0.48806   0.10147   0.00000  Uiso   1.00
N266   N     0.67826   0.51195   0.23186   0.00000  Uiso   1.00
N267   N     0.77275   0.44237   0.27719   0.00000  Uiso   1.00
N268   N     0.89392   0.55763   0.05614   0.00000  Uiso   1.00
O269   O     0.83333   0.43989   0.20625   0.00000  Uiso   1.00
O270   O     0.83334   0.56011   0.12709   0.00000  Uiso   1.00
O271   O     0.83333   0.43988   0.12706   0.00000  Uiso   1.00
O272   O     0.83334   0.56012   0.20628   0.00000  Uiso   1.00
O273   O     0.75828   0.50000   0.19712   0.00000  Uiso   1.00
O274   O     0.90839   0.50000   0.13621   0.00000  Uiso   1.00
O275   O     0.75828   0.49999   0.11793   0.00000  Uiso   1.00
O276   O     0.90839   0.50001   0.21540   0.00000  Uiso   1.00
Br277  Br    0.06330   0.71656   0.11846   0.00000  Uiso   1.00
Br278  Br    0.27004   0.95011   0.21487   0.00000  Uiso   1.00
Br279  Br    0.06360   0.94670   0.11813   0.00000  Uiso   1.00
Br280  Br    0.26974   0.71997   0.21521   0.00000  Uiso   1.00
C281   C     0.16647   0.75415   0.16672   0.00000  Uiso   1.00
C282   C     0.20996   0.68897   0.18790   0.00000  Uiso   1.00
C283   C     0.16685   0.95713   0.16646   0.00000  Uiso   1.00
C284   C     0.16649   0.70954   0.16688   0.00000  Uiso   1.00
C285   C     0.13716   0.80560   0.02154   0.00000  Uiso   1.00
C286   C     0.19618   0.86106   0.31179   0.00000  Uiso   1.00
C287   C     0.13705   0.80546   0.30521   0.00000  Uiso   1.00
C288   C     0.19629   0.86121   0.02812   0.00000  Uiso   1.00
C289   C     0.16686   0.91251   0.16661   0.00000  Uiso   1.00
C290   C     0.06819   0.83303   0.15480   0.00000  Uiso   1.00
C291   C     0.26515   0.83364   0.17853   0.00000  Uiso   1.00
C292   C     0.01327   0.83069   0.14818   0.00000  Uiso   1.00
C293   C     0.32007   0.83598   0.18515   0.00000  Uiso   1.00
C294   C     0.12321   0.68757   0.14563   0.00000  Uiso   1.00
C295   C     0.21012   0.97910   0.18770   0.00000  Uiso   1.00
C296   C     0.12337   0.97770   0.14543   0.00000  Uiso   1.00
Cu297  Cu    0.16667   0.83334   0.21355   0.00000  Uiso   1.00
Cu298  Cu    0.16667   0.83333   0.11978   0.00000  Uiso   1.00
H299   H     0.11355   0.78345   0.03771   0.00000  Uiso   1.00
H300   H     0.26474   0.88826   0.04902   0.00000  Uiso   1.00
H301   H     0.21978   0.88321   0.29562   0.00000  Uiso   1.00
H302   H     0.33272   0.84397   0.07832   0.00000  Uiso   1.00
H303   H     0.00115   0.79285   0.09118   0.00000  Uiso   1.00
H304   H     0.00062   0.82270   0.25501   0.00000  Uiso   1.00
H305   H     0.33218   0.87382   0.24215   0.00000  Uiso   1.00
H306   H     0.11825   0.74622   0.28824   0.00000  Uiso   1.00
H307   H     0.06860   0.77841   0.28431   0.00000  Uiso   1.00
H308   H     0.21508   0.92045   0.04510   0.00000  Uiso   1.00
N309   N     0.16668   0.83334   0.28403   0.00000  Uiso   1.00
N310   N     0.16665   0.83332   0.04931   0.00000  Uiso   1.00
N311   N     0.32174   0.82139   0.10147   0.00000  Uiso   1.00
N312   N     0.01160   0.84528   0.23186   0.00000  Uiso   1.00
N313   N     0.10608   0.77571   0.27719   0.00000  Uiso   1.00
N314   N     0.22725   0.89096   0.05614   0.00000  Uiso   1.00
O315   O     0.16666   0.77322   0.20625   0.00000  Uiso   1.00
O316   O     0.16667   0.89345   0.12709   0.00000  Uiso   1.00
O317   O     0.16666   0.77321   0.12706   0.00000  Uiso   1.00
O318   O     0.16667   0.89346   0.20628   0.00000  Uiso   1.00
O319   O     0.09161   0.83334   0.19712   0.00000  Uiso   1.00
O320   O     0.24172   0.83333   0.13621   0.00000  Uiso   1.00
O321   O     0.09161   0.83333   0.11793   0.00000  Uiso   1.00
O322   O     0.24172   0.83334   0.21540   0.00000  Uiso   1.00
Br323  Br    0.39664   0.71656   0.11846   0.00000  Uiso   1.00
Br324  Br    0.60337   0.95011   0.21487   0.00000  Uiso   1.00
Br325  Br    0.39693   0.94670   0.11813   0.00000  Uiso   1.00
Br326  Br    0.60307   0.71997   0.21521   0.00000  Uiso   1.00
C327   C     0.49980   0.75415   0.16672   0.00000  Uiso   1.00
C328   C     0.54330   0.68897   0.18790   0.00000  Uiso   1.00
C329   C     0.50018   0.95713   0.16646   0.00000  Uiso   1.00
C330   C     0.49982   0.70954   0.16688   0.00000  Uiso   1.00
C331   C     0.47049   0.80560   0.02154   0.00000  Uiso   1.00
C332   C     0.52951   0.86106   0.31179   0.00000  Uiso   1.00
C333   C     0.47038   0.80546   0.30521   0.00000  Uiso   1.00
C334   C     0.52962   0.86121   0.02812   0.00000  Uiso   1.00
C335   C     0.50020   0.91251   0.16661   0.00000  Uiso   1.00
C336   C     0.40152   0.83303   0.15480   0.00000  Uiso   1.00
C337   C     0.59848   0.83364   0.17853   0.00000  Uiso   1.00
C338   C     0.34660   0.83069   0.14818   0.00000  Uiso   1.00
C339   C     0.65340   0.83598   0.18515   0.00000  Uiso   1.00
C340   C     0.45655   0.68757   0.14563   0.00000  Uiso   1.00
C341   C     0.54345   0.97910   0.18770   0.00000  Uiso   1.00
C342   C     0.45671   0.97770   0.14543   0.00000  Uiso   1.00
Cu343  Cu    0.50000   0.83334   0.21355   0.00000  Uiso   1.00
Cu344  Cu    0.50000   0.83333   0.11978   0.00000  Uiso   1.00
H345   H     0.44689   0.78345   0.03771   0.00000  Uiso   1.00
H346   H     0.59807   0.88826   0.04902   0.00000  Uiso   1.00
H347   H     0.55311   0.88321   0.29562   0.00000  Uiso   1.00
H348   H     0.66605   0.84397   0.07832   0.00000  Uiso   1.00
H349   H     0.33448   0.79285   0.09118   0.00000  Uiso   1.00
H350   H     0.33396   0.82270   0.25501   0.00000  Uiso   1.00
H351   H     0.66552   0.87382   0.24215   0.00000  Uiso   1.00
H352   H     0.45159   0.74622   0.28824   0.00000  Uiso   1.00
H353   H     0.40193   0.77841   0.28431   0.00000  Uiso   1.00
H354   H     0.54841   0.92045   0.04510   0.00000  Uiso   1.00
N355   N     0.50001   0.83334   0.28403   0.00000  Uiso   1.00
N356   N     0.49999   0.83332   0.04931   0.00000  Uiso   1.00
N357   N     0.65507   0.82139   0.10147   0.00000  Uiso   1.00
N358   N     0.34493   0.84528   0.23186   0.00000  Uiso   1.00
N359   N     0.43942   0.77571   0.27719   0.00000  Uiso   1.00
N360   N     0.56058   0.89096   0.05614   0.00000  Uiso   1.00
O361   O     0.50000   0.77322   0.20625   0.00000  Uiso   1.00
O362   O     0.50000   0.89345   0.12709   0.00000  Uiso   1.00
O363   O     0.50000   0.77321   0.12706   0.00000  Uiso   1.00
O364   O     0.50000   0.89346   0.20628   0.00000  Uiso   1.00
O365   O     0.42495   0.83334   0.19712   0.00000  Uiso   1.00
O366   O     0.57505   0.83333   0.13621   0.00000  Uiso   1.00
O367   O     0.42494   0.83333   0.11793   0.00000  Uiso   1.00
O368   O     0.57506   0.83334   0.21540   0.00000  Uiso   1.00
Br369  Br    0.72997   0.71656   0.11846   0.00000  Uiso   1.00
Br370  Br    0.93670   0.95011   0.21487   0.00000  Uiso   1.00
Br371  Br    0.73026   0.94670   0.11813   0.00000  Uiso   1.00
Br372  Br    0.93640   0.71997   0.21521   0.00000  Uiso   1.00
C373   C     0.83314   0.75415   0.16672   0.00000  Uiso   1.00
C374   C     0.87663   0.68897   0.18790   0.00000  Uiso   1.00
C375   C     0.83351   0.95713   0.16646   0.00000  Uiso   1.00
C376   C     0.83316   0.70954   0.16688   0.00000  Uiso   1.00
C377   C     0.80382   0.80560   0.02154   0.00000  Uiso   1.00
C378   C     0.86284   0.86106   0.31179   0.00000  Uiso   1.00
C379   C     0.80372   0.80546   0.30521   0.00000  Uiso   1.00
C380   C     0.86295   0.86121   0.02812   0.00000  Uiso   1.00
C381   C     0.83353   0.91251   0.16661   0.00000  Uiso   1.00
C382   C     0.73485   0.83303   0.15480   0.00000  Uiso   1.00
C383   C     0.93181   0.83364   0.17853   0.00000  Uiso   1.00
C384   C     0.67993   0.83069   0.14818   0.00000  Uiso   1.00
C385   C     0.98674   0.83598   0.18515   0.00000  Uiso   1.00
C386   C     0.78988   0.68757   0.14563   0.00000  Uiso   1.00
C387   C     0.87679   0.97910   0.18770   0.00000  Uiso   1.00
C388   C     0.79004   0.97770   0.14543   0.00000  Uiso   1.00
Cu389  Cu    0.83333   0.83334   0.21355   0.00000  Uiso   1.00
Cu390  Cu    0.83333   0.83333   0.11978   0.00000  Uiso   1.00
H391   H     0.78022   0.78345   0.03771   0.00000  Uiso   1.00
H392   H     0.93140   0.88826   0.04902   0.00000  Uiso   1.00
H393   H     0.88645   0.88321   0.29562   0.00000  Uiso   1.00
H394   H     0.99938   0.84397   0.07832   0.00000  Uiso   1.00
H395   H     0.66781   0.79285   0.09118   0.00000  Uiso   1.00
H396   H     0.66729   0.82270   0.25501   0.00000  Uiso   1.00
H397   H     0.99885   0.87382   0.24215   0.00000  Uiso   1.00
H398   H     0.78492   0.74622   0.28824   0.00000  Uiso   1.00
H399   H     0.73526   0.77841   0.28431   0.00000  Uiso   1.00
H400   H     0.88174   0.92045   0.04510   0.00000  Uiso   1.00
N401   N     0.83335   0.83334   0.28403   0.00000  Uiso   1.00
N402   N     0.83332   0.83332   0.04931   0.00000  Uiso   1.00
N403   N     0.98840   0.82139   0.10147   0.00000  Uiso   1.00
N404   N     0.67826   0.84528   0.23186   0.00000  Uiso   1.00
N405   N     0.77275   0.77571   0.27719   0.00000  Uiso   1.00
N406   N     0.89392   0.89096   0.05614   0.00000  Uiso   1.00
O407   O     0.83333   0.77322   0.20625   0.00000  Uiso   1.00
O408   O     0.83334   0.89345   0.12709   0.00000  Uiso   1.00
O409   O     0.83333   0.77321   0.12706   0.00000  Uiso   1.00
O410   O     0.83334   0.89346   0.20628   0.00000  Uiso   1.00
O411   O     0.75828   0.83334   0.19712   0.00000  Uiso   1.00
O412   O     0.90839   0.83333   0.13621   0.00000  Uiso   1.00
O413   O     0.75828   0.83333   0.11793   0.00000  Uiso   1.00
O414   O     0.90839   0.83334   0.21540   0.00000  Uiso   1.00
Br415  Br    0.06330   0.04989   0.45180   0.00000  Uiso   1.00
Br416  Br    0.27004   0.28344   0.54820   0.00000  Uiso   1.00
Br417  Br    0.06360   0.28003   0.45146   0.00000  Uiso   1.00
Br418  Br    0.26974   0.05330   0.54854   0.00000  Uiso   1.00
C419   C     0.16647   0.08749   0.50005   0.00000  Uiso   1.00
C420   C     0.20996   0.02230   0.52123   0.00000  Uiso   1.00
C421   C     0.16685   0.29046   0.49979   0.00000  Uiso   1.00
C422   C     0.16649   0.04287   0.50021   0.00000  Uiso   1.00
C423   C     0.13716   0.13894   0.35488   0.00000  Uiso   1.00
C424   C     0.19618   0.19440   0.64512   0.00000  Uiso   1.00
C425   C     0.13705   0.13879   0.63855   0.00000  Uiso   1.00
C426   C     0.19629   0.19454   0.36145   0.00000  Uiso   1.00
C427   C     0.16686   0.24585   0.49995   0.00000  Uiso   1.00
C428   C     0.06819   0.16636   0.48814   0.00000  Uiso   1.00
C429   C     0.26515   0.16697   0.51186   0.00000  Uiso   1.00
C430   C     0.01327   0.16402   0.48151   0.00000  Uiso   1.00
C431   C     0.32007   0.16931   0.51849   0.00000  Uiso   1.00
C432   C     0.12321   0.02090   0.47897   0.00000  Uiso   1.00
C433   C     0.21012   0.31243   0.52103   0.00000  Uiso   1.00
C434   C     0.12337   0.31103   0.47876   0.00000  Uiso   1.00
Cu435  Cu    0.16667   0.16667   0.54689   0.00000  Uiso   1.00
Cu436  Cu    0.16667   0.16666   0.45311   0.00000  Uiso   1.00
H437   H     0.11355   0.11679   0.37104   0.00000  Uiso   1.00
H438   H     0.26474   0.22159   0.38235   0.00000  Uiso   1.00
H439   H     0.21978   0.21655   0.62896   0.00000  Uiso   1.00
H440   H     0.33272   0.17730   0.41165   0.00000  Uiso   1.00
H441   H     0.00115   0.12618   0.42452   0.00000  Uiso   1.00
H442   H     0.00062   0.15603   0.58835   0.00000  Uiso   1.00
H443   H     0.33218   0.20715   0.57548   0.00000  Uiso   1.00
H444   H     0.11825   0.07956   0.62157   0.00000  Uiso   1.00
H445   H     0.06860   0.11174   0.61764   0.00000  Uiso   1.00
H446   H     0.21508   0.25378   0.37843   0.00000  Uiso   1.00
N447   N     0.16668   0.16668   0.61736   0.00000  Uiso   1.00
N448   N     0.16665   0.16666   0.38264   0.00000  Uiso   1.00
N449   N     0.32174   0.15472   0.43480   0.00000  Uiso   1.00
N450   N     0.01160   0.17861   0.56520   0.00000  Uiso   1.00
N451   N     0.10608   0.10904   0.61052   0.00000  Uiso   1.00
N452   N     0.22725   0.22429   0.38948   0.00000  Uiso   1.00
O453   O     0.16666   0.10655   0.53958   0.00000  Uiso   1.00
O454   O     0.16667   0.22678   0.46042   0.00000  Uiso   1.00
O455   O     0.16666   0.10654   0.46039   0.00000  Uiso   1.00
O456   O     0.16667   0.22679   0.53961   0.00000  Uiso   1.00
O457   O     0.09161   0.16667   0.53046   0.00000  Uiso   1.00
O458   O     0.24172   0.16666   0.46954   0.00000  Uiso   1.00
O459   O     0.09161   0.16666   0.45127   0.00000  Uiso   1.00
O460   O     0.24172   0.16667   0.54873   0.00000  Uiso   1.00
Br461  Br    0.39664   0.04989   0.45180   0.00000  Uiso   1.00
Br462  Br    0.60337   0.28344   0.54820   0.00000  Uiso   1.00
Br463  Br    0.39693   0.28003   0.45146   0.00000  Uiso   1.00
Br464  Br    0.60307   0.05330   0.54854   0.00000  Uiso   1.00
C465   C     0.49980   0.08749   0.50005   0.00000  Uiso   1.00
C466   C     0.54330   0.02230   0.52123   0.00000  Uiso   1.00
C467   C     0.50018   0.29046   0.49979   0.00000  Uiso   1.00
C468   C     0.49982   0.04287   0.50021   0.00000  Uiso   1.00
C469   C     0.47049   0.13894   0.35488   0.00000  Uiso   1.00
C470   C     0.52951   0.19440   0.64512   0.00000  Uiso   1.00
C471   C     0.47038   0.13879   0.63855   0.00000  Uiso   1.00
C472   C     0.52962   0.19454   0.36145   0.00000  Uiso   1.00
C473   C     0.50020   0.24585   0.49995   0.00000  Uiso   1.00
C474   C     0.40152   0.16636   0.48814   0.00000  Uiso   1.00
C475   C     0.59848   0.16697   0.51186   0.00000  Uiso   1.00
C476   C     0.34660   0.16402   0.48151   0.00000  Uiso   1.00
C477   C     0.65340   0.16931   0.51849   0.00000  Uiso   1.00
C478   C     0.45655   0.02090   0.47897   0.00000  Uiso   1.00
C479   C     0.54345   0.31243   0.52103   0.00000  Uiso   1.00
C480   C     0.45671   0.31103   0.47876   0.00000  Uiso   1.00
Cu481  Cu    0.50000   0.16667   0.54689   0.00000  Uiso   1.00
Cu482  Cu    0.50000   0.16666   0.45311   0.00000  Uiso   1.00
H483   H     0.44689   0.11679   0.37104   0.00000  Uiso   1.00
H484   H     0.59807   0.22159   0.38235   0.00000  Uiso   1.00
H485   H     0.55311   0.21655   0.62896   0.00000  Uiso   1.00
H486   H     0.66605   0.17730   0.41165   0.00000  Uiso   1.00
H487   H     0.33448   0.12618   0.42452   0.00000  Uiso   1.00
H488   H     0.33396   0.15603   0.58835   0.00000  Uiso   1.00
H489   H     0.66552   0.20715   0.57548   0.00000  Uiso   1.00
H490   H     0.45159   0.07956   0.62157   0.00000  Uiso   1.00
H491   H     0.40193   0.11174   0.61764   0.00000  Uiso   1.00
H492   H     0.54841   0.25378   0.37843   0.00000  Uiso   1.00
N493   N     0.50001   0.16668   0.61736   0.00000  Uiso   1.00
N494   N     0.49999   0.16666   0.38264   0.00000  Uiso   1.00
N495   N     0.65507   0.15472   0.43480   0.00000  Uiso   1.00
N496   N     0.34493   0.17861   0.56520   0.00000  Uiso   1.00
N497   N     0.43942   0.10904   0.61052   0.00000  Uiso   1.00
N498   N     0.56058   0.22429   0.38948   0.00000  Uiso   1.00
O499   O     0.50000   0.10655   0.53958   0.00000  Uiso   1.00
O500   O     0.50000   0.22678   0.46042   0.00000  Uiso   1.00
O501   O     0.50000   0.10654   0.46039   0.00000  Uiso   1.00
O502   O     0.50000   0.22679   0.53961   0.00000  Uiso   1.00
O503   O     0.42495   0.16667   0.53046   0.00000  Uiso   1.00
O504   O     0.57505   0.16666   0.46954   0.00000  Uiso   1.00
O505   O     0.42494   0.16666   0.45127   0.00000  Uiso   1.00
O506   O     0.57506   0.16667   0.54873   0.00000  Uiso   1.00
Br507  Br    0.72997   0.04989   0.45180   0.00000  Uiso   1.00
Br508  Br    0.93670   0.28344   0.54820   0.00000  Uiso   1.00
Br509  Br    0.73026   0.28003   0.45146   0.00000  Uiso   1.00
Br510  Br    0.93640   0.05330   0.54854   0.00000  Uiso   1.00
C511   C     0.83314   0.08749   0.50005   0.00000  Uiso   1.00
C512   C     0.87663   0.02230   0.52123   0.00000  Uiso   1.00
C513   C     0.83351   0.29046   0.49979   0.00000  Uiso   1.00
C514   C     0.83316   0.04287   0.50021   0.00000  Uiso   1.00
C515   C     0.80382   0.13894   0.35488   0.00000  Uiso   1.00
C516   C     0.86284   0.19440   0.64512   0.00000  Uiso   1.00
C517   C     0.80372   0.13879   0.63855   0.00000  Uiso   1.00
C518   C     0.86295   0.19454   0.36145   0.00000  Uiso   1.00
C519   C     0.83353   0.24585   0.49995   0.00000  Uiso   1.00
C520   C     0.73485   0.16636   0.48814   0.00000  Uiso   1.00
C521   C     0.93181   0.16697   0.51186   0.00000  Uiso   1.00
C522   C     0.67993   0.16402   0.48151   0.00000  Uiso   1.00
C523   C     0.98674   0.16931   0.51849   0.00000  Uiso   1.00
C524   C     0.78988   0.02090   0.47897   0.00000  Uiso   1.00
C525   C     0.87679   0.31243   0.52103   0.00000  Uiso   1.00
C526   C     0.79004   0.31103   0.47876   0.00000  Uiso   1.00
Cu527  Cu    0.83333   0.16667   0.54689   0.00000  Uiso   1.00
Cu528  Cu    0.83333   0.16666   0.45311   0.00000  Uiso   1.00
H529   H     0.78022   0.11679   0.37104   0.00000  Uiso   1.00
H530   H     0.93140   0.22159   0.38235   0.00000  Uiso   1.00
H531   H     0.88645   0.21655   0.62896   0.00000  Uiso   1.00
H532   H     0.99938   0.17730   0.41165   0.00000  Uiso   1.00
H533   H     0.66781   0.12618   0.42452   0.00000  Uiso   1.00
H534   H     0.66729   0.15603   0.58835   0.00000  Uiso   1.00
H535   H     0.99885   0.20715   0.57548   0.00000  Uiso   1.00
H536   H     0.78492   0.07956   0.62157   0.00000  Uiso   1.00
H537   H     0.73526   0.11174   0.61764   0.00000  Uiso   1.00
H538   H     0.88174   0.25378   0.37843   0.00000  Uiso   1.00
N539   N     0.83335   0.16668   0.61736   0.00000  Uiso   1.00
N540   N     0.83332   0.16666   0.38264   0.00000  Uiso   1.00
N541   N     0.98840   0.15472   0.43480   0.00000  Uiso   1.00
N542   N     0.67826   0.17861   0.56520   0.00000  Uiso   1.00
N543   N     0.77275   0.10904   0.61052   0.00000  Uiso   1.00
N544   N     0.89392   0.22429   0.38948   0.00000  Uiso   1.00
O545   O     0.83333   0.10655   0.53958   0.00000  Uiso   1.00
O546   O     0.83334   0.22678   0.46042   0.00000  Uiso   1.00
O547   O     0.83333   0.10654   0.46039   0.00000  Uiso   1.00
O548   O     0.83334   0.22679   0.53961   0.00000  Uiso   1.00
O549   O     0.75828   0.16667   0.53046   0.00000  Uiso   1.00
O550   O     0.90839   0.16666   0.46954   0.00000  Uiso   1.00
O551   O     0.75828   0.16666   0.45127   0.00000  Uiso   1.00
O552   O     0.90839   0.16667   0.54873   0.00000  Uiso   1.00
Br553  Br    0.06330   0.38322   0.45180   0.00000  Uiso   1.00
Br554  Br    0.27004   0.61678   0.54820   0.00000  Uiso   1.00
Br555  Br    0.06360   0.61337   0.45146   0.00000  Uiso   1.00
Br556  Br    0.26974   0.38663   0.54854   0.00000  Uiso   1.00
C557   C     0.16647   0.42082   0.50005   0.00000  Uiso   1.00
C558   C     0.20996   0.35564   0.52123   0.00000  Uiso   1.00
C559   C     0.16685   0.62379   0.49979   0.00000  Uiso   1.00
C560   C     0.16649   0.37621   0.50021   0.00000  Uiso   1.00
C561   C     0.13716   0.47227   0.35488   0.00000  Uiso   1.00
C562   C     0.19618   0.52773   0.64512   0.00000  Uiso   1.00
C563   C     0.13705   0.47212   0.63855   0.00000  Uiso   1.00
C564   C     0.19629   0.52788   0.36145   0.00000  Uiso   1.00
C565   C     0.16686   0.57918   0.49995   0.00000  Uiso   1.00
C566   C     0.06819   0.49970   0.48814   0.00000  Uiso   1.00
C567   C     0.26515   0.50030   0.51186   0.00000  Uiso   1.00
C568   C     0.01327   0.49736   0.48151   0.00000  Uiso   1.00
C569   C     0.32007   0.50265   0.51849   0.00000  Uiso   1.00
C570   C     0.12321   0.35423   0.47897   0.00000  Uiso   1.00
C571   C     0.21012   0.64577   0.52103   0.00000  Uiso   1.00
C572   C     0.12337   0.64436   0.47876   0.00000  Uiso   1.00
Cu573  Cu    0.16667   0.50001   0.54689   0.00000  Uiso   1.00
Cu574  Cu    0.16667   0.49999   0.45311   0.00000  Uiso   1.00
H575   H     0.11355   0.45012   0.37104   0.00000  Uiso   1.00
H576   H     0.26474   0.55493   0.38235   0.00000  Uiso   1.00
H577   H     0.21978   0.54988   0.62896   0.00000  Uiso   1.00
H578   H     0.33272   0.51064   0.41165   0.00000  Uiso   1.00
H579   H     0.00115   0.45951   0.42452   0.00000  Uiso   1.00
H580   H     0.00062   0.48936   0.58835   0.00000  Uiso   1.00
H581   H     0.33218   0.54049   0.57548   0.00000  Uiso   1.00
H582   H     0.11825   0.41289   0.62157   0.00000  Uiso   1.00
H583   H     0.06860   0.44508   0.61764   0.00000  Uiso   1.00
H584   H     0.21508   0.58711   0.37843   0.00000  Uiso   1.00
N585   N     0.16668   0.50001   0.61736   0.00000  Uiso   1.00
N586   N     0.16665   0.49999   0.38264   0.00000  Uiso   1.00
N587   N     0.32174   0.48806   0.43480   0.00000  Uiso   1.00
N588   N     0.01160   0.51195   0.56520   0.00000  Uiso   1.00
N589   N     0.10608   0.44237   0.61052   0.00000  Uiso   1.00
N590   N     0.22725   0.55763   0.38948   0.00000  Uiso   1.00
O591   O     0.16666   0.43989   0.53958   0.00000  Uiso   1.00
O592   O     0.16667   0.56011   0.46042   0.00000  Uiso   1.00
O593   O     0.16666   0.43988   0.46039   0.00000  Uiso   1.00
O594   O     0.16667   0.56012   0.53961   0.00000  Uiso   1.00
O595   O     0.09161   0.50000   0.53046   0.00000  Uiso   1.00
O596   O     0.24172   0.50000   0.46954   0.00000  Uiso   1.00
O597   O     0.09161   0.49999   0.45127   0.00000  Uiso   1.00
O598   O     0.24172   0.50001   0.54873   0.00000  Uiso   1.00
Br599  Br    0.39664   0.38322   0.45180   0.00000  Uiso   1.00
Br600  Br    0.60337   0.61678   0.54820   0.00000  Uiso   1.00
Br601  Br    0.39693   0.61337   0.45146   0.00000  Uiso   1.00
Br602  Br    0.60307   0.38663   0.54854   0.00000  Uiso   1.00
C603   C     0.49980   0.42082   0.50005   0.00000  Uiso   1.00
C604   C     0.54330   0.35564   0.52123   0.00000  Uiso   1.00
C605   C     0.50018   0.62379   0.49979   0.00000  Uiso   1.00
C606   C     0.49982   0.37621   0.50021   0.00000  Uiso   1.00
C607   C     0.47049   0.47227   0.35488   0.00000  Uiso   1.00
C608   C     0.52951   0.52773   0.64512   0.00000  Uiso   1.00
C609   C     0.47038   0.47212   0.63855   0.00000  Uiso   1.00
C610   C     0.52962   0.52788   0.36145   0.00000  Uiso   1.00
C611   C     0.50020   0.57918   0.49995   0.00000  Uiso   1.00
C612   C     0.40152   0.49970   0.48814   0.00000  Uiso   1.00
C613   C     0.59848   0.50030   0.51186   0.00000  Uiso   1.00
C614   C     0.34660   0.49736   0.48151   0.00000  Uiso   1.00
C615   C     0.65340   0.50265   0.51849   0.00000  Uiso   1.00
C616   C     0.45655   0.35423   0.47897   0.00000  Uiso   1.00
C617   C     0.54345   0.64577   0.52103   0.00000  Uiso   1.00
C618   C     0.45671   0.64436   0.47876   0.00000  Uiso   1.00
Cu619  Cu    0.50000   0.50001   0.54689   0.00000  Uiso   1.00
Cu620  Cu    0.50000   0.49999   0.45311   0.00000  Uiso   1.00
H621   H     0.44689   0.45012   0.37104   0.00000  Uiso   1.00
H622   H     0.59807   0.55493   0.38235   0.00000  Uiso   1.00
H623   H     0.55311   0.54988   0.62896   0.00000  Uiso   1.00
H624   H     0.66605   0.51064   0.41165   0.00000  Uiso   1.00
H625   H     0.33448   0.45951   0.42452   0.00000  Uiso   1.00
H626   H     0.33396   0.48936   0.58835   0.00000  Uiso   1.00
H627   H     0.66552   0.54049   0.57548   0.00000  Uiso   1.00
H628   H     0.45159   0.41289   0.62157   0.00000  Uiso   1.00
H629   H     0.40193   0.44508   0.61764   0.00000  Uiso   1.00
H630   H     0.54841   0.58711   0.37843   0.00000  Uiso   1.00
N631   N     0.50001   0.50001   0.61736   0.00000  Uiso   1.00
N632   N     0.49999   0.49999   0.38264   0.00000  Uiso   1.00
N633   N     0.65507   0.48806   0.43480   0.00000  Uiso   1.00
N634   N     0.34493   0.51195   0.56520   0.00000  Uiso   1.00
N635   N     0.43942   0.44237   0.61052   0.00000  Uiso   1.00
N636   N     0.56058   0.55763   0.38948   0.00000  Uiso   1.00
O637   O     0.50000   0.43989   0.53958   0.00000  Uiso   1.00
O638   O     0.50000   0.56011   0.46042   0.00000  Uiso   1.00
O639   O     0.50000   0.43988   0.46039   0.00000  Uiso   1.00
O640   O     0.50000   0.56012   0.53961   0.00000  Uiso   1.00
O641   O     0.42495   0.50000   0.53046   0.00000  Uiso   1.00
O642   O     0.57505   0.50000   0.46954   0.00000  Uiso   1.00
O643   O     0.42494   0.49999   0.45127   0.00000  Uiso   1.00
O644   O     0.57506   0.50001   0.54873   0.00000  Uiso   1.00
Br645  Br    0.72997   0.38322   0.45180   0.00000  Uiso   1.00
Br646  Br    0.93670   0.61678   0.54820   0.00000  Uiso   1.00
Br647  Br    0.73026   0.61337   0.45146   0.00000  Uiso   1.00
Br648  Br    0.93640   0.38663   0.54854   0.00000  Uiso   1.00
C649   C     0.83314   0.42082   0.50005   0.00000  Uiso   1.00
C650   C     0.87663   0.35564   0.52123   0.00000  Uiso   1.00
C651   C     0.83351   0.62379   0.49979   0.00000  Uiso   1.00
C652   C     0.83316   0.37621   0.50021   0.00000  Uiso   1.00
C653   C     0.80382   0.47227   0.35488   0.00000  Uiso   1.00
C654   C     0.86284   0.52773   0.64512   0.00000  Uiso   1.00
C655   C     0.80372   0.47212   0.63855   0.00000  Uiso   1.00
C656   C     0.86295   0.52788   0.36145   0.00000  Uiso   1.00
C657   C     0.83353   0.57918   0.49995   0.00000  Uiso   1.00
C658   C     0.73485   0.49970   0.48814   0.00000  Uiso   1.00
C659   C     0.93181   0.50030   0.51186   0.00000  Uiso   1.00
C660   C     0.67993   0.49736   0.48151   0.00000  Uiso   1.00
C661   C     0.98674   0.50265   0.51849   0.00000  Uiso   1.00
C662   C     0.78988   0.35423   0.47897   0.00000  Uiso   1.00
C663   C     0.87679   0.64577   0.52103   0.00000  Uiso   1.00
C664   C     0.79004   0.64436   0.47876   0.00000  Uiso   1.00
Cu665  Cu    0.83333   0.50001   0.54689   0.00000  Uiso   1.00
Cu666  Cu    0.83333   0.49999   0.45311   0.00000  Uiso   1.00
H667   H     0.78022   0.45012   0.37104   0.00000  Uiso   1.00
H668   H     0.93140   0.55493   0.38235   0.00000  Uiso   1.00
H669   H     0.88645   0.54988   0.62896   0.00000  Uiso   1.00
H670   H     0.99938   0.51064   0.41165   0.00000  Uiso   1.00
H671   H     0.66781   0.45951   0.42452   0.00000  Uiso   1.00
H672   H     0.66729   0.48936   0.58835   0.00000  Uiso   1.00
H673   H     0.99885   0.54049   0.57548   0.00000  Uiso   1.00
H674   H     0.78492   0.41289   0.62157   0.00000  Uiso   1.00
H675   H     0.73526   0.44508   0.61764   0.00000  Uiso   1.00
H676   H     0.88174   0.58711   0.37843   0.00000  Uiso   1.00
N677   N     0.83335   0.50001   0.61736   0.00000  Uiso   1.00
N678   N     0.83332   0.49999   0.38264   0.00000  Uiso   1.00
N679   N     0.98840   0.48806   0.43480   0.00000  Uiso   1.00
N680   N     0.67826   0.51195   0.56520   0.00000  Uiso   1.00
N681   N     0.77275   0.44237   0.61052   0.00000  Uiso   1.00
N682   N     0.89392   0.55763   0.38948   0.00000  Uiso   1.00
O683   O     0.83333   0.43989   0.53958   0.00000  Uiso   1.00
O684   O     0.83334   0.56011   0.46042   0.00000  Uiso   1.00
O685   O     0.83333   0.43988   0.46039   0.00000  Uiso   1.00
O686   O     0.83334   0.56012   0.53961   0.00000  Uiso   1.00
O687   O     0.75828   0.50000   0.53046   0.00000  Uiso   1.00
O688   O     0.90839   0.50000   0.46954   0.00000  Uiso   1.00
O689   O     0.75828   0.49999   0.45127   0.00000  Uiso   1.00
O690   O     0.90839   0.50001   0.54873   0.00000  Uiso   1.00
Br691  Br    0.06330   0.71656   0.45180   0.00000  Uiso   1.00
Br692  Br    0.27004   0.95011   0.54820   0.00000  Uiso   1.00
Br693  Br    0.06360   0.94670   0.45146   0.00000  Uiso   1.00
Br694  Br    0.26974   0.71997   0.54854   0.00000  Uiso   1.00
C695   C     0.16647   0.75415   0.50005   0.00000  Uiso   1.00
C696   C     0.20996   0.68897   0.52123   0.00000  Uiso   1.00
C697   C     0.16685   0.95713   0.49979   0.00000  Uiso   1.00
C698   C     0.16649   0.70954   0.50021   0.00000  Uiso   1.00
C699   C     0.13716   0.80560   0.35488   0.00000  Uiso   1.00
C700   C     0.19618   0.86106   0.64512   0.00000  Uiso   1.00
C701   C     0.13705   0.80546   0.63855   0.00000  Uiso   1.00
C702   C     0.19629   0.86121   0.36145   0.00000  Uiso   1.00
C703   C     0.16686   0.91251   0.49995   0.00000  Uiso   1.00
C704   C     0.06819   0.83303   0.48814   0.00000  Uiso   1.00
C705   C     0.26515   0.83364   0.51186   0.00000  Uiso   1.00
C706   C     0.01327   0.83069   0.48151   0.00000  Uiso   1.00
C707   C     0.32007   0.83598   0.51849   0.00000  Uiso   1.00
C708   C     0.12321   0.68757   0.47897   0.00000  Uiso   1.00
C709   C     0.21012   0.97910   0.52103   0.00000  Uiso   1.00
C710   C     0.12337   0.97770   0.47876   0.00000  Uiso   1.00
Cu711  Cu    0.16667   0.83334   0.54689   0.00000  Uiso   1.00
Cu712  Cu    0.16667   0.83333   0.45311   0.00000  Uiso   1.00
H713   H     0.11355   0.78345   0.37104   0.00000  Uiso   1.00
H714   H     0.26474   0.88826   0.38235   0.00000  Uiso   1.00
H715   H     0.21978   0.88321   0.62896   0.00000  Uiso   1.00
H716   H     0.33272   0.84397   0.41165   0.00000  Uiso   1.00
H717   H     0.00115   0.79285   0.42452   0.00000  Uiso   1.00
H718   H     0.00062   0.82270   0.58835   0.00000  Uiso   1.00
H719   H     0.33218   0.87382   0.57548   0.00000  Uiso   1.00
H720   H     0.11825   0.74622   0.62157   0.00000  Uiso   1.00
H721   H     0.06860   0.77841   0.61764   0.00000  Uiso   1.00
H722   H     0.21508   0.92045   0.37843   0.00000  Uiso   1.00
N723   N     0.16668   0.83334   0.61736   0.00000  Uiso   1.00
N724   N     0.16665   0.83332   0.38264   0.00000  Uiso   1.00
N725   N     0.32174   0.82139   0.43480   0.00000  Uiso   1.00
N726   N     0.01160   0.84528   0.56520   0.00000  Uiso   1.00
N727   N     0.10608   0.77571   0.61052   0.00000  Uiso   1.00
N728   N     0.22725   0.89096   0.38948   0.00000  Uiso   1.00
O729   O     0.16666   0.77322   0.53958   0.00000  Uiso   1.00
O730   O     0.16667   0.89345   0.46042   0.00000  Uiso   1.00
O731   O     0.16666   0.77321   0.46039   0.00000  Uiso   1.00
O732   O     0.16667   0.89346   0.53961   0.00000  Uiso   1.00
O733   O     0.09161   0.83334   0.53046   0.00000  Uiso   1.00
O734   O     0.24172   0.83333   0.46954   0.00000  Uiso   1.00
O735   O     0.09161   0.83333   0.45127   0.00000  Uiso   1.00
O736   O     0.24172   0.83334   0.54873   0.00000  Uiso   1.00
Br737  Br    0.39664   0.71656   0.45180   0.00000  Uiso   1.00
Br738  Br    0.60337   0.95011   0.54820   0.00000  Uiso   1.00
Br739  Br    0.39693   0.94670   0.45146   0.00000  Uiso   1.00
Br740  Br    0.60307   0.71997   0.54854   0.00000  Uiso   1.00
C741   C     0.49980   0.75415   0.50005   0.00000  Uiso   1.00
C742   C     0.54330   0.68897   0.52123   0.00000  Uiso   1.00
C743   C     0.50018   0.95713   0.49979   0.00000  Uiso   1.00
C744   C     0.49982   0.70954   0.50021   0.00000  Uiso   1.00
C745   C     0.47049   0.80560   0.35488   0.00000  Uiso   1.00
C746   C     0.52951   0.86106   0.64512   0.00000  Uiso   1.00
C747   C     0.47038   0.80546   0.63855   0.00000  Uiso   1.00
C748   C     0.52962   0.86121   0.36145   0.00000  Uiso   1.00
C749   C     0.50020   0.91251   0.49995   0.00000  Uiso   1.00
C750   C     0.40152   0.83303   0.48814   0.00000  Uiso   1.00
C751   C     0.59848   0.83364   0.51186   0.00000  Uiso   1.00
C752   C     0.34660   0.83069   0.48151   0.00000  Uiso   1.00
C753   C     0.65340   0.83598   0.51849   0.00000  Uiso   1.00
C754   C     0.45655   0.68757   0.47897   0.00000  Uiso   1.00
C755   C     0.54345   0.97910   0.52103   0.00000  Uiso   1.00
C756   C     0.45671   0.97770   0.47876   0.00000  Uiso   1.00
Cu757  Cu    0.50000   0.83334   0.54689   0.00000  Uiso   1.00
Cu758  Cu    0.50000   0.83333   0.45311   0.00000  Uiso   1.00
H759   H     0.44689   0.78345   0.37104   0.00000  Uiso   1.00
H760   H     0.59807   0.88826   0.38235   0.00000  Uiso   1.00
H761   H     0.55311   0.88321   0.62896   0.00000  Uiso   1.00
H762   H     0.66605   0.84397   0.41165   0.00000  Uiso   1.00
H763   H     0.33448   0.79285   0.42452   0.00000  Uiso   1.00
H764   H     0.33396   0.82270   0.58835   0.00000  Uiso   1.00
H765   H     0.66552   0.87382   0.57548   0.00000  Uiso   1.00
H766   H     0.45159   0.74622   0.62157   0.00000  Uiso   1.00
H767   H     0.40193   0.77841   0.61764   0.00000  Uiso   1.00
H768   H     0.54841   0.92045   0.37843   0.00000  Uiso   1.00
N769   N     0.50001   0.83334   0.61736   0.00000  Uiso   1.00
N770   N     0.49999   0.83332   0.38264   0.00000  Uiso   1.00
N771   N     0.65507   0.82139   0.43480   0.00000  Uiso   1.00
N772   N     0.34493   0.84528   0.56520   0.00000  Uiso   1.00
N773   N     0.43942   0.77571   0.61052   0.00000  Uiso   1.00
N774   N     0.56058   0.89096   0.38948   0.00000  Uiso   1.00
O775   O     0.50000   0.77322   0.53958   0.00000  Uiso   1.00
O776   O     0.50000   0.89345   0.46042   0.00000  Uiso   1.00
O777   O     0.50000   0.77321   0.46039   0.00000  Uiso   1.00
O778   O     0.50000   0.89346   0.53961   0.00000  Uiso   1.00
O779   O     0.42495   0.83334   0.53046   0.00000  Uiso   1.00
O780   O     0.57505   0.83333   0.46954   0.00000  Uiso   1.00
O781   O     0.42494   0.83333   0.45127   0.00000  Uiso   1.00
O782   O     0.57506   0.83334   0.54873   0.00000  Uiso   1.00
Br783  Br    0.72997   0.71656   0.45180   0.00000  Uiso   1.00
Br784  Br    0.93670   0.95011   0.54820   0.00000  Uiso   1.00
Br785  Br    0.73026   0.94670   0.45146   0.00000  Uiso   1.00
Br786  Br    0.93640   0.71997   0.54854   0.00000  Uiso   1.00
C787   C     0.83314   0.75415   0.50005   0.00000  Uiso   1.00
C788   C     0.87663   0.68897   0.52123   0.00000  Uiso   1.00
C789   C     0.83351   0.95713   0.49979   0.00000  Uiso   1.00
C790   C     0.83316   0.70954   0.50021   0.00000  Uiso   1.00
C791   C     0.80382   0.80560   0.35488   0.00000  Uiso   1.00
C792   C     0.86284   0.86106   0.64512   0.00000  Uiso   1.00
C793   C     0.80372   0.80546   0.63855   0.00000  Uiso   1.00
C794   C     0.86295   0.86121   0.36145   0.00000  Uiso   1.00
C795   C     0.83353   0.91251   0.49995   0.00000  Uiso   1.00
C796   C     0.73485   0.83303   0.48814   0.00000  Uiso   1.00
C797   C     0.93181   0.83364   0.51186   0.00000  Uiso   1.00
C798   C     0.67993   0.83069   0.48151   0.00000  Uiso   1.00
C799   C     0.98674   0.83598   0.51849   0.00000  Uiso   1.00
C800   C     0.78988   0.68757   0.47897   0.00000  Uiso   1.00
C801   C     0.87679   0.97910   0.52103   0.00000  Uiso   1.00
C802   C     0.79004   0.97770   0.47876   0.00000  Uiso   1.00
Cu803  Cu    0.83333   0.83334   0.54689   0.00000  Uiso   1.00
Cu804  Cu    0.83333   0.83333   0.45311   0.00000  Uiso   1.00
H805   H     0.78022   0.78345   0.37104   0.00000  Uiso   1.00
H806   H     0.93140   0.88826   0.38235   0.00000  Uiso   1.00
H807   H     0.88645   0.88321   0.62896   0.00000  Uiso   1.00
H808   H     0.99938   0.84397   0.41165   0.00000  Uiso   1.00
H809   H     0.66781   0.79285   0.42452   0.00000  Uiso   1.00
H810   H     0.66729   0.82270   0.58835   0.00000  Uiso   1.00
H811   H     0.99885   0.87382   0.57548   0.00000  Uiso   1.00
H812   H     0.78492   0.74622   0.62157   0.00000  Uiso   1.00
H813   H     0.73526   0.77841   0.61764   0.00000  Uiso   1.00
H814   H     0.88174   0.92045   0.37843   0.00000  Uiso   1.00
N815   N     0.83335   0.83334   0.61736   0.00000  Uiso   1.00
N816   N     0.83332   0.83332   0.38264   0.00000  Uiso   1.00
N817   N     0.98840   0.82139   0.43480   0.00000  Uiso   1.00
N818   N     0.67826   0.84528   0.56520   0.00000  Uiso   1.00
N819   N     0.77275   0.77571   0.61052   0.00000  Uiso   1.00
N820   N     0.89392   0.89096   0.38948   0.00000  Uiso   1.00
O821   O     0.83333   0.77322   0.53958   0.00000  Uiso   1.00
O822   O     0.83334   0.89345   0.46042   0.00000  Uiso   1.00
O823   O     0.83333   0.77321   0.46039   0.00000  Uiso   1.00
O824   O     0.83334   0.89346   0.53961   0.00000  Uiso   1.00
O825   O     0.75828   0.83334   0.53046   0.00000  Uiso   1.00
O826   O     0.90839   0.83333   0.46954   0.00000  Uiso   1.00
O827   O     0.75828   0.83333   0.45127   0.00000  Uiso   1.00
O828   O     0.90839   0.83334   0.54873   0.00000  Uiso   1.00
Br829  Br    0.06330   0.04989   0.78513   0.00000  Uiso   1.00
Br830  Br    0.27004   0.28344   0.88153   0.00000  Uiso   1.00
Br831  Br    0.06360   0.28003   0.78479   0.00000  Uiso   1.00
Br832  Br    0.26974   0.05330   0.88187   0.00000  Uiso   1.00
C833   C     0.16647   0.08749   0.83339   0.00000  Uiso   1.00
C834   C     0.20996   0.02230   0.85457   0.00000  Uiso   1.00
C835   C     0.16685   0.29046   0.83312   0.00000  Uiso   1.00
C836   C     0.16649   0.04287   0.83354   0.00000  Uiso   1.00
C837   C     0.13716   0.13894   0.68821   0.00000  Uiso   1.00
C838   C     0.19618   0.19440   0.97846   0.00000  Uiso   1.00
C839   C     0.13705   0.13879   0.97188   0.00000  Uiso   1.00
C840   C     0.19629   0.19454   0.69479   0.00000  Uiso   1.00
C841   C     0.16686   0.24585   0.83328   0.00000  Uiso   1.00
C842   C     0.06819   0.16636   0.82147   0.00000  Uiso   1.00
C843   C     0.26515   0.16697   0.84520   0.00000  Uiso   1.00
C844   C     0.01327   0.16402   0.81484   0.00000  Uiso   1.00
C845   C     0.32007   0.16931   0.85182   0.00000  Uiso   1.00
C846   C     0.12321   0.02090   0.81230   0.00000  Uiso   1.00
C847   C     0.21012   0.31243   0.85436   0.00000  Uiso   1.00
C848   C     0.12337   0.31103   0.81210   0.00000  Uiso   1.00
Cu849  Cu    0.16667   0.16667   0.88022   0.00000  Uiso   1.00
Cu850  Cu    0.16667   0.16666   0.78645   0.00000  Uiso   1.00
H851   H     0.11355   0.11679   0.70438   0.00000  Uiso   1.00
H852   H     0.26474   0.22159   0.71569   0.00000  Uiso   1.00
H853   H     0.21978   0.21655   0.96229   0.00000  Uiso   1.00
H854   H     0.33272   0.17730   0.74498   0.00000  Uiso   1.00
H855   H     0.00115   0.12618   0.75785   0.00000  Uiso   1.00
H856   H     0.00062   0.15603   0.92168   0.00000  Uiso   1.00
H857   H     0.33218   0.20715   0.90882   0.00000  Uiso   1.00
H858   H     0.11825   0.07956   0.95491   0.00000  Uiso   1.00
H859   H     0.06860   0.11174   0.95098   0.00000  Uiso   1.00
H860   H     0.21508   0.25378   0.71176   0.00000  Uiso   1.00
N861   N     0.16668   0.16668   0.95069   0.00000  Uiso   1.00
N862   N     0.16665   0.16666   0.71597   0.00000  Uiso   1.00
N863   N     0.32174   0.15472   0.76814   0.00000  Uiso   1.00
N864   N     0.01160   0.17861   0.89853   0.00000  Uiso   1.00
N865   N     0.10608   0.10904   0.94386   0.00000  Uiso   1.00
N866   N     0.22725   0.22429   0.72281   0.00000  Uiso   1.00
O867   O     0.16666   0.10655   0.87291   0.00000  Uiso   1.00
O868   O     0.16667   0.22678   0.79375   0.00000  Uiso   1.00
O869   O     0.16666   0.10654   0.79372   0.00000  Uiso   1.00
O870   O     0.16667   0.22679   0.87294   0.00000  Uiso   1.00
O871   O     0.09161   0.16667   0.86379   0.00000  Uiso   1.00
O872   O     0.24172   0.16666   0.80288   0.00000  Uiso   1.00
O873   O     0.09161   0.16666   0.78460   0.00000  Uiso   1.00
O874   O     0.24172   0.16667   0.88207   0.00000  Uiso   1.00
Br875  Br    0.39664   0.04989   0.78513   0.00000  Uiso   1.00
Br876  Br    0.60337   0.28344   0.88153   0.00000  Uiso   1.00
Br877  Br    0.39693   0.28003   0.78479   0.00000  Uiso   1.00
Br878  Br    0.60307   0.05330   0.88187   0.00000  Uiso   1.00
C879   C     0.49980   0.08749   0.83339   0.00000  Uiso   1.00
C880   C     0.54330   0.02230   0.85457   0.00000  Uiso   1.00
C881   C     0.50018   0.29046   0.83312   0.00000  Uiso   1.00
C882   C     0.49982   0.04287   0.83354   0.00000  Uiso   1.00
C883   C     0.47049   0.13894   0.68821   0.00000  Uiso   1.00
C884   C     0.52951   0.19440   0.97846   0.00000  Uiso   1.00
C885   C     0.47038   0.13879   0.97188   0.00000  Uiso   1.00
C886   C     0.52962   0.19454   0.69479   0.00000  Uiso   1.00
C887   C     0.50020   0.24585   0.83328   0.00000  Uiso   1.00
C888   C     0.40152   0.16636   0.82147   0.00000  Uiso   1.00
C889   C     0.59848   0.16697   0.84520   0.00000  Uiso   1.00
C890   C     0.34660   0.16402   0.81484   0.00000  Uiso   1.00
C891   C     0.65340   0.16931   0.85182   0.00000  Uiso   1.00
C892   C     0.45655   0.02090   0.81230   0.00000  Uiso   1.00
C893   C     0.54345   0.31243   0.85436   0.00000  Uiso   1.00
C894   C     0.45671   0.31103   0.81210   0.00000  Uiso   1.00
Cu895  Cu    0.50000   0.16667   0.88022   0.00000  Uiso   1.00
Cu896  Cu    0.50000   0.16666   0.78645   0.00000  Uiso   1.00
H897   H     0.44689   0.11679   0.70438   0.00000  Uiso   1.00
H898   H     0.59807   0.22159   0.71569   0.00000  Uiso   1.00
H899   H     0.55311   0.21655   0.96229   0.00000  Uiso   1.00
H900   H     0.66605   0.17730   0.74498   0.00000  Uiso   1.00
H901   H     0.33448   0.12618   0.75785   0.00000  Uiso   1.00
H902   H     0.33396   0.15603   0.92168   0.00000  Uiso   1.00
H903   H     0.66552   0.20715   0.90882   0.00000  Uiso   1.00
H904   H     0.45159   0.07956   0.95491   0.00000  Uiso   1.00
H905   H     0.40193   0.11174   0.95098   0.00000  Uiso   1.00
H906   H     0.54841   0.25378   0.71176   0.00000  Uiso   1.00
N907   N     0.50001   0.16668   0.95069   0.00000  Uiso   1.00
N908   N     0.49999   0.16666   0.71597   0.00000  Uiso   1.00
N909   N     0.65507   0.15472   0.76814   0.00000  Uiso   1.00
N910   N     0.34493   0.17861   0.89853   0.00000  Uiso   1.00
N911   N     0.43942   0.10904   0.94386   0.00000  Uiso   1.00
N912   N     0.56058   0.22429   0.72281   0.00000  Uiso   1.00
O913   O     0.50000   0.10655   0.87291   0.00000  Uiso   1.00
O914   O     0.50000   0.22678   0.79375   0.00000  Uiso   1.00
O915   O     0.50000   0.10654   0.79372   0.00000  Uiso   1.00
O916   O     0.50000   0.22679   0.87294   0.00000  Uiso   1.00
O917   O     0.42495   0.16667   0.86379   0.00000  Uiso   1.00
O918   O     0.57505   0.16666   0.80288   0.00000  Uiso   1.00
O919   O     0.42494   0.16666   0.78460   0.00000  Uiso   1.00
O920   O     0.57506   0.16667   0.88207   0.00000  Uiso   1.00
Br921  Br    0.72997   0.04989   0.78513   0.00000  Uiso   1.00
Br922  Br    0.93670   0.28344   0.88153   0.00000  Uiso   1.00
Br923  Br    0.73026   0.28003   0.78479   0.00000  Uiso   1.00
Br924  Br    0.93640   0.05330   0.88187   0.00000  Uiso   1.00
C925   C     0.83314   0.08749   0.83339   0.00000  Uiso   1.00
C926   C     0.87663   0.02230   0.85457   0.00000  Uiso   1.00
C927   C     0.83351   0.29046   0.83312   0.00000  Uiso   1.00
C928   C     0.83316   0.04287   0.83354   0.00000  Uiso   1.00
C929   C     0.80382   0.13894   0.68821   0.00000  Uiso   1.00
C930   C     0.86284   0.19440   0.97846   0.00000  Uiso   1.00
C931   C     0.80372   0.13879   0.97188   0.00000  Uiso   1.00
C932   C     0.86295   0.19454   0.69479   0.00000  Uiso   1.00
C933   C     0.83353   0.24585   0.83328   0.00000  Uiso   1.00
C934   C     0.73485   0.16636   0.82147   0.00000  Uiso   1.00
C935   C     0.93181   0.16697   0.84520   0.00000  Uiso   1.00
C936   C     0.67993   0.16402   0.81484   0.00000  Uiso   1.00
C937   C     0.98674   0.16931   0.85182   0.00000  Uiso   1.00
C938   C     0.78988   0.02090   0.81230   0.00000  Uiso   1.00
C939   C     0.87679   0.31243   0.85436   0.00000  Uiso   1.00
C940   C     0.79004   0.31103   0.81210   0.00000  Uiso   1.00
Cu941  Cu    0.83333   0.16667   0.88022   0.00000  Uiso   1.00
Cu942  Cu    0.83333   0.16666   0.78645   0.00000  Uiso   1.00
H943   H     0.78022   0.11679   0.70438   0.00000  Uiso   1.00
H944   H     0.93140   0.22159   0.71569   0.00000  Uiso   1.00
H945   H     0.88645   0.21655   0.96229   0.00000  Uiso   1.00
H946   H     0.99938   0.17730   0.74498   0.00000  Uiso   1.00
H947   H     0.66781   0.12618   0.75785   0.00000  Uiso   1.00
H948   H     0.66729   0.15603   0.92168   0.00000  Uiso   1.00
H949   H     0.99885   0.20715   0.90882   0.00000  Uiso   1.00
H950   H     0.78492   0.07956   0.95491   0.00000  Uiso   1.00
H951   H     0.73526   0.11174   0.95098   0.00000  Uiso   1.00
H952   H     0.88174   0.25378   0.71176   0.00000  Uiso   1.00
N953   N     0.83335   0.16668   0.95069   0.00000  Uiso   1.00
N954   N     0.83332   0.16666   0.71597   0.00000  Uiso   1.00
N955   N     0.98840   0.15472   0.76814   0.00000  Uiso   1.00
N956   N     0.67826   0.17861   0.89853   0.00000  Uiso   1.00
N957   N     0.77275   0.10904   0.94386   0.00000  Uiso   1.00
N958   N     0.89392   0.22429   0.72281   0.00000  Uiso   1.00
O959   O     0.83333   0.10655   0.87291   0.00000  Uiso   1.00
O960   O     0.83334   0.22678   0.79375   0.00000  Uiso   1.00
O961   O     0.83333   0.10654   0.79372   0.00000  Uiso   1.00
O962   O     0.83334   0.22679   0.87294   0.00000  Uiso   1.00
O963   O     0.75828   0.16667   0.86379   0.00000  Uiso   1.00
O964   O     0.90839   0.16666   0.80288   0.00000  Uiso   1.00
O965   O     0.75828   0.16666   0.78460   0.00000  Uiso   1.00
O966   O     0.90839   0.16667   0.88207   0.00000  Uiso   1.00
Br967  Br    0.06330   0.38322   0.78513   0.00000  Uiso   1.00
Br968  Br    0.27004   0.61678   0.88153   0.00000  Uiso   1.00
Br969  Br    0.06360   0.61337   0.78479   0.00000  Uiso   1.00
Br970  Br    0.26974   0.38663   0.88187   0.00000  Uiso   1.00
C971   C     0.16647   0.42082   0.83339   0.00000  Uiso   1.00
C972   C     0.20996   0.35564   0.85457   0.00000  Uiso   1.00
C973   C     0.16685   0.62379   0.83312   0.00000  Uiso   1.00
C974   C     0.16649   0.37621   0.83354   0.00000  Uiso   1.00
C975   C     0.13716   0.47227   0.68821   0.00000  Uiso   1.00
C976   C     0.19618   0.52773   0.97846   0.00000  Uiso   1.00
C977   C     0.13705   0.47212   0.97188   0.00000  Uiso   1.00
C978   C     0.19629   0.52788   0.69479   0.00000  Uiso   1.00
C979   C     0.16686   0.57918   0.83328   0.00000  Uiso   1.00
C980   C     0.06819   0.49970   0.82147   0.00000  Uiso   1.00
C981   C     0.26515   0.50030   0.84520   0.00000  Uiso   1.00
C982   C     0.01327   0.49736   0.81484   0.00000  Uiso   1.00
C983   C     0.32007   0.50265   0.85182   0.00000  Uiso   1.00
C984   C     0.12321   0.35423   0.81230   0.00000  Uiso   1.00
C985   C     0.21012   0.64577   0.85436   0.00000  Uiso   1.00
C986   C     0.12337   0.64436   0.81210   0.00000  Uiso   1.00
Cu987  Cu    0.16667   0.50001   0.88022   0.00000  Uiso   1.00
Cu988  Cu    0.16667   0.49999   0.78645   0.00000  Uiso   1.00
H989   H     0.11355   0.45012   0.70438   0.00000  Uiso   1.00
H990   H     0.26474   0.55493   0.71569   0.00000  Uiso   1.00
H991   H     0.21978   0.54988   0.96229   0.00000  Uiso   1.00
H992   H     0.33272   0.51064   0.74498   0.00000  Uiso   1.00
H993   H     0.00115   0.45951   0.75785   0.00000  Uiso   1.00
H994   H     0.00062   0.48936   0.92168   0.00000  Uiso   1.00
H995   H     0.33218   0.54049   0.90882   0.00000  Uiso   1.00
H996   H     0.11825   0.41289   0.95491   0.00000  Uiso   1.00
H997   H     0.06860   0.44508   0.95098   0.00000  Uiso   1.00
H998   H     0.21508   0.58711   0.71176   0.00000  Uiso   1.00
N999   N     0.16668   0.50001   0.95069   0.00000  Uiso   1.00
N1000  N     0.16665   0.49999   0.71597   0.00000  Uiso   1.00
N1001  N     0.32174   0.48806   0.76814   0.00000  Uiso   1.00
N1002  N     0.01160   0.51195   0.89853   0.00000  Uiso   1.00
N1003  N     0.10608   0.44237   0.94386   0.00000  Uiso   1.00
N1004  N     0.22725   0.55763   0.72281   0.00000  Uiso   1.00
O1005  O     0.16666   0.43989   0.87291   0.00000  Uiso   1.00
O1006  O     0.16667   0.56011   0.79375   0.00000  Uiso   1.00
O1007  O     0.16666   0.43988   0.79372   0.00000  Uiso   1.00
O1008  O     0.16667   0.56012   0.87294   0.00000  Uiso   1.00
O1009  O     0.09161   0.50000   0.86379   0.00000  Uiso   1.00
O1010  O     0.24172   0.50000   0.80288   0.00000  Uiso   1.00
O1011  O     0.09161   0.49999   0.78460   0.00000  Uiso   1.00
O1012  O     0.24172   0.50001   0.88207   0.00000  Uiso   1.00
Br1013 Br    0.39664   0.38322   0.78513   0.00000  Uiso   1.00
Br1014 Br    0.60337   0.61678   0.88153   0.00000  Uiso   1.00
Br1015 Br    0.39693   0.61337   0.78479   0.00000  Uiso   1.00
Br1016 Br    0.60307   0.38663   0.88187   0.00000  Uiso   1.00
C1017  C     0.49980   0.42082   0.83339   0.00000  Uiso   1.00
C1018  C     0.54330   0.35564   0.85457   0.00000  Uiso   1.00
C1019  C     0.50018   0.62379   0.83312   0.00000  Uiso   1.00
C1020  C     0.49982   0.37621   0.83354   0.00000  Uiso   1.00
C1021  C     0.47049   0.47227   0.68821   0.00000  Uiso   1.00
C1022  C     0.52951   0.52773   0.97846   0.00000  Uiso   1.00
C1023  C     0.47038   0.47212   0.97188   0.00000  Uiso   1.00
C1024  C     0.52962   0.52788   0.69479   0.00000  Uiso   1.00
C1025  C     0.50020   0.57918   0.83328   0.00000  Uiso   1.00
C1026  C     0.40152   0.49970   0.82147   0.00000  Uiso   1.00
C1027  C     0.59848   0.50030   0.84520   0.00000  Uiso   1.00
C1028  C     0.34660   0.49736   0.81484   0.00000  Uiso   1.00
C1029  C     0.65340   0.50265   0.85182   0.00000  Uiso   1.00
C1030  C     0.45655   0.35423   0.81230   0.00000  Uiso   1.00
C1031  C     0.54345   0.64577   0.85436   0.00000  Uiso   1.00
C1032  C     0.45671   0.64436   0.81210   0.00000  Uiso   1.00
Cu1033 Cu    0.50000   0.50001   0.88022   0.00000  Uiso   1.00
Cu1034 Cu    0.50000   0.49999   0.78645   0.00000  Uiso   1.00
H1035  H     0.44689   0.45012   0.70438   0.00000  Uiso   1.00
H1036  H     0.59807   0.55493   0.71569   0.00000  Uiso   1.00
H1037  H     0.55311   0.54988   0.96229   0.00000  Uiso   1.00
H1038  H     0.66605   0.51064   0.74498   0.00000  Uiso   1.00
H1039  H     0.33448   0.45951   0.75785   0.00000  Uiso   1.00
H1040  H     0.33396   0.48936   0.92168   0.00000  Uiso   1.00
H1041  H     0.66552   0.54049   0.90882   0.00000  Uiso   1.00
H1042  H     0.45159   0.41289   0.95491   0.00000  Uiso   1.00
H1043  H     0.40193   0.44508   0.95098   0.00000  Uiso   1.00
H1044  H     0.54841   0.58711   0.71176   0.00000  Uiso   1.00
N1045  N     0.50001   0.50001   0.95069   0.00000  Uiso   1.00
N1046  N     0.49999   0.49999   0.71597   0.00000  Uiso   1.00
N1047  N     0.65507   0.48806   0.76814   0.00000  Uiso   1.00
N1048  N     0.34493   0.51195   0.89853   0.00000  Uiso   1.00
N1049  N     0.43942   0.44237   0.94386   0.00000  Uiso   1.00
N1050  N     0.56058   0.55763   0.72281   0.00000  Uiso   1.00
O1051  O     0.50000   0.43989   0.87291   0.00000  Uiso   1.00
O1052  O     0.50000   0.56011   0.79375   0.00000  Uiso   1.00
O1053  O     0.50000   0.43988   0.79372   0.00000  Uiso   1.00
O1054  O     0.50000   0.56012   0.87294   0.00000  Uiso   1.00
O1055  O     0.42495   0.50000   0.86379   0.00000  Uiso   1.00
O1056  O     0.57505   0.50000   0.80288   0.00000  Uiso   1.00
O1057  O     0.42494   0.49999   0.78460   0.00000  Uiso   1.00
O1058  O     0.57506   0.50001   0.88207   0.00000  Uiso   1.00
Br1059 Br    0.72997   0.38322   0.78513   0.00000  Uiso   1.00
Br1060 Br    0.93670   0.61678   0.88153   0.00000  Uiso   1.00
Br1061 Br    0.73026   0.61337   0.78479   0.00000  Uiso   1.00
Br1062 Br    0.93640   0.38663   0.88187   0.00000  Uiso   1.00
C1063  C     0.83314   0.42082   0.83339   0.00000  Uiso   1.00
C1064  C     0.87663   0.35564   0.85457   0.00000  Uiso   1.00
C1065  C     0.83351   0.62379   0.83312   0.00000  Uiso   1.00
C1066  C     0.83316   0.37621   0.83354   0.00000  Uiso   1.00
C1067  C     0.80382   0.47227   0.68821   0.00000  Uiso   1.00
C1068  C     0.86284   0.52773   0.97846   0.00000  Uiso   1.00
C1069  C     0.80372   0.47212   0.97188   0.00000  Uiso   1.00
C1070  C     0.86295   0.52788   0.69479   0.00000  Uiso   1.00
C1071  C     0.83353   0.57918   0.83328   0.00000  Uiso   1.00
C1072  C     0.73485   0.49970   0.82147   0.00000  Uiso   1.00
C1073  C     0.93181   0.50030   0.84520   0.00000  Uiso   1.00
C1074  C     0.67993   0.49736   0.81484   0.00000  Uiso   1.00
C1075  C     0.98674   0.50265   0.85182   0.00000  Uiso   1.00
C1076  C     0.78988   0.35423   0.81230   0.00000  Uiso   1.00
C1077  C     0.87679   0.64577   0.85436   0.00000  Uiso   1.00
C1078  C     0.79004   0.64436   0.81210   0.00000  Uiso   1.00
Cu1079 Cu    0.83333   0.50001   0.88022   0.00000  Uiso   1.00
Cu1080 Cu    0.83333   0.49999   0.78645   0.00000  Uiso   1.00
H1081  H     0.78022   0.45012   0.70438   0.00000  Uiso   1.00
H1082  H     0.93140   0.55493   0.71569   0.00000  Uiso   1.00
H1083  H     0.88645   0.54988   0.96229   0.00000  Uiso   1.00
H1084  H     0.99938   0.51064   0.74498   0.00000  Uiso   1.00
H1085  H     0.66781   0.45951   0.75785   0.00000  Uiso   1.00
H1086  H     0.66729   0.48936   0.92168   0.00000  Uiso   1.00
H1087  H     0.99885   0.54049   0.90882   0.00000  Uiso   1.00
H1088  H     0.78492   0.41289   0.95491   0.00000  Uiso   1.00
H1089  H     0.73526   0.44508   0.95098   0.00000  Uiso   1.00
H1090  H     0.88174   0.58711   0.71176   0.00000  Uiso   1.00
N1091  N     0.83335   0.50001   0.95069   0.00000  Uiso   1.00
N1092  N     0.83332   0.49999   0.71597   0.00000  Uiso   1.00
N1093  N     0.98840   0.48806   0.76814   0.00000  Uiso   1.00
N1094  N     0.67826   0.51195   0.89853   0.00000  Uiso   1.00
N1095  N     0.77275   0.44237   0.94386   0.00000  Uiso   1.00
N1096  N     0.89392   0.55763   0.72281   0.00000  Uiso   1.00
O1097  O     0.83333   0.43989   0.87291   0.00000  Uiso   1.00
O1098  O     0.83334   0.56011   0.79375   0.00000  Uiso   1.00
O1099  O     0.83333   0.43988   0.79372   0.00000  Uiso   1.00
O1100  O     0.83334   0.56012   0.87294   0.00000  Uiso   1.00
O1101  O     0.75828   0.50000   0.86379   0.00000  Uiso   1.00
O1102  O     0.90839   0.50000   0.80288   0.00000  Uiso   1.00
O1103  O     0.75828   0.49999   0.78460   0.00000  Uiso   1.00
O1104  O     0.90839   0.50001   0.88207   0.00000  Uiso   1.00
Br1105 Br    0.06330   0.71656   0.78513   0.00000  Uiso   1.00
Br1106 Br    0.27004   0.95011   0.88153   0.00000  Uiso   1.00
Br1107 Br    0.06360   0.94670   0.78479   0.00000  Uiso   1.00
Br1108 Br    0.26974   0.71997   0.88187   0.00000  Uiso   1.00
C1109  C     0.16647   0.75415   0.83339   0.00000  Uiso   1.00
C1110  C     0.20996   0.68897   0.85457   0.00000  Uiso   1.00
C1111  C     0.16685   0.95713   0.83312   0.00000  Uiso   1.00
C1112  C     0.16649   0.70954   0.83354   0.00000  Uiso   1.00
C1113  C     0.13716   0.80560   0.68821   0.00000  Uiso   1.00
C1114  C     0.19618   0.86106   0.97846   0.00000  Uiso   1.00
C1115  C     0.13705   0.80546   0.97188   0.00000  Uiso   1.00
C1116  C     0.19629   0.86121   0.69479   0.00000  Uiso   1.00
C1117  C     0.16686   0.91251   0.83328   0.00000  Uiso   1.00
C1118  C     0.06819   0.83303   0.82147   0.00000  Uiso   1.00
C1119  C     0.26515   0.83364   0.84520   0.00000  Uiso   1.00
C1120  C     0.01327   0.83069   0.81484   0.00000  Uiso   1.00
C1121  C     0.32007   0.83598   0.85182   0.00000  Uiso   1.00
C1122  C     0.12321   0.68757   0.81230   0.00000  Uiso   1.00
C1123  C     0.21012   0.97910   0.85436   0.00000  Uiso   1.00
C1124  C     0.12337   0.97770   0.81210   0.00000  Uiso   1.00
Cu1125 Cu    0.16667   0.83334   0.88022   0.00000  Uiso   1.00
Cu1126 Cu    0.16667   0.83333   0.78645   0.00000  Uiso   1.00
H1127  H     0.11355   0.78345   0.70438   0.00000  Uiso   1.00
H1128  H     0.26474   0.88826   0.71569   0.00000  Uiso   1.00
H1129  H     0.21978   0.88321   0.96229   0.00000  Uiso   1.00
H1130  H     0.33272   0.84397   0.74498   0.00000  Uiso   1.00
H1131  H     0.00115   0.79285   0.75785   0.00000  Uiso   1.00
H1132  H     0.00062   0.82270   0.92168   0.00000  Uiso   1.00
H1133  H     0.33218   0.87382   0.90882   0.00000  Uiso   1.00
H1134  H     0.11825   0.74622   0.95491   0.00000  Uiso   1.00
H1135  H     0.06860   0.77841   0.95098   0.00000  Uiso   1.00
H1136  H     0.21508   0.92045   0.71176   0.00000  Uiso   1.00
N1137  N     0.16668   0.83334   0.95069   0.00000  Uiso   1.00
N1138  N     0.16665   0.83332   0.71597   0.00000  Uiso   1.00
N1139  N     0.32174   0.82139   0.76814   0.00000  Uiso   1.00
N1140  N     0.01160   0.84528   0.89853   0.00000  Uiso   1.00
N1141  N     0.10608   0.77571   0.94386   0.00000  Uiso   1.00
N1142  N     0.22725   0.89096   0.72281   0.00000  Uiso   1.00
O1143  O     0.16666   0.77322   0.87291   0.00000  Uiso   1.00
O1144  O     0.16667   0.89345   0.79375   0.00000  Uiso   1.00
O1145  O     0.16666   0.77321   0.79372   0.00000  Uiso   1.00
O1146  O     0.16667   0.89346   0.87294   0.00000  Uiso   1.00
O1147  O     0.09161   0.83334   0.86379   0.00000  Uiso   1.00
O1148  O     0.24172   0.83333   0.80288   0.00000  Uiso   1.00
O1149  O     0.09161   0.83333   0.78460   0.00000  Uiso   1.00
O1150  O     0.24172   0.83334   0.88207   0.00000  Uiso   1.00
Br1151 Br    0.39664   0.71656   0.78513   0.00000  Uiso   1.00
Br1152 Br    0.60337   0.95011   0.88153   0.00000  Uiso   1.00
Br1153 Br    0.39693   0.94670   0.78479   0.00000  Uiso   1.00
Br1154 Br    0.60307   0.71997   0.88187   0.00000  Uiso   1.00
C1155  C     0.49980   0.75415   0.83339   0.00000  Uiso   1.00
C1156  C     0.54330   0.68897   0.85457   0.00000  Uiso   1.00
C1157  C     0.50018   0.95713   0.83312   0.00000  Uiso   1.00
C1158  C     0.49982   0.70954   0.83354   0.00000  Uiso   1.00
C1159  C     0.47049   0.80560   0.68821   0.00000  Uiso   1.00
C1160  C     0.52951   0.86106   0.97846   0.00000  Uiso   1.00
C1161  C     0.47038   0.80546   0.97188   0.00000  Uiso   1.00
C1162  C     0.52962   0.86121   0.69479   0.00000  Uiso   1.00
C1163  C     0.50020   0.91251   0.83328   0.00000  Uiso   1.00
C1164  C     0.40152   0.83303   0.82147   0.00000  Uiso   1.00
C1165  C     0.59848   0.83364   0.84520   0.00000  Uiso   1.00
C1166  C     0.34660   0.83069   0.81484   0.00000  Uiso   1.00
C1167  C     0.65340   0.83598   0.85182   0.00000  Uiso   1.00
C1168  C     0.45655   0.68757   0.81230   0.00000  Uiso   1.00
C1169  C     0.54345   0.97910   0.85436   0.00000  Uiso   1.00
C1170  C     0.45671   0.97770   0.81210   0.00000  Uiso   1.00
Cu1171 Cu    0.50000   0.83334   0.88022   0.00000  Uiso   1.00
Cu1172 Cu    0.50000   0.83333   0.78645   0.00000  Uiso   1.00
H1173  H     0.44689   0.78345   0.70438   0.00000  Uiso   1.00
H1174  H     0.59807   0.88826   0.71569   0.00000  Uiso   1.00
H1175  H     0.55311   0.88321   0.96229   0.00000  Uiso   1.00
H1176  H     0.66605   0.84397   0.74498   0.00000  Uiso   1.00
H1177  H     0.33448   0.79285   0.75785   0.00000  Uiso   1.00
H1178  H     0.33396   0.82270   0.92168   0.00000  Uiso   1.00
H1179  H     0.66552   0.87382   0.90882   0.00000  Uiso   1.00
H1180  H     0.45159   0.74622   0.95491   0.00000  Uiso   1.00
H1181  H     0.40193   0.77841   0.95098   0.00000  Uiso   1.00
H1182  H     0.54841   0.92045   0.71176   0.00000  Uiso   1.00
N1183  N     0.50001   0.83334   0.95069   0.00000  Uiso   1.00
N1184  N     0.49999   0.83332   0.71597   0.00000  Uiso   1.00
N1185  N     0.65507   0.82139   0.76814   0.00000  Uiso   1.00
N1186  N     0.34493   0.84528   0.89853   0.00000  Uiso   1.00
N1187  N     0.43942   0.77571   0.94386   0.00000  Uiso   1.00
N1188  N     0.56058   0.89096   0.72281   0.00000  Uiso   1.00
O1189  O     0.50000   0.77322   0.87291   0.00000  Uiso   1.00
O1190  O     0.50000   0.89345   0.79375   0.00000  Uiso   1.00
O1191  O     0.50000   0.77321   0.79372   0.00000  Uiso   1.00
O1192  O     0.50000   0.89346   0.87294   0.00000  Uiso   1.00
O1193  O     0.42495   0.83334   0.86379   0.00000  Uiso   1.00
O1194  O     0.57505   0.83333   0.80288   0.00000  Uiso   1.00
O1195  O     0.42494   0.83333   0.78460   0.00000  Uiso   1.00
O1196  O     0.57506   0.83334   0.88207   0.00000  Uiso   1.00
Br1197 Br    0.72997   0.71656   0.78513   0.00000  Uiso   1.00
Br1198 Br    0.93670   0.95011   0.88153   0.00000  Uiso   1.00
Br1199 Br    0.73026   0.94670   0.78479   0.00000  Uiso   1.00
Br1200 Br    0.93640   0.71997   0.88187   0.00000  Uiso   1.00
C1201  C     0.83314   0.75415   0.83339   0.00000  Uiso   1.00
C1202  C     0.87663   0.68897   0.85457   0.00000  Uiso   1.00
C1203  C     0.83351   0.95713   0.83312   0.00000  Uiso   1.00
C1204  C     0.83316   0.70954   0.83354   0.00000  Uiso   1.00
C1205  C     0.80382   0.80560   0.68821   0.00000  Uiso   1.00
C1206  C     0.86284   0.86106   0.97846   0.00000  Uiso   1.00
C1207  C     0.80372   0.80546   0.97188   0.00000  Uiso   1.00
C1208  C     0.86295   0.86121   0.69479   0.00000  Uiso   1.00
C1209  C     0.83353   0.91251   0.83328   0.00000  Uiso   1.00
C1210  C     0.73485   0.83303   0.82147   0.00000  Uiso   1.00
C1211  C     0.93181   0.83364   0.84520   0.00000  Uiso   1.00
C1212  C     0.67993   0.83069   0.81484   0.00000  Uiso   1.00
C1213  C     0.98674   0.83598   0.85182   0.00000  Uiso   1.00
C1214  C     0.78988   0.68757   0.81230   0.00000  Uiso   1.00
C1215  C     0.87679   0.97910   0.85436   0.00000  Uiso   1.00
C1216  C     0.79004   0.97770   0.81210   0.00000  Uiso   1.00
Cu1217 Cu    0.83333   0.83334   0.88022   0.00000  Uiso   1.00
Cu1218 Cu    0.83333   0.83333   0.78645   0.00000  Uiso   1.00
H1219  H     0.78022   0.78345   0.70438   0.00000  Uiso   1.00
H1220  H     0.93140   0.88826   0.71569   0.00000  Uiso   1.00
H1221  H     0.88645   0.88321   0.96229   0.00000  Uiso   1.00
H1222  H     0.99938   0.84397   0.74498   0.00000  Uiso   1.00
H1223  H     0.66781   0.79285   0.75785   0.00000  Uiso   1.00
H1224  H     0.66729   0.82270   0.92168   0.00000  Uiso   1.00
H1225  H     0.99885   0.87382   0.90882   0.00000  Uiso   1.00
H1226  H     0.78492   0.74622   0.95491   0.00000  Uiso   1.00
H1227  H     0.73526   0.77841   0.95098   0.00000  Uiso   1.00
H1228  H     0.88174   0.92045   0.71176   0.00000  Uiso   1.00
N1229  N     0.83335   0.83334   0.95069   0.00000  Uiso   1.00
N1230  N     0.83332   0.83332   0.71597   0.00000  Uiso   1.00
N1231  N     0.98840   0.82139   0.76814   0.00000  Uiso   1.00
N1232  N     0.67826   0.84528   0.89853   0.00000  Uiso   1.00
N1233  N     0.77275   0.77571   0.94386   0.00000  Uiso   1.00
N1234  N     0.89392   0.89096   0.72281   0.00000  Uiso   1.00
O1235  O     0.83333   0.77322   0.87291   0.00000  Uiso   1.00
O1236  O     0.83334   0.89345   0.79375   0.00000  Uiso   1.00
O1237  O     0.83333   0.77321   0.79372   0.00000  Uiso   1.00
O1238  O     0.83334   0.89346   0.87294   0.00000  Uiso   1.00
O1239  O     0.75828   0.83334   0.86379   0.00000  Uiso   1.00
O1240  O     0.90839   0.83333   0.80288   0.00000  Uiso   1.00
O1241  O     0.75828   0.83333   0.78460   0.00000  Uiso   1.00
O1242  O     0.90839   0.83334   0.88207   0.00000  Uiso   1.00
loop_
_geom_bond_atom_site_label_1
_geom_bond_atom_site_label_2
_geom_bond_distance
_geom_bond_site_symmetry_2
_ccdc_geom_bond_type
Br1    C18     1.930   .     S
Br2    C19     1.930   .     S
Br3    C20     1.933   .     S
Br4    C6      1.933   .     S
C5     C8      1.441   .     S
C5     O39     1.290   .     A
C5     O41     1.289   .     A
C6     C8      1.405   .     A
C6     C295    1.395   1_545 S
C7     C20     1.405   .     A
C7     C19     1.405   .     A
C7     C13     1.441   .     S
C8     C18     1.405   .     A
C9     N34     1.363   .     A
C9     H23     1.082   .     S
C9     C839    1.421   1_554 S
C10    H25     1.082   .     S
C10    N33     1.363   .     A
C10    C426    1.421   .     S
C11    N33     1.373   .     A
C11    N37     1.429   .     S
C11    C423    1.421   .     S
C12    N38     1.429   .     S
C12    N34     1.373   .     A
C12    C838    1.421   1_554 S
C13    O42     1.289   .     A
C13    O40     1.290   .     A
C14    O45     1.292   .     A
C14    O43     1.286   .     A
C14    C16     1.442   .     S
C15    C17     1.442   .     S
C15    O44     1.286   .     A
C15    O46     1.292   .     A
C16    C109    1.358   1_455 S
C16    N127    1.440   1_455 S
C17    C62     1.358   .     S
C17    N82     1.440   .     S
C18    C296    1.395   1_545 S
C19    C144    1.395   .     S
C20    C156    1.395   .     S
Cu21   O39     1.954   .     S
Cu21   Cu22    2.683   .     S
Cu21   N33     2.016   .     S
Cu21   O42     1.952   .     S
Cu21   O46     1.981   .     S
Cu21   O43     1.981   .     S
Cu22   O40     1.954   .     S
Cu22   N34     2.016   .     S
Cu22   O41     1.952   .     S
Cu22   O45     1.981   .     S
Cu22   O44     1.981   .     S
H24    N38     1.045   .     S
H26    N35     1.045   .     S
H27    N127    1.045   1_455 S
H28    N36     1.045   .     S
H29    N82     1.045   .     S
H30    N37     1.045   .     S
H31    N37     1.045   .     S
H32    N38     1.046   .     S
N35    H73     1.045   .     S
N35    C62     1.440   .     S
N36    H121    1.045   1_455 S
N36    C109    1.440   1_455 S
Br47   C64     1.930   .     S
Br48   C65     1.930   .     S
Br49   C66     1.933   .     S
Br50   C52     1.933   .     S
C51    C54     1.441   .     S
C51    O85     1.290   .     A
C51    O87     1.289   .     A
C52    C54     1.405   .     A
C52    C341    1.395   1_545 S
C53    C66     1.405   .     A
C53    C65     1.405   .     A
C53    C59     1.441   .     S
C54    C64     1.405   .     A
C55    N80     1.363   .     A
C55    H69     1.082   .     S
C55    C885    1.421   1_554 S
C56    H71     1.082   .     S
C56    N79     1.363   .     A
C56    C472    1.421   .     S
C57    N79     1.373   .     A
C57    N83     1.429   .     S
C57    C469    1.421   .     S
C58    N84     1.429   .     S
C58    N80     1.373   .     A
C58    C884    1.421   1_554 S
C59    O88     1.289   .     A
C59    O86     1.290   .     A
C60    O91     1.292   .     A
C60    O89     1.286   .     A
C60    C62     1.442   .     S
C61    C63     1.442   .     S
C61    O90     1.286   .     A
C61    O92     1.292   .     A
C63    C108    1.358   .     S
C63    N128    1.440   .     S
C64    C342    1.395   1_545 S
C65    C190    1.395   .     S
C66    C202    1.395   .     S
Cu67   O85     1.954   .     S
Cu67   Cu68    2.683   .     S
Cu67   N79     2.016   .     S
Cu67   O88     1.952   .     S
Cu67   O92     1.981   .     S
Cu67   O89     1.981   .     S
Cu68   O86     1.954   .     S
Cu68   N80     2.016   .     S
Cu68   O87     1.952   .     S
Cu68   O91     1.981   .     S
Cu68   O90     1.981   .     S
H70    N84     1.045   .     S
H72    N81     1.045   .     S
H74    N82     1.045   .     S
H75    N128    1.045   .     S
H76    N83     1.045   .     S
H77    N83     1.045   .     S
H78    N84     1.046   .     S
N81    H119    1.045   .     S
N81    C108    1.440   .     S
Br93   C110    1.930   .     S
Br94   C111    1.930   .     S
Br95   C112    1.933   .     S
Br96   C98     1.933   .     S
C97    C100    1.441   .     S
C97    O131    1.290   .     A
C97    O133    1.289   .     A
C98    C100    1.405   .     A
C98    C387    1.395   1_545 S
C99    C112    1.405   .     A
C99    C111    1.405   .     A
C99    C105    1.441   .     S
C100   C110    1.405   .     A
C101   N126    1.363   .     A
C101   H115    1.082   .     S
C101   C931    1.421   1_554 S
C102   H117    1.082   .     S
C102   N125    1.363   .     A
C102   C518    1.421   .     S
C103   N125    1.373   .     A
C103   N129    1.429   .     S
C103   C515    1.421   .     S
C104   N130    1.429   .     S
C104   N126    1.373   .     A
C104   C930    1.421   1_554 S
C105   O134    1.289   .     A
C105   O132    1.290   .     A
C106   O137    1.292   .     A
C106   O135    1.286   .     A
C106   C108    1.442   .     S
C107   C109    1.442   .     S
C107   O136    1.286   .     A
C107   O138    1.292   .     A
C109   C16     1.358   1_655 S
C109   N36     1.440   1_655 S
C110   C388    1.395   1_545 S
C111   C236    1.395   .     S
C112   C248    1.395   .     S
Cu113  O131    1.954   .     S
Cu113  Cu114   2.683   .     S
Cu113  N125    2.016   .     S
Cu113  O134    1.952   .     S
Cu113  O138    1.981   .     S
Cu113  O135    1.981   .     S
Cu114  O132    1.954   .     S
Cu114  N126    2.016   .     S
Cu114  O133    1.952   .     S
Cu114  O137    1.981   .     S
Cu114  O136    1.981   .     S
H116   N130    1.045   .     S
H118   N127    1.045   .     S
H120   N128    1.045   .     S
H121   N36     1.045   1_655 S
H122   N129    1.045   .     S
H123   N129    1.045   .     S
H124   N130    1.046   .     S
N127   H27     1.045   1_655 S
N127   C16     1.440   1_655 S
Br139  C156    1.930   .     S
Br140  C157    1.930   .     S
Br141  C158    1.933   .     S
Br142  C144    1.933   .     S
C143   C146    1.441   .     S
C143   O177    1.290   .     A
C143   O179    1.289   .     A
C144   C146    1.405   .     A
C145   C158    1.405   .     A
C145   C157    1.405   .     A
C145   C151    1.441   .     S
C146   C156    1.405   .     A
C147   N172    1.363   .     A
C147   H161    1.082   .     S
C147   C977    1.421   1_554 S
C148   H163    1.082   .     S
C148   N171    1.363   .     A
C148   C564    1.421   .     S
C149   N171    1.373   .     A
C149   N175    1.429   .     S
C149   C561    1.421   .     S
C150   N176    1.429   .     S
C150   N172    1.373   .     A
C150   C976    1.421   1_554 S
C151   O180    1.289   .     A
C151   O178    1.290   .     A
C152   O183    1.292   .     A
C152   O181    1.286   .     A
C152   C154    1.442   .     S
C153   C155    1.442   .     S
C153   O182    1.286   .     A
C153   O184    1.292   .     A
C154   C247    1.358   1_455 S
C154   N265    1.440   1_455 S
C155   C200    1.358   .     S
C155   N220    1.440   .     S
C157   C282    1.395   .     S
C158   C294    1.395   .     S
Cu159  O177    1.954   .     S
Cu159  Cu160   2.683   .     S
Cu159  N171    2.016   .     S
Cu159  O180    1.952   .     S
Cu159  O184    1.981   .     S
Cu159  O181    1.981   .     S
Cu160  O178    1.954   .     S
Cu160  N172    2.016   .     S
Cu160  O179    1.952   .     S
Cu160  O183    1.981   .     S
Cu160  O182    1.981   .     S
H162   N176    1.045   .     S
H164   N173    1.045   .     S
H165   N265    1.045   1_455 S
H166   N174    1.045   .     S
H167   N220    1.045   .     S
H168   N175    1.045   .     S
H169   N175    1.045   .     S
H170   N176    1.046   .     S
N173   H211    1.045   .     S
N173   C200    1.440   .     S
N174   H259    1.045   1_455 S
N174   C247    1.440   1_455 S
Br185  C202    1.930   .     S
Br186  C203    1.930   .     S
Br187  C204    1.933   .     S
Br188  C190    1.933   .     S
C189   C192    1.441   .     S
C189   O223    1.290   .     A
C189   O225    1.289   .     A
C190   C192    1.405   .     A
C191   C204    1.405   .     A
C191   C203    1.405   .     A
C191   C197    1.441   .     S
C192   C202    1.405   .     A
C193   N218    1.363   .     A
C193   H207    1.082   .     S
C193   C1023   1.421   1_554 S
C194   H209    1.082   .     S
C194   N217    1.363   .     A
C194   C610    1.421   .     S
C195   N217    1.373   .     A
C195   N221    1.429   .     S
C195   C607    1.421   .     S
C196   N222    1.429   .     S
C196   N218    1.373   .     A
C196   C1022   1.421   1_554 S
C197   O226    1.289   .     A
C197   O224    1.290   .     A
C198   O229    1.292   .     A
C198   O227    1.286   .     A
C198   C200    1.442   .     S
C199   C201    1.442   .     S
C199   O228    1.286   .     A
C199   O230    1.292   .     A
C201   C246    1.358   .     S
C201   N266    1.440   .     S
C203   C328    1.395   .     S
C204   C340    1.395   .     S
Cu205  O223    1.954   .     S
Cu205  Cu206   2.683   .     S
Cu205  N217    2.016   .     S
Cu205  O226    1.952   .     S
Cu205  O230    1.981   .     S
Cu205  O227    1.981   .     S
Cu206  O224    1.954   .     S
Cu206  N218    2.016   .     S
Cu206  O225    1.952   .     S
Cu206  O229    1.981   .     S
Cu206  O228    1.981   .     S
H208   N222    1.045   .     S
H210   N219    1.045   .     S
H212   N220    1.045   .     S
H213   N266    1.045   .     S
H214   N221    1.045   .     S
H215   N221    1.045   .     S
H216   N222    1.046   .     S
N219   H257    1.045   .     S
N219   C246    1.440   .     S
Br231  C248    1.930   .     S
Br232  C249    1.930   .     S
Br233  C250    1.933   .     S
Br234  C236    1.933   .     S
C235   C238    1.441   .     S
C235   O269    1.290   .     A
C235   O271    1.289   .     A
C236   C238    1.405   .     A
C237   C250    1.405   .     A
C237   C249    1.405   .     A
C237   C243    1.441   .     S
C238   C248    1.405   .     A
C239   N264    1.363   .     A
C239   H253    1.082   .     S
C239   C1069   1.421   1_554 S
C240   H255    1.082   .     S
C240   N263    1.363   .     A
C240   C656    1.421   .     S
C241   N263    1.373   .     A
C241   N267    1.429   .     S
C241   C653    1.421   .     S
C242   N268    1.429   .     S
C242   N264    1.373   .     A
C242   C1068   1.421   1_554 S
C243   O272    1.289   .     A
C243   O270    1.290   .     A
C244   O275    1.292   .     A
C244   O273    1.286   .     A
C244   C246    1.442   .     S
C245   C247    1.442   .     S
C245   O274    1.286   .     A
C245   O276    1.292   .     A
C247   C154    1.358   1_655 S
C247   N174    1.440   1_655 S
C249   C374    1.395   .     S
C250   C386    1.395   .     S
Cu251  O269    1.954   .     S
Cu251  Cu252   2.683   .     S
Cu251  N263    2.016   .     S
Cu251  O272    1.952   .     S
Cu251  O276    1.981   .     S
Cu251  O273    1.981   .     S
Cu252  O270    1.954   .     S
Cu252  N264    2.016   .     S
Cu252  O271    1.952   .     S
Cu252  O275    1.981   .     S
Cu252  O274    1.981   .     S
H254   N268    1.045   .     S
H256   N265    1.045   .     S
H258   N266    1.045   .     S
H259   N174    1.045   1_655 S
H260   N267    1.045   .     S
H261   N267    1.045   .     S
H262   N268    1.046   .     S
N265   H165    1.045   1_655 S
N265   C154    1.440   1_655 S
Br277  C294    1.930   .     S
Br278  C295    1.930   .     S
Br279  C296    1.933   .     S
Br280  C282    1.933   .     S
C281   C284    1.441   .     S
C281   O315    1.290   .     A
C281   O317    1.289   .     A
C282   C284    1.405   .     A
C283   C296    1.405   .     A
C283   C295    1.405   .     A
C283   C289    1.441   .     S
C284   C294    1.405   .     A
C285   N310    1.363   .     A
C285   H299    1.082   .     S
C285   C1115   1.421   1_554 S
C286   H301    1.082   .     S
C286   N309    1.363   .     A
C286   C702    1.421   .     S
C287   N309    1.373   .     A
C287   N313    1.429   .     S
C287   C699    1.421   .     S
C288   N314    1.429   .     S
C288   N310    1.373   .     A
C288   C1114   1.421   1_554 S
C289   O318    1.289   .     A
C289   O316    1.290   .     A
C290   O321    1.292   .     A
C290   O319    1.286   .     A
C290   C292    1.442   .     S
C291   C293    1.442   .     S
C291   O320    1.286   .     A
C291   O322    1.292   .     A
C292   C385    1.358   1_455 S
C292   N403    1.440   1_455 S
C293   C338    1.358   .     S
C293   N358    1.440   .     S
C295   C6      1.395   1_565 S
C296   C18     1.395   1_565 S
Cu297  O315    1.954   .     S
Cu297  Cu298   2.683   .     S
Cu297  N309    2.016   .     S
Cu297  O318    1.952   .     S
Cu297  O322    1.981   .     S
Cu297  O319    1.981   .     S
Cu298  O316    1.954   .     S
Cu298  N310    2.016   .     S
Cu298  O317    1.952   .     S
Cu298  O321    1.981   .     S
Cu298  O320    1.981   .     S
H300   N314    1.045   .     S
H302   N311    1.045   .     S
H303   N403    1.045   1_455 S
H304   N312    1.045   .     S
H305   N358    1.045   .     S
H306   N313    1.045   .     S
H307   N313    1.045   .     S
H308   N314    1.046   .     S
N311   H349    1.045   .     S
N311   C338    1.440   .     S
N312   H397    1.045   1_455 S
N312   C385    1.440   1_455 S
Br323  C340    1.930   .     S
Br324  C341    1.930   .     S
Br325  C342    1.933   .     S
Br326  C328    1.933   .     S
C327   C330    1.441   .     S
C327   O361    1.290   .     A
C327   O363    1.289   .     A
C328   C330    1.405   .     A
C329   C342    1.405   .     A
C329   C341    1.405   .     A
C329   C335    1.441   .     S
C330   C340    1.405   .     A
C331   N356    1.363   .     A
C331   H345    1.082   .     S
C331   C1161   1.421   1_554 S
C332   H347    1.082   .     S
C332   N355    1.363   .     A
C332   C748    1.421   .     S
C333   N355    1.373   .     A
C333   N359    1.429   .     S
C333   C745    1.421   .     S
C334   N360    1.429   .     S
C334   N356    1.373   .     A
C334   C1160   1.421   1_554 S
C335   O364    1.289   .     A
C335   O362    1.290   .     A
C336   O367    1.292   .     A
C336   O365    1.286   .     A
C336   C338    1.442   .     S
C337   C339    1.442   .     S
C337   O366    1.286   .     A
C337   O368    1.292   .     A
C339   C384    1.358   .     S
C339   N404    1.440   .     S
C341   C52     1.395   1_565 S
C342   C64     1.395   1_565 S
Cu343  O361    1.954   .     S
Cu343  Cu344   2.683   .     S
Cu343  N355    2.016   .     S
Cu343  O364    1.952   .     S
Cu343  O368    1.981   .     S
Cu343  O365    1.981   .     S
Cu344  O362    1.954   .     S
Cu344  N356    2.016   .     S
Cu344  O363    1.952   .     S
Cu344  O367    1.981   .     S
Cu344  O366    1.981   .     S
H346   N360    1.045   .     S
H348   N357    1.045   .     S
H350   N358    1.045   .     S
H351   N404    1.045   .     S
H352   N359    1.045   .     S
H353   N359    1.045   .     S
H354   N360    1.046   .     S
N357   H395    1.045   .     S
N357   C384    1.440   .     S
Br369  C386    1.930   .     S
Br370  C387    1.930   .     S
Br371  C388    1.933   .     S
Br372  C374    1.933   .     S
C373   C376    1.441   .     S
C373   O407    1.290   .     A
C373   O409    1.289   .     A
C374   C376    1.405   .     A
C375   C388    1.405   .     A
C375   C387    1.405   .     A
C375   C381    1.441   .     S
C376   C386    1.405   .     A
C377   N402    1.363   .     A
C377   H391    1.082   .     S
C377   C1207   1.421   1_554 S
C378   H393    1.082   .     S
C378   N401    1.363   .     A
C378   C794    1.421   .     S
C379   N401    1.373   .     A
C379   N405    1.429   .     S
C379   C791    1.421   .     S
C380   N406    1.429   .     S
C380   N402    1.373   .     A
C380   C1206   1.421   1_554 S
C381   O410    1.289   .     A
C381   O408    1.290   .     A
C382   O413    1.292   .     A
C382   O411    1.286   .     A
C382   C384    1.442   .     S
C383   C385    1.442   .     S
C383   O412    1.286   .     A
C383   O414    1.292   .     A
C385   C292    1.358   1_655 S
C385   N312    1.440   1_655 S
C387   C98     1.395   1_565 S
C388   C110    1.395   1_565 S
Cu389  O407    1.954   .     S
Cu389  Cu390   2.683   .     S
Cu389  N401    2.016   .     S
Cu389  O410    1.952   .     S
Cu389  O414    1.981   .     S
Cu389  O411    1.981   .     S
Cu390  O408    1.954   .     S
Cu390  N402    2.016   .     S
Cu390  O409    1.952   .     S
Cu390  O413    1.981   .     S
Cu390  O412    1.981   .     S
H392   N406    1.045   .     S
H394   N403    1.045   .     S
H396   N404    1.045   .     S
H397   N312    1.045   1_655 S
H398   N405    1.045   .     S
H399   N405    1.045   .     S
H400   N406    1.046   .     S
N403   H303    1.045   1_655 S
N403   C292    1.440   1_655 S
Br415  C432    1.930   .     S
Br416  C433    1.930   .     S
Br417  C434    1.933   .     S
Br418  C420    1.933   .     S
C419   C422    1.441   .     S
C419   O453    1.290   .     A
C419   O455    1.289   .     A
C420   C422    1.405   .     A
C420   C709    1.395   1_545 S
C421   C434    1.405   .     A
C421   C433    1.405   .     A
C421   C427    1.441   .     S
C422   C432    1.405   .     A
C423   N448    1.363   .     A
C423   H437    1.082   .     S
C424   H439    1.082   .     S
C424   N447    1.363   .     A
C424   C840    1.421   .     S
C425   N447    1.373   .     A
C425   N451    1.429   .     S
C425   C837    1.421   .     S
C426   N452    1.429   .     S
C426   N448    1.373   .     A
C427   O456    1.289   .     A
C427   O454    1.290   .     A
C428   O459    1.292   .     A
C428   O457    1.286   .     A
C428   C430    1.442   .     S
C429   C431    1.442   .     S
C429   O458    1.286   .     A
C429   O460    1.292   .     A
C430   C523    1.358   1_455 S
C430   N541    1.440   1_455 S
C431   C476    1.358   .     S
C431   N496    1.440   .     S
C432   C710    1.395   1_545 S
C433   C558    1.395   .     S
C434   C570    1.395   .     S
Cu435  O453    1.954   .     S
Cu435  Cu436   2.683   .     S
Cu435  N447    2.016   .     S
Cu435  O456    1.952   .     S
Cu435  O460    1.981   .     S
Cu435  O457    1.981   .     S
Cu436  O454    1.954   .     S
Cu436  N448    2.016   .     S
Cu436  O455    1.952   .     S
Cu436  O459    1.981   .     S
Cu436  O458    1.981   .     S
H438   N452    1.045   .     S
H440   N449    1.045   .     S
H441   N541    1.045   1_455 S
H442   N450    1.045   .     S
H443   N496    1.045   .     S
H444   N451    1.045   .     S
H445   N451    1.045   .     S
H446   N452    1.046   .     S
N449   H487    1.045   .     S
N449   C476    1.440   .     S
N450   H535    1.045   1_455 S
N450   C523    1.440   1_455 S
Br461  C478    1.930   .     S
Br462  C479    1.930   .     S
Br463  C480    1.933   .     S
Br464  C466    1.933   .     S
C465   C468    1.441   .     S
C465   O499    1.290   .     A
C465   O501    1.289   .     A
C466   C468    1.405   .     A
C466   C755    1.395   1_545 S
C467   C480    1.405   .     A
C467   C479    1.405   .     A
C467   C473    1.441   .     S
C468   C478    1.405   .     A
C469   N494    1.363   .     A
C469   H483    1.082   .     S
C470   H485    1.082   .     S
C470   N493    1.363   .     A
C470   C886    1.421   .     S
C471   N493    1.373   .     A
C471   N497    1.429   .     S
C471   C883    1.421   .     S
C472   N498    1.429   .     S
C472   N494    1.373   .     A
C473   O502    1.289   .     A
C473   O500    1.290   .     A
C474   O505    1.292   .     A
C474   O503    1.286   .     A
C474   C476    1.442   .     S
C475   C477    1.442   .     S
C475   O504    1.286   .     A
C475   O506    1.292   .     A
C477   C522    1.358   .     S
C477   N542    1.440   .     S
C478   C756    1.395   1_545 S
C479   C604    1.395   .     S
C480   C616    1.395   .     S
Cu481  O499    1.954   .     S
Cu481  Cu482   2.683   .     S
Cu481  N493    2.016   .     S
Cu481  O502    1.952   .     S
Cu481  O506    1.981   .     S
Cu481  O503    1.981   .     S
Cu482  O500    1.954   .     S
Cu482  N494    2.016   .     S
Cu482  O501    1.952   .     S
Cu482  O505    1.981   .     S
Cu482  O504    1.981   .     S
H484   N498    1.045   .     S
H486   N495    1.045   .     S
H488   N496    1.045   .     S
H489   N542    1.045   .     S
H490   N497    1.045   .     S
H491   N497    1.045   .     S
H492   N498    1.046   .     S
N495   H533    1.045   .     S
N495   C522    1.440   .     S
Br507  C524    1.930   .     S
Br508  C525    1.930   .     S
Br509  C526    1.933   .     S
Br510  C512    1.933   .     S
C511   C514    1.441   .     S
C511   O545    1.290   .     A
C511   O547    1.289   .     A
C512   C514    1.405   .     A
C512   C801    1.395   1_545 S
C513   C526    1.405   .     A
C513   C525    1.405   .     A
C513   C519    1.441   .     S
C514   C524    1.405   .     A
C515   N540    1.363   .     A
C515   H529    1.082   .     S
C516   H531    1.082   .     S
C516   N539    1.363   .     A
C516   C932    1.421   .     S
C517   N539    1.373   .     A
C517   N543    1.429   .     S
C517   C929    1.421   .     S
C518   N544    1.429   .     S
C518   N540    1.373   .     A
C519   O548    1.289   .     A
C519   O546    1.290   .     A
C520   O551    1.292   .     A
C520   O549    1.286   .     A
C520   C522    1.442   .     S
C521   C523    1.442   .     S
C521   O550    1.286   .     A
C521   O552    1.292   .     A
C523   C430    1.358   1_655 S
C523   N450    1.440   1_655 S
C524   C802    1.395   1_545 S
C525   C650    1.395   .     S
C526   C662    1.395   .     S
Cu527  O545    1.954   .     S
Cu527  Cu528   2.683   .     S
Cu527  N539    2.016   .     S
Cu527  O548    1.952   .     S
Cu527  O552    1.981   .     S
Cu527  O549    1.981   .     S
Cu528  O546    1.954   .     S
Cu528  N540    2.016   .     S
Cu528  O547    1.952   .     S
Cu528  O551    1.981   .     S
Cu528  O550    1.981   .     S
H530   N544    1.045   .     S
H532   N541    1.045   .     S
H534   N542    1.045   .     S
H535   N450    1.045   1_655 S
H536   N543    1.045   .     S
H537   N543    1.045   .     S
H538   N544    1.046   .     S
N541   H441    1.045   1_655 S
N541   C430    1.440   1_655 S
Br553  C570    1.930   .     S
Br554  C571    1.930   .     S
Br555  C572    1.933   .     S
Br556  C558    1.933   .     S
C557   C560    1.441   .     S
C557   O591    1.290   .     A
C557   O593    1.289   .     A
C558   C560    1.405   .     A
C559   C572    1.405   .     A
C559   C571    1.405   .     A
C559   C565    1.441   .     S
C560   C570    1.405   .     A
C561   N586    1.363   .     A
C561   H575    1.082   .     S
C562   H577    1.082   .     S
C562   N585    1.363   .     A
C562   C978    1.421   .     S
C563   N585    1.373   .     A
C563   N589    1.429   .     S
C563   C975    1.421   .     S
C564   N590    1.429   .     S
C564   N586    1.373   .     A
C565   O594    1.289   .     A
C565   O592    1.290   .     A
C566   O597    1.292   .     A
C566   O595    1.286   .     A
C566   C568    1.442   .     S
C567   C569    1.442   .     S
C567   O596    1.286   .     A
C567   O598    1.292   .     A
C568   C661    1.358   1_455 S
C568   N679    1.440   1_455 S
C569   C614    1.358   .     S
C569   N634    1.440   .     S
C571   C696    1.395   .     S
C572   C708    1.395   .     S
Cu573  O591    1.954   .     S
Cu573  Cu574   2.683   .     S
Cu573  N585    2.016   .     S
Cu573  O594    1.952   .     S
Cu573  O598    1.981   .     S
Cu573  O595    1.981   .     S
Cu574  O592    1.954   .     S
Cu574  N586    2.016   .     S
Cu574  O593    1.952   .     S
Cu574  O597    1.981   .     S
Cu574  O596    1.981   .     S
H576   N590    1.045   .     S
H578   N587    1.045   .     S
H579   N679    1.045   1_455 S
H580   N588    1.045   .     S
H581   N634    1.045   .     S
H582   N589    1.045   .     S
H583   N589    1.045   .     S
H584   N590    1.046   .     S
N587   H625    1.045   .     S
N587   C614    1.440   .     S
N588   H673    1.045   1_455 S
N588   C661    1.440   1_455 S
Br599  C616    1.930   .     S
Br600  C617    1.930   .     S
Br601  C618    1.933   .     S
Br602  C604    1.933   .     S
C603   C606    1.441   .     S
C603   O637    1.290   .     A
C603   O639    1.289   .     A
C604   C606    1.405   .     A
C605   C618    1.405   .     A
C605   C617    1.405   .     A
C605   C611    1.441   .     S
C606   C616    1.405   .     A
C607   N632    1.363   .     A
C607   H621    1.082   .     S
C608   H623    1.082   .     S
C608   N631    1.363   .     A
C608   C1024   1.421   .     S
C609   N631    1.373   .     A
C609   N635    1.429   .     S
C609   C1021   1.421   .     S
C610   N636    1.429   .     S
C610   N632    1.373   .     A
C611   O640    1.289   .     A
C611   O638    1.290   .     A
C612   O643    1.292   .     A
C612   O641    1.286   .     A
C612   C614    1.442   .     S
C613   C615    1.442   .     S
C613   O642    1.286   .     A
C613   O644    1.292   .     A
C615   C660    1.358   .     S
C615   N680    1.440   .     S
C617   C742    1.395   .     S
C618   C754    1.395   .     S
Cu619  O637    1.954   .     S
Cu619  Cu620   2.683   .     S
Cu619  N631    2.016   .     S
Cu619  O640    1.952   .     S
Cu619  O644    1.981   .     S
Cu619  O641    1.981   .     S
Cu620  O638    1.954   .     S
Cu620  N632    2.016   .     S
Cu620  O639    1.952   .     S
Cu620  O643    1.981   .     S
Cu620  O642    1.981   .     S
H622   N636    1.045   .     S
H624   N633    1.045   .     S
H626   N634    1.045   .     S
H627   N680    1.045   .     S
H628   N635    1.045   .     S
H629   N635    1.045   .     S
H630   N636    1.046   .     S
N633   H671    1.045   .     S
N633   C660    1.440   .     S
Br645  C662    1.930   .     S
Br646  C663    1.930   .     S
Br647  C664    1.933   .     S
Br648  C650    1.933   .     S
C649   C652    1.441   .     S
C649   O683    1.290   .     A
C649   O685    1.289   .     A
C650   C652    1.405   .     A
C651   C664    1.405   .     A
C651   C663    1.405   .     A
C651   C657    1.441   .     S
C652   C662    1.405   .     A
C653   N678    1.363   .     A
C653   H667    1.082   .     S
C654   H669    1.082   .     S
C654   N677    1.363   .     A
C654   C1070   1.421   .     S
C655   N677    1.373   .     A
C655   N681    1.429   .     S
C655   C1067   1.421   .     S
C656   N682    1.429   .     S
C656   N678    1.373   .     A
C657   O686    1.289   .     A
C657   O684    1.290   .     A
C658   O689    1.292   .     A
C658   O687    1.286   .     A
C658   C660    1.442   .     S
C659   C661    1.442   .     S
C659   O688    1.286   .     A
C659   O690    1.292   .     A
C661   C568    1.358   1_655 S
C661   N588    1.440   1_655 S
C663   C788    1.395   .     S
C664   C800    1.395   .     S
Cu665  O683    1.954   .     S
Cu665  Cu666   2.683   .     S
Cu665  N677    2.016   .     S
Cu665  O686    1.952   .     S
Cu665  O690    1.981   .     S
Cu665  O687    1.981   .     S
Cu666  O684    1.954   .     S
Cu666  N678    2.016   .     S
Cu666  O685    1.952   .     S
Cu666  O689    1.981   .     S
Cu666  O688    1.981   .     S
H668   N682    1.045   .     S
H670   N679    1.045   .     S
H672   N680    1.045   .     S
H673   N588    1.045   1_655 S
H674   N681    1.045   .     S
H675   N681    1.045   .     S
H676   N682    1.046   .     S
N679   H579    1.045   1_655 S
N679   C568    1.440   1_655 S
Br691  C708    1.930   .     S
Br692  C709    1.930   .     S
Br693  C710    1.933   .     S
Br694  C696    1.933   .     S
C695   C698    1.441   .     S
C695   O729    1.290   .     A
C695   O731    1.289   .     A
C696   C698    1.405   .     A
C697   C710    1.405   .     A
C697   C709    1.405   .     A
C697   C703    1.441   .     S
C698   C708    1.405   .     A
C699   N724    1.363   .     A
C699   H713    1.082   .     S
C700   H715    1.082   .     S
C700   N723    1.363   .     A
C700   C1116   1.421   .     S
C701   N723    1.373   .     A
C701   N727    1.429   .     S
C701   C1113   1.421   .     S
C702   N728    1.429   .     S
C702   N724    1.373   .     A
C703   O732    1.289   .     A
C703   O730    1.290   .     A
C704   O735    1.292   .     A
C704   O733    1.286   .     A
C704   C706    1.442   .     S
C705   C707    1.442   .     S
C705   O734    1.286   .     A
C705   O736    1.292   .     A
C706   C799    1.358   1_455 S
C706   N817    1.440   1_455 S
C707   C752    1.358   .     S
C707   N772    1.440   .     S
C709   C420    1.395   1_565 S
C710   C432    1.395   1_565 S
Cu711  O729    1.954   .     S
Cu711  Cu712   2.683   .     S
Cu711  N723    2.016   .     S
Cu711  O732    1.952   .     S
Cu711  O736    1.981   .     S
Cu711  O733    1.981   .     S
Cu712  O730    1.954   .     S
Cu712  N724    2.016   .     S
Cu712  O731    1.952   .     S
Cu712  O735    1.981   .     S
Cu712  O734    1.981   .     S
H714   N728    1.045   .     S
H716   N725    1.045   .     S
H717   N817    1.045   1_455 S
H718   N726    1.045   .     S
H719   N772    1.045   .     S
H720   N727    1.045   .     S
H721   N727    1.045   .     S
H722   N728    1.046   .     S
N725   H763    1.045   .     S
N725   C752    1.440   .     S
N726   H811    1.045   1_455 S
N726   C799    1.440   1_455 S
Br737  C754    1.930   .     S
Br738  C755    1.930   .     S
Br739  C756    1.933   .     S
Br740  C742    1.933   .     S
C741   C744    1.441   .     S
C741   O775    1.290   .     A
C741   O777    1.289   .     A
C742   C744    1.405   .     A
C743   C756    1.405   .     A
C743   C755    1.405   .     A
C743   C749    1.441   .     S
C744   C754    1.405   .     A
C745   N770    1.363   .     A
C745   H759    1.082   .     S
C746   H761    1.082   .     S
C746   N769    1.363   .     A
C746   C1162   1.421   .     S
C747   N769    1.373   .     A
C747   N773    1.429   .     S
C747   C1159   1.421   .     S
C748   N774    1.429   .     S
C748   N770    1.373   .     A
C749   O778    1.289   .     A
C749   O776    1.290   .     A
C750   O781    1.292   .     A
C750   O779    1.286   .     A
C750   C752    1.442   .     S
C751   C753    1.442   .     S
C751   O780    1.286   .     A
C751   O782    1.292   .     A
C753   C798    1.358   .     S
C753   N818    1.440   .     S
C755   C466    1.395   1_565 S
C756   C478    1.395   1_565 S
Cu757  O775    1.954   .     S
Cu757  Cu758   2.683   .     S
Cu757  N769    2.016   .     S
Cu757  O778    1.952   .     S
Cu757  O782    1.981   .     S
Cu757  O779    1.981   .     S
Cu758  O776    1.954   .     S
Cu758  N770    2.016   .     S
Cu758  O777    1.952   .     S
Cu758  O781    1.981   .     S
Cu758  O780    1.981   .     S
H760   N774    1.045   .     S
H762   N771    1.045   .     S
H764   N772    1.045   .     S
H765   N818    1.045   .     S
H766   N773    1.045   .     S
H767   N773    1.045   .     S
H768   N774    1.046   .     S
N771   H809    1.045   .     S
N771   C798    1.440   .     S
Br783  C800    1.930   .     S
Br784  C801    1.930   .     S
Br785  C802    1.933   .     S
Br786  C788    1.933   .     S
C787   C790    1.441   .     S
C787   O821    1.290   .     A
C787   O823    1.289   .     A
C788   C790    1.405   .     A
C789   C802    1.405   .     A
C789   C801    1.405   .     A
C789   C795    1.441   .     S
C790   C800    1.405   .     A
C791   N816    1.363   .     A
C791   H805    1.082   .     S
C792   H807    1.082   .     S
C792   N815    1.363   .     A
C792   C1208   1.421   .     S
C793   N815    1.373   .     A
C793   N819    1.429   .     S
C793   C1205   1.421   .     S
C794   N820    1.429   .     S
C794   N816    1.373   .     A
C795   O824    1.289   .     A
C795   O822    1.290   .     A
C796   O827    1.292   .     A
C796   O825    1.286   .     A
C796   C798    1.442   .     S
C797   C799    1.442   .     S
C797   O826    1.286   .     A
C797   O828    1.292   .     A
C799   C706    1.358   1_655 S
C799   N726    1.440   1_655 S
C801   C512    1.395   1_565 S
C802   C524    1.395   1_565 S
Cu803  O821    1.954   .     S
Cu803  Cu804   2.683   .     S
Cu803  N815    2.016   .     S
Cu803  O824    1.952   .     S
Cu803  O828    1.981   .     S
Cu803  O825    1.981   .     S
Cu804  O822    1.954   .     S
Cu804  N816    2.016   .     S
Cu804  O823    1.952   .     S
Cu804  O827    1.981   .     S
Cu804  O826    1.981   .     S
H806   N820    1.045   .     S
H808   N817    1.045   .     S
H810   N818    1.045   .     S
H811   N726    1.045   1_655 S
H812   N819    1.045   .     S
H813   N819    1.045   .     S
H814   N820    1.046   .     S
N817   H717    1.045   1_655 S
N817   C706    1.440   1_655 S
Br829  C846    1.930   .     S
Br830  C847    1.930   .     S
Br831  C848    1.933   .     S
Br832  C834    1.933   .     S
C833   C836    1.441   .     S
C833   O867    1.290   .     A
C833   O869    1.289   .     A
C834   C836    1.405   .     A
C834   C1123   1.395   1_545 S
C835   C848    1.405   .     A
C835   C847    1.405   .     A
C835   C841    1.441   .     S
C836   C846    1.405   .     A
C837   N862    1.363   .     A
C837   H851    1.082   .     S
C838   H853    1.082   .     S
C838   N861    1.363   .     A
C838   C12     1.421   1_556 S
C839   N861    1.373   .     A
C839   N865    1.429   .     S
C839   C9      1.421   1_556 S
C840   N866    1.429   .     S
C840   N862    1.373   .     A
C841   O870    1.289   .     A
C841   O868    1.290   .     A
C842   O873    1.292   .     A
C842   O871    1.286   .     A
C842   C844    1.442   .     S
C843   C845    1.442   .     S
C843   O872    1.286   .     A
C843   O874    1.292   .     A
C844   C937    1.358   1_455 S
C844   N955    1.440   1_455 S
C845   C890    1.358   .     S
C845   N910    1.440   .     S
C846   C1124   1.395   1_545 S
C847   C972    1.395   .     S
C848   C984    1.395   .     S
Cu849  O867    1.954   .     S
Cu849  Cu850   2.683   .     S
Cu849  N861    2.016   .     S
Cu849  O870    1.952   .     S
Cu849  O874    1.981   .     S
Cu849  O871    1.981   .     S
Cu850  O868    1.954   .     S
Cu850  N862    2.016   .     S
Cu850  O869    1.952   .     S
Cu850  O873    1.981   .     S
Cu850  O872    1.981   .     S
H852   N866    1.045   .     S
H854   N863    1.045   .     S
H855   N955    1.045   1_455 S
H856   N864    1.045   .     S
H857   N910    1.045   .     S
H858   N865    1.045   .     S
H859   N865    1.045   .     S
H860   N866    1.046   .     S
N863   H901    1.045   .     S
N863   C890    1.440   .     S
N864   H949    1.045   1_455 S
N864   C937    1.440   1_455 S
Br875  C892    1.930   .     S
Br876  C893    1.930   .     S
Br877  C894    1.933   .     S
Br878  C880    1.933   .     S
C879   C882    1.441   .     S
C879   O913    1.290   .     A
C879   O915    1.289   .     A
C880   C882    1.405   .     A
C880   C1169   1.395   1_545 S
C881   C894    1.405   .     A
C881   C893    1.405   .     A
C881   C887    1.441   .     S
C882   C892    1.405   .     A
C883   N908    1.363   .     A
C883   H897    1.082   .     S
C884   H899    1.082   .     S
C884   N907    1.363   .     A
C884   C58     1.421   1_556 S
C885   N907    1.373   .     A
C885   N911    1.429   .     S
C885   C55     1.421   1_556 S
C886   N912    1.429   .     S
C886   N908    1.373   .     A
C887   O916    1.289   .     A
C887   O914    1.290   .     A
C888   O919    1.292   .     A
C888   O917    1.286   .     A
C888   C890    1.442   .     S
C889   C891    1.442   .     S
C889   O918    1.286   .     A
C889   O920    1.292   .     A
C891   C936    1.358   .     S
C891   N956    1.440   .     S
C892   C1170   1.395   1_545 S
C893   C1018   1.395   .     S
C894   C1030   1.395   .     S
Cu895  O913    1.954   .     S
Cu895  Cu896   2.683   .     S
Cu895  N907    2.016   .     S
Cu895  O916    1.952   .     S
Cu895  O920    1.981   .     S
Cu895  O917    1.981   .     S
Cu896  O914    1.954   .     S
Cu896  N908    2.016   .     S
Cu896  O915    1.952   .     S
Cu896  O919    1.981   .     S
Cu896  O918    1.981   .     S
H898   N912    1.045   .     S
H900   N909    1.045   .     S
H902   N910    1.045   .     S
H903   N956    1.045   .     S
H904   N911    1.045   .     S
H905   N911    1.045   .     S
H906   N912    1.046   .     S
N909   H947    1.045   .     S
N909   C936    1.440   .     S
Br921  C938    1.930   .     S
Br922  C939    1.930   .     S
Br923  C940    1.933   .     S
Br924  C926    1.933   .     S
C925   C928    1.441   .     S
C925   O959    1.290   .     A
C925   O961    1.289   .     A
C926   C928    1.405   .     A
C926   C1215   1.395   1_545 S
C927   C940    1.405   .     A
C927   C939    1.405   .     A
C927   C933    1.441   .     S
C928   C938    1.405   .     A
C929   N954    1.363   .     A
C929   H943    1.082   .     S
C930   H945    1.082   .     S
C930   N953    1.363   .     A
C930   C104    1.421   1_556 S
C931   N953    1.373   .     A
C931   N957    1.429   .     S
C931   C101    1.421   1_556 S
C932   N958    1.429   .     S
C932   N954    1.373   .     A
C933   O962    1.289   .     A
C933   O960    1.290   .     A
C934   O965    1.292   .     A
C934   O963    1.286   .     A
C934   C936    1.442   .     S
C935   C937    1.442   .     S
C935   O964    1.286   .     A
C935   O966    1.292   .     A
C937   C844    1.358   1_655 S
C937   N864    1.440   1_655 S
C938   C1216   1.395   1_545 S
C939   C1064   1.395   .     S
C940   C1076   1.395   .     S
Cu941  O959    1.954   .     S
Cu941  Cu942   2.683   .     S
Cu941  N953    2.016   .     S
Cu941  O962    1.952   .     S
Cu941  O966    1.981   .     S
Cu941  O963    1.981   .     S
Cu942  O960    1.954   .     S
Cu942  N954    2.016   .     S
Cu942  O961    1.952   .     S
Cu942  O965    1.981   .     S
Cu942  O964    1.981   .     S
H944   N958    1.045   .     S
H946   N955    1.045   .     S
H948   N956    1.045   .     S
H949   N864    1.045   1_655 S
H950   N957    1.045   .     S
H951   N957    1.045   .     S
H952   N958    1.046   .     S
N955   H855    1.045   1_655 S
N955   C844    1.440   1_655 S
Br967  C984    1.930   .     S
Br968  C985    1.930   .     S
Br969  C986    1.933   .     S
Br970  C972    1.933   .     S
C971   C974    1.441   .     S
C971   O1005   1.290   .     A
C971   O1007   1.289   .     A
C972   C974    1.405   .     A
C973   C986    1.405   .     A
C973   C985    1.405   .     A
C973   C979    1.441   .     S
C974   C984    1.405   .     A
C975   N1000   1.363   .     A
C975   H989    1.082   .     S
C976   H991    1.082   .     S
C976   N999    1.363   .     A
C976   C150    1.421   1_556 S
C977   N999    1.373   .     A
C977   N1003   1.429   .     S
C977   C147    1.421   1_556 S
C978   N1004   1.429   .     S
C978   N1000   1.373   .     A
C979   O1008   1.289   .     A
C979   O1006   1.290   .     A
C980   O1011   1.292   .     A
C980   O1009   1.286   .     A
C980   C982    1.442   .     S
C981   C983    1.442   .     S
C981   O1010   1.286   .     A
C981   O1012   1.292   .     A
C982   C1075   1.358   1_455 S
C982   N1093   1.440   1_455 S
C983   C1028   1.358   .     S
C983   N1048   1.440   .     S
C985   C1110   1.395   .     S
C986   C1122   1.395   .     S
Cu987  O1005   1.954   .     S
Cu987  Cu988   2.683   .     S
Cu987  N999    2.016   .     S
Cu987  O1008   1.952   .     S
Cu987  O1012   1.981   .     S
Cu987  O1009   1.981   .     S
Cu988  O1006   1.954   .     S
Cu988  N1000   2.016   .     S
Cu988  O1007   1.952   .     S
Cu988  O1011   1.981   .     S
Cu988  O1010   1.981   .     S
H990   N1004   1.045   .     S
H992   N1001   1.045   .     S
H993   N1093   1.045   1_455 S
H994   N1002   1.045   .     S
H995   N1048   1.045   .     S
H996   N1003   1.045   .     S
H997   N1003   1.045   .     S
H998   N1004   1.046   .     S
N1001  H1039   1.045   .     S
N1001  C1028   1.440   .     S
N1002  H1087   1.045   1_455 S
N1002  C1075   1.440   1_455 S
Br1013 C1030   1.930   .     S
Br1014 C1031   1.930   .     S
Br1015 C1032   1.933   .     S
Br1016 C1018   1.933   .     S
C1017  C1020   1.441   .     S
C1017  O1051   1.290   .     A
C1017  O1053   1.289   .     A
C1018  C1020   1.405   .     A
C1019  C1032   1.405   .     A
C1019  C1031   1.405   .     A
C1019  C1025   1.441   .     S
C1020  C1030   1.405   .     A
C1021  N1046   1.363   .     A
C1021  H1035   1.082   .     S
C1022  H1037   1.082   .     S
C1022  N1045   1.363   .     A
C1022  C196    1.421   1_556 S
C1023  N1045   1.373   .     A
C1023  N1049   1.429   .     S
C1023  C193    1.421   1_556 S
C1024  N1050   1.429   .     S
C1024  N1046   1.373   .     A
C1025  O1054   1.289   .     A
C1025  O1052   1.290   .     A
C1026  O1057   1.292   .     A
C1026  O1055   1.286   .     A
C1026  C1028   1.442   .     S
C1027  C1029   1.442   .     S
C1027  O1056   1.286   .     A
C1027  O1058   1.292   .     A
C1029  C1074   1.358   .     S
C1029  N1094   1.440   .     S
C1031  C1156   1.395   .     S
C1032  C1168   1.395   .     S
Cu1033 O1051   1.954   .     S
Cu1033 Cu1034  2.683   .     S
Cu1033 N1045   2.016   .     S
Cu1033 O1054   1.952   .     S
Cu1033 O1058   1.981   .     S
Cu1033 O1055   1.981   .     S
Cu1034 O1052   1.954   .     S
Cu1034 N1046   2.016   .     S
Cu1034 O1053   1.952   .     S
Cu1034 O1057   1.981   .     S
Cu1034 O1056   1.981   .     S
H1036  N1050   1.045   .     S
H1038  N1047   1.045   .     S
H1040  N1048   1.045   .     S
H1041  N1094   1.045   .     S
H1042  N1049   1.045   .     S
H1043  N1049   1.045   .     S
H1044  N1050   1.046   .     S
N1047  H1085   1.045   .     S
N1047  C1074   1.440   .     S
Br1059 C1076   1.930   .     S
Br1060 C1077   1.930   .     S
Br1061 C1078   1.933   .     S
Br1062 C1064   1.933   .     S
C1063  C1066   1.441   .     S
C1063  O1097   1.290   .     A
C1063  O1099   1.289   .     A
C1064  C1066   1.405   .     A
C1065  C1078   1.405   .     A
C1065  C1077   1.405   .     A
C1065  C1071   1.441   .     S
C1066  C1076   1.405   .     A
C1067  N1092   1.363   .     A
C1067  H1081   1.082   .     S
C1068  H1083   1.082   .     S
C1068  N1091   1.363   .     A
C1068  C242    1.421   1_556 S
C1069  N1091   1.373   .     A
C1069  N1095   1.429   .     S
C1069  C239    1.421   1_556 S
C1070  N1096   1.429   .     S
C1070  N1092   1.373   .     A
C1071  O1100   1.289   .     A
C1071  O1098   1.290   .     A
C1072  O1103   1.292   .     A
C1072  O1101   1.286   .     A
C1072  C1074   1.442   .     S
C1073  C1075   1.442   .     S
C1073  O1102   1.286   .     A
C1073  O1104   1.292   .     A
C1075  C982    1.358   1_655 S
C1075  N1002   1.440   1_655 S
C1077  C1202   1.395   .     S
C1078  C1214   1.395   .     S
Cu1079 O1097   1.954   .     S
Cu1079 Cu1080  2.683   .     S
Cu1079 N1091   2.016   .     S
Cu1079 O1100   1.952   .     S
Cu1079 O1104   1.981   .     S
Cu1079 O1101   1.981   .     S
Cu1080 O1098   1.954   .     S
Cu1080 N1092   2.016   .     S
Cu1080 O1099   1.952   .     S
Cu1080 O1103   1.981   .     S
Cu1080 O1102   1.981   .     S
H1082  N1096   1.045   .     S
H1084  N1093   1.045   .     S
H1086  N1094   1.045   .     S
H1087  N1002   1.045   1_655 S
H1088  N1095   1.045   .     S
H1089  N1095   1.045   .     S
H1090  N1096   1.046   .     S
N1093  H993    1.045   1_655 S
N1093  C982    1.440   1_655 S
Br1105 C1122   1.930   .     S
Br1106 C1123   1.930   .     S
Br1107 C1124   1.933   .     S
Br1108 C1110   1.933   .     S
C1109  C1112   1.441   .     S
C1109  O1143   1.290   .     A
C1109  O1145   1.289   .     A
C1110  C1112   1.405   .     A
C1111  C1124   1.405   .     A
C1111  C1123   1.405   .     A
C1111  C1117   1.441   .     S
C1112  C1122   1.405   .     A
C1113  N1138   1.363   .     A
C1113  H1127   1.082   .     S
C1114  H1129   1.082   .     S
C1114  N1137   1.363   .     A
C1114  C288    1.421   1_556 S
C1115  N1137   1.373   .     A
C1115  N1141   1.429   .     S
C1115  C285    1.421   1_556 S
C1116  N1142   1.429   .     S
C1116  N1138   1.373   .     A
C1117  O1146   1.289   .     A
C1117  O1144   1.290   .     A
C1118  O1149   1.292   .     A
C1118  O1147   1.286   .     A
C1118  C1120   1.442   .     S
C1119  C1121   1.442   .     S
C1119  O1148   1.286   .     A
C1119  O1150   1.292   .     A
C1120  C1213   1.358   1_455 S
C1120  N1231   1.440   1_455 S
C1121  C1166   1.358   .     S
C1121  N1186   1.440   .     S
C1123  C834    1.395   1_565 S
C1124  C846    1.395   1_565 S
Cu1125 O1143   1.954   .     S
Cu1125 Cu1126  2.683   .     S
Cu1125 N1137   2.016   .     S
Cu1125 O1146   1.952   .     S
Cu1125 O1150   1.981   .     S
Cu1125 O1147   1.981   .     S
Cu1126 O1144   1.954   .     S
Cu1126 N1138   2.016   .     S
Cu1126 O1145   1.952   .     S
Cu1126 O1149   1.981   .     S
Cu1126 O1148   1.981   .     S
H1128  N1142   1.045   .     S
H1130  N1139   1.045   .     S
H1131  N1231   1.045   1_455 S
H1132  N1140   1.045   .     S
H1133  N1186   1.045   .     S
H1134  N1141   1.045   .     S
H1135  N1141   1.045   .     S
H1136  N1142   1.046   .     S
N1139  H1177   1.045   .     S
N1139  C1166   1.440   .     S
N1140  H1225   1.045   1_455 S
N1140  C1213   1.440   1_455 S
Br1151 C1168   1.930   .     S
Br1152 C1169   1.930   .     S
Br1153 C1170   1.933   .     S
Br1154 C1156   1.933   .     S
C1155  C1158   1.441   .     S
C1155  O1189   1.290   .     A
C1155  O1191   1.289   .     A
C1156  C1158   1.405   .     A
C1157  C1170   1.405   .     A
C1157  C1169   1.405   .     A
C1157  C1163   1.441   .     S
C1158  C1168   1.405   .     A
C1159  N1184   1.363   .     A
C1159  H1173   1.082   .     S
C1160  H1175   1.082   .     S
C1160  N1183   1.363   .     A
C1160  C334    1.421   1_556 S
C1161  N1183   1.373   .     A
C1161  N1187   1.429   .     S
C1161  C331    1.421   1_556 S
C1162  N1188   1.429   .     S
C1162  N1184   1.373   .     A
C1163  O1192   1.289   .     A
C1163  O1190   1.290   .     A
C1164  O1195   1.292   .     A
C1164  O1193   1.286   .     A
C1164  C1166   1.442   .     S
C1165  C1167   1.442   .     S
C1165  O1194   1.286   .     A
C1165  O1196   1.292   .     A
C1167  C1212   1.358   .     S
C1167  N1232   1.440   .     S
C1169  C880    1.395   1_565 S
C1170  C892    1.395   1_565 S
Cu1171 O1189   1.954   .     S
Cu1171 Cu1172  2.683   .     S
Cu1171 N1183   2.016   .     S
Cu1171 O1192   1.952   .     S
Cu1171 O1196   1.981   .     S
Cu1171 O1193   1.981   .     S
Cu1172 O1190   1.954   .     S
Cu1172 N1184   2.016   .     S
Cu1172 O1191   1.952   .     S
Cu1172 O1195   1.981   .     S
Cu1172 O1194   1.981   .     S
H1174  N1188   1.045   .     S
H1176  N1185   1.045   .     S
H1178  N1186   1.045   .     S
H1179  N1232   1.045   .     S
H1180  N1187   1.045   .     S
H1181  N1187   1.045   .     S
H1182  N1188   1.046   .     S
N1185  H1223   1.045   .     S
N1185  C1212   1.440   .     S
Br1197 C1214   1.930   .     S
Br1198 C1215   1.930   .     S
Br1199 C1216   1.933   .     S
Br1200 C1202   1.933   .     S
C1201  C1204   1.441   .     S
C1201  O1235   1.290   .     A
C1201  O1237   1.289   .     A
C1202  C1204   1.405   .     A
C1203  C1216   1.405   .     A
C1203  C1215   1.405   .     A
C1203  C1209   1.441   .     S
C1204  C1214   1.405   .     A
C1205  N1230   1.363   .     A
C1205  H1219   1.082   .     S
C1206  H1221   1.082   .     S
C1206  N1229   1.363   .     A
C1206  C380    1.421   1_556 S
C1207  N1229   1.373   .     A
C1207  N1233   1.429   .     S
C1207  C377    1.421   1_556 S
C1208  N1234   1.429   .     S
C1208  N1230   1.373   .     A
C1209  O1238   1.289   .     A
C1209  O1236   1.290   .     A
C1210  O1241   1.292   .     A
C1210  O1239   1.286   .     A
C1210  C1212   1.442   .     S
C1211  C1213   1.442   .     S
C1211  O1240   1.286   .     A
C1211  O1242   1.292   .     A
C1213  C1120   1.358   1_655 S
C1213  N1140   1.440   1_655 S
C1215  C926    1.395   1_565 S
C1216  C938    1.395   1_565 S
Cu1217 O1235   1.954   .     S
Cu1217 Cu1218  2.683   .     S
Cu1217 N1229   2.016   .     S
Cu1217 O1238   1.952   .     S
Cu1217 O1242   1.981   .     S
Cu1217 O1239   1.981   .     S
Cu1218 O1236   1.954   .     S
Cu1218 N1230   2.016   .     S
Cu1218 O1237   1.952   .     S
Cu1218 O1241   1.981   .     S
Cu1218 O1240   1.981   .     S
H1220  N1234   1.045   .     S
H1222  N1231   1.045   .     S
H1224  N1232   1.045   .     S
H1225  N1140   1.045   1_655 S
H1226  N1233   1.045   .     S
H1227  N1233   1.045   .     S
H1228  N1234   1.046   .     S
N1231  H1131   1.045   1_655 S
N1231  C1120   1.440   1_655 S
