data_str_m3_o1_o17_pcu_sym.57
_audit_creation_date              2020-01-03
_audit_creation_method            'Materials Studio'
_symmetry_space_group_name_H-M    'P1'
_symmetry_Int_Tables_number       1
_symmetry_cell_setting            triclinic
loop_
_symmetry_equiv_pos_as_xyz
  x,y,z
_cell_length_a                    32.1538
_cell_length_b                    29.4658
_cell_length_c                    30.0307
_cell_angle_alpha                 89.9198
_cell_angle_beta                  90.0942
_cell_angle_gamma                 89.9822
loop_
_atom_site_label
_atom_site_type_symbol
_atom_site_fract_x
_atom_site_fract_y
_atom_site_fract_z
_atom_site_U_iso_or_equiv
_atom_site_adp_type
_atom_site_occupancy
C1     C     0.08661   0.16667   0.24996   0.00000  Uiso   1.00
C2     C     0.04247   0.16668   0.24995   0.00000  Uiso   1.00
C3     C     0.19104   0.02395   0.27922   0.00000  Uiso   1.00
C4     C     0.14229   0.30938   0.22078   0.00000  Uiso   1.00
C5     C     0.14229   0.02406   0.22078   0.00000  Uiso   1.00
C6     C     0.19104   0.30928   0.27922   0.00000  Uiso   1.00
C7     C     0.16642   0.16669   0.16327   0.00000  Uiso   1.00
C8     C     0.16691   0.16664   0.33673   0.00000  Uiso   1.00
C9     C     0.17628   0.20684   0.40737   0.00000  Uiso   1.00
C10    C     0.15706   0.12649   0.09263   0.00000  Uiso   1.00
C11    C     0.16782   0.16659   0.38465   0.00000  Uiso   1.00
C12    C     0.24673   0.16666   0.25004   0.00000  Uiso   1.00
C13    C     0.16551   0.16675   0.11535   0.00000  Uiso   1.00
C14    C     0.16005   0.12636   0.40751   0.00000  Uiso   1.00
C15    C     0.17329   0.20698   0.09249   0.00000  Uiso   1.00
C16    C     0.15920   0.12630   0.45348   0.00000  Uiso   1.00
C17    C     0.17414   0.20703   0.04652   0.00000  Uiso   1.00
C18    C     0.16760   0.16679   0.47682   0.00000  Uiso   1.00
C19    C     0.16574   0.16654   0.02318   0.00000  Uiso   1.00
C20    C     0.17770   0.20744   0.45371   0.00000  Uiso   1.00
C21    C     0.15563   0.12590   0.04629   0.00000  Uiso   1.00
C22    C     0.14895   0.08641   0.47605   0.00000  Uiso   1.00
C23    C     0.14594   0.08579   0.02229   0.00000  Uiso   1.00
C24    C     0.18438   0.24692   0.02395   0.00000  Uiso   1.00
C25    C     0.13129   0.04283   0.04296   0.00000  Uiso   1.00
C26    C     0.20204   0.29051   0.45704   0.00000  Uiso   1.00
C27    C     0.18740   0.24754   0.47771   0.00000  Uiso   1.00
C28    C     0.02130   0.12624   0.24127   0.00000  Uiso   1.00
C29    C     0.31203   0.20709   0.25873   0.00000  Uiso   1.00
C30    C     0.31203   0.12623   0.24133   0.00000  Uiso   1.00
C31    C     0.02130   0.20711   0.25867   0.00000  Uiso   1.00
C32    C     0.29086   0.16666   0.25005   0.00000  Uiso   1.00
H33    H     0.18086   0.23757   0.38843   0.00000  Uiso   1.00
H34    H     0.03754   0.23852   0.26570   0.00000  Uiso   1.00
H35    H     0.21052   0.04215   0.30255   0.00000  Uiso   1.00
H36    H     0.12281   0.29118   0.19745   0.00000  Uiso   1.00
H37    H     0.12282   0.04234   0.19744   0.00000  Uiso   1.00
H38    H     0.21052   0.29100   0.30256   0.00000  Uiso   1.00
H39    H     0.13801   0.01072   0.02684   0.00000  Uiso   1.00
H40    H     0.19533   0.32262   0.47316   0.00000  Uiso   1.00
H41    H     0.15247   0.09577   0.11157   0.00000  Uiso   1.00
H42    H     0.15338   0.09528   0.38952   0.00000  Uiso   1.00
H43    H     0.17995   0.23805   0.11048   0.00000  Uiso   1.00
H44    H     0.14186   0.05587   0.45733   0.00000  Uiso   1.00
H45    H     0.19148   0.27746   0.04267   0.00000  Uiso   1.00
H46    H     0.03753   0.09484   0.23419   0.00000  Uiso   1.00
H47    H     0.29580   0.23850   0.26581   0.00000  Uiso   1.00
H48    H     0.29580   0.09481   0.23430   0.00000  Uiso   1.00
N49    N     0.16667   0.28573   0.25000   0.00000  Uiso   1.00
N50    N     0.16667   0.04760   0.25000   0.00000  Uiso   1.00
O51    O     0.10559   0.20487   0.24999   0.00000  Uiso   1.00
O52    O     0.22403   0.29061   0.42396   0.00000  Uiso   1.00
O53    O     0.22774   0.12846   0.25001   0.00000  Uiso   1.00
O54    O     0.22774   0.20487   0.25001   0.00000  Uiso   1.00
O55    O     0.10559   0.12846   0.24999   0.00000  Uiso   1.00
O56    O     0.16666   0.20489   0.18392   0.00000  Uiso   1.00
O57    O     0.16667   0.12844   0.31607   0.00000  Uiso   1.00
O58    O     0.16667   0.20489   0.31607   0.00000  Uiso   1.00
O59    O     0.16666   0.12844   0.18393   0.00000  Uiso   1.00
O60    O     0.10930   0.04273   0.07604   0.00000  Uiso   1.00
Zn61   Zn    0.16667   0.21771   0.25000   0.00000  Uiso   1.00
Zn62   Zn    0.16667   0.11563   0.25000   0.00000  Uiso   1.00
C63    C     0.41994   0.16667   0.24996   0.00000  Uiso   1.00
C64    C     0.37580   0.16668   0.24995   0.00000  Uiso   1.00
C65    C     0.52438   0.02395   0.27922   0.00000  Uiso   1.00
C66    C     0.47562   0.30938   0.22078   0.00000  Uiso   1.00
C67    C     0.47562   0.02406   0.22078   0.00000  Uiso   1.00
C68    C     0.52438   0.30928   0.27922   0.00000  Uiso   1.00
C69    C     0.49975   0.16669   0.16327   0.00000  Uiso   1.00
C70    C     0.50025   0.16664   0.33673   0.00000  Uiso   1.00
C71    C     0.50961   0.20684   0.40737   0.00000  Uiso   1.00
C72    C     0.49039   0.12649   0.09263   0.00000  Uiso   1.00
C73    C     0.50116   0.16659   0.38465   0.00000  Uiso   1.00
C74    C     0.58006   0.16666   0.25004   0.00000  Uiso   1.00
C75    C     0.49884   0.16675   0.11535   0.00000  Uiso   1.00
C76    C     0.49338   0.12636   0.40751   0.00000  Uiso   1.00
C77    C     0.50662   0.20698   0.09249   0.00000  Uiso   1.00
C78    C     0.49253   0.12630   0.45348   0.00000  Uiso   1.00
C79    C     0.50747   0.20703   0.04652   0.00000  Uiso   1.00
C80    C     0.50093   0.16679   0.47682   0.00000  Uiso   1.00
C81    C     0.49907   0.16654   0.02318   0.00000  Uiso   1.00
C82    C     0.51104   0.20744   0.45371   0.00000  Uiso   1.00
C83    C     0.48896   0.12590   0.04629   0.00000  Uiso   1.00
C84    C     0.48228   0.08641   0.47605   0.00000  Uiso   1.00
C85    C     0.47927   0.08579   0.02229   0.00000  Uiso   1.00
C86    C     0.51772   0.24692   0.02395   0.00000  Uiso   1.00
C87    C     0.46463   0.04283   0.04296   0.00000  Uiso   1.00
C88    C     0.53538   0.29051   0.45704   0.00000  Uiso   1.00
C89    C     0.52073   0.24754   0.47771   0.00000  Uiso   1.00
C90    C     0.35463   0.12624   0.24127   0.00000  Uiso   1.00
C91    C     0.64537   0.20709   0.25873   0.00000  Uiso   1.00
C92    C     0.64536   0.12623   0.24133   0.00000  Uiso   1.00
C93    C     0.35464   0.20711   0.25867   0.00000  Uiso   1.00
C94    C     0.62420   0.16666   0.25005   0.00000  Uiso   1.00
H95    H     0.51419   0.23757   0.38843   0.00000  Uiso   1.00
H96    H     0.37087   0.23852   0.26570   0.00000  Uiso   1.00
H97    H     0.54385   0.04215   0.30255   0.00000  Uiso   1.00
H98    H     0.45615   0.29118   0.19745   0.00000  Uiso   1.00
H99    H     0.45615   0.04234   0.19744   0.00000  Uiso   1.00
H100   H     0.54385   0.29100   0.30256   0.00000  Uiso   1.00
H101   H     0.47134   0.01072   0.02684   0.00000  Uiso   1.00
H102   H     0.52866   0.32262   0.47316   0.00000  Uiso   1.00
H103   H     0.48581   0.09577   0.11157   0.00000  Uiso   1.00
H104   H     0.48672   0.09528   0.38952   0.00000  Uiso   1.00
H105   H     0.51328   0.23805   0.11048   0.00000  Uiso   1.00
H106   H     0.47519   0.05587   0.45733   0.00000  Uiso   1.00
H107   H     0.52481   0.27746   0.04267   0.00000  Uiso   1.00
H108   H     0.37086   0.09484   0.23419   0.00000  Uiso   1.00
H109   H     0.62914   0.23850   0.26581   0.00000  Uiso   1.00
H110   H     0.62913   0.09481   0.23430   0.00000  Uiso   1.00
N111   N     0.50000   0.28573   0.25000   0.00000  Uiso   1.00
N112   N     0.50000   0.04760   0.25000   0.00000  Uiso   1.00
O113   O     0.43892   0.20487   0.24999   0.00000  Uiso   1.00
O114   O     0.55737   0.29061   0.42396   0.00000  Uiso   1.00
O115   O     0.56108   0.12846   0.25001   0.00000  Uiso   1.00
O116   O     0.56108   0.20487   0.25001   0.00000  Uiso   1.00
O117   O     0.43892   0.12846   0.24999   0.00000  Uiso   1.00
O118   O     0.49999   0.20489   0.18392   0.00000  Uiso   1.00
O119   O     0.50001   0.12844   0.31607   0.00000  Uiso   1.00
O120   O     0.50001   0.20489   0.31607   0.00000  Uiso   1.00
O121   O     0.49999   0.12844   0.18393   0.00000  Uiso   1.00
O122   O     0.44263   0.04273   0.07604   0.00000  Uiso   1.00
Zn123  Zn    0.50000   0.21771   0.25000   0.00000  Uiso   1.00
Zn124  Zn    0.50000   0.11563   0.25000   0.00000  Uiso   1.00
C125   C     0.75327   0.16667   0.24996   0.00000  Uiso   1.00
C126   C     0.70914   0.16668   0.24995   0.00000  Uiso   1.00
C127   C     0.85771   0.02395   0.27922   0.00000  Uiso   1.00
C128   C     0.80895   0.30938   0.22078   0.00000  Uiso   1.00
C129   C     0.80896   0.02406   0.22078   0.00000  Uiso   1.00
C130   C     0.85771   0.30928   0.27922   0.00000  Uiso   1.00
C131   C     0.83309   0.16669   0.16327   0.00000  Uiso   1.00
C132   C     0.83358   0.16664   0.33673   0.00000  Uiso   1.00
C133   C     0.84294   0.20684   0.40737   0.00000  Uiso   1.00
C134   C     0.82372   0.12649   0.09263   0.00000  Uiso   1.00
C135   C     0.83449   0.16659   0.38465   0.00000  Uiso   1.00
C136   C     0.91339   0.16666   0.25004   0.00000  Uiso   1.00
C137   C     0.83218   0.16675   0.11535   0.00000  Uiso   1.00
C138   C     0.82671   0.12636   0.40751   0.00000  Uiso   1.00
C139   C     0.83996   0.20698   0.09249   0.00000  Uiso   1.00
C140   C     0.82586   0.12630   0.45348   0.00000  Uiso   1.00
C141   C     0.84080   0.20703   0.04652   0.00000  Uiso   1.00
C142   C     0.83427   0.16679   0.47682   0.00000  Uiso   1.00
C143   C     0.83240   0.16654   0.02318   0.00000  Uiso   1.00
C144   C     0.84437   0.20744   0.45371   0.00000  Uiso   1.00
C145   C     0.82230   0.12590   0.04629   0.00000  Uiso   1.00
C146   C     0.81562   0.08641   0.47605   0.00000  Uiso   1.00
C147   C     0.81260   0.08579   0.02229   0.00000  Uiso   1.00
C148   C     0.85105   0.24692   0.02395   0.00000  Uiso   1.00
C149   C     0.79796   0.04283   0.04296   0.00000  Uiso   1.00
C150   C     0.86871   0.29051   0.45704   0.00000  Uiso   1.00
C151   C     0.85407   0.24754   0.47771   0.00000  Uiso   1.00
C152   C     0.68797   0.12624   0.24127   0.00000  Uiso   1.00
C153   C     0.97870   0.20709   0.25873   0.00000  Uiso   1.00
C154   C     0.97870   0.12623   0.24133   0.00000  Uiso   1.00
C155   C     0.68797   0.20711   0.25867   0.00000  Uiso   1.00
C156   C     0.95753   0.16666   0.25005   0.00000  Uiso   1.00
H157   H     0.84753   0.23757   0.38843   0.00000  Uiso   1.00
H158   H     0.70420   0.23852   0.26570   0.00000  Uiso   1.00
H159   H     0.87719   0.04215   0.30255   0.00000  Uiso   1.00
H160   H     0.78948   0.29118   0.19745   0.00000  Uiso   1.00
H161   H     0.78948   0.04234   0.19744   0.00000  Uiso   1.00
H162   H     0.87718   0.29100   0.30256   0.00000  Uiso   1.00
H163   H     0.80468   0.01072   0.02684   0.00000  Uiso   1.00
H164   H     0.86200   0.32262   0.47316   0.00000  Uiso   1.00
H165   H     0.81914   0.09577   0.11157   0.00000  Uiso   1.00
H166   H     0.82005   0.09528   0.38952   0.00000  Uiso   1.00
H167   H     0.84662   0.23805   0.11048   0.00000  Uiso   1.00
H168   H     0.80853   0.05587   0.45733   0.00000  Uiso   1.00
H169   H     0.85814   0.27746   0.04267   0.00000  Uiso   1.00
H170   H     0.70420   0.09484   0.23419   0.00000  Uiso   1.00
H171   H     0.96247   0.23850   0.26581   0.00000  Uiso   1.00
H172   H     0.96246   0.09481   0.23430   0.00000  Uiso   1.00
N173   N     0.83333   0.28573   0.25000   0.00000  Uiso   1.00
N174   N     0.83333   0.04760   0.25000   0.00000  Uiso   1.00
O175   O     0.77226   0.20487   0.24999   0.00000  Uiso   1.00
O176   O     0.89070   0.29061   0.42396   0.00000  Uiso   1.00
O177   O     0.89441   0.12846   0.25001   0.00000  Uiso   1.00
O178   O     0.89441   0.20487   0.25001   0.00000  Uiso   1.00
O179   O     0.77226   0.12846   0.24999   0.00000  Uiso   1.00
O180   O     0.83333   0.20489   0.18392   0.00000  Uiso   1.00
O181   O     0.83334   0.12844   0.31607   0.00000  Uiso   1.00
O182   O     0.83334   0.20489   0.31607   0.00000  Uiso   1.00
O183   O     0.83333   0.12844   0.18393   0.00000  Uiso   1.00
O184   O     0.77597   0.04273   0.07604   0.00000  Uiso   1.00
Zn185  Zn    0.83333   0.21771   0.25000   0.00000  Uiso   1.00
Zn186  Zn    0.83333   0.11563   0.25000   0.00000  Uiso   1.00
C187   C     0.08661   0.50001   0.24996   0.00000  Uiso   1.00
C188   C     0.04247   0.50001   0.24995   0.00000  Uiso   1.00
C189   C     0.19104   0.35729   0.27922   0.00000  Uiso   1.00
C190   C     0.14229   0.64271   0.22078   0.00000  Uiso   1.00
C191   C     0.14229   0.35739   0.22078   0.00000  Uiso   1.00
C192   C     0.19104   0.64261   0.27922   0.00000  Uiso   1.00
C193   C     0.16642   0.50002   0.16327   0.00000  Uiso   1.00
C194   C     0.16691   0.49998   0.33673   0.00000  Uiso   1.00
C195   C     0.17628   0.54017   0.40737   0.00000  Uiso   1.00
C196   C     0.15706   0.45983   0.09263   0.00000  Uiso   1.00
C197   C     0.16782   0.49992   0.38465   0.00000  Uiso   1.00
C198   C     0.24673   0.49999   0.25004   0.00000  Uiso   1.00
C199   C     0.16551   0.50008   0.11535   0.00000  Uiso   1.00
C200   C     0.16005   0.45969   0.40751   0.00000  Uiso   1.00
C201   C     0.17329   0.54031   0.09249   0.00000  Uiso   1.00
C202   C     0.15920   0.45964   0.45348   0.00000  Uiso   1.00
C203   C     0.17414   0.54036   0.04652   0.00000  Uiso   1.00
C204   C     0.16760   0.50013   0.47682   0.00000  Uiso   1.00
C205   C     0.16574   0.49987   0.02318   0.00000  Uiso   1.00
C206   C     0.17770   0.54077   0.45371   0.00000  Uiso   1.00
C207   C     0.15563   0.45923   0.04629   0.00000  Uiso   1.00
C208   C     0.14895   0.41974   0.47605   0.00000  Uiso   1.00
C209   C     0.14594   0.41913   0.02229   0.00000  Uiso   1.00
C210   C     0.18438   0.58026   0.02395   0.00000  Uiso   1.00
C211   C     0.13129   0.37616   0.04296   0.00000  Uiso   1.00
C212   C     0.20204   0.62384   0.45704   0.00000  Uiso   1.00
C213   C     0.18740   0.58087   0.47771   0.00000  Uiso   1.00
C214   C     0.02130   0.45957   0.24127   0.00000  Uiso   1.00
C215   C     0.31203   0.54043   0.25873   0.00000  Uiso   1.00
C216   C     0.31203   0.45956   0.24133   0.00000  Uiso   1.00
C217   C     0.02130   0.54044   0.25867   0.00000  Uiso   1.00
C218   C     0.29086   0.49999   0.25005   0.00000  Uiso   1.00
H219   H     0.18086   0.57090   0.38843   0.00000  Uiso   1.00
H220   H     0.03754   0.57185   0.26570   0.00000  Uiso   1.00
H221   H     0.21052   0.37548   0.30255   0.00000  Uiso   1.00
H222   H     0.12281   0.62452   0.19745   0.00000  Uiso   1.00
H223   H     0.12282   0.37567   0.19744   0.00000  Uiso   1.00
H224   H     0.21052   0.62433   0.30256   0.00000  Uiso   1.00
H225   H     0.13801   0.34405   0.02684   0.00000  Uiso   1.00
H226   H     0.19533   0.65595   0.47316   0.00000  Uiso   1.00
H227   H     0.15247   0.42910   0.11157   0.00000  Uiso   1.00
H228   H     0.15338   0.42861   0.38952   0.00000  Uiso   1.00
H229   H     0.17995   0.57139   0.11048   0.00000  Uiso   1.00
H230   H     0.14186   0.38921   0.45733   0.00000  Uiso   1.00
H231   H     0.19148   0.61079   0.04267   0.00000  Uiso   1.00
H232   H     0.03753   0.42817   0.23419   0.00000  Uiso   1.00
H233   H     0.29580   0.57183   0.26581   0.00000  Uiso   1.00
H234   H     0.29580   0.42815   0.23430   0.00000  Uiso   1.00
N235   N     0.16667   0.61907   0.25000   0.00000  Uiso   1.00
N236   N     0.16667   0.38093   0.25000   0.00000  Uiso   1.00
O237   O     0.10559   0.53821   0.24999   0.00000  Uiso   1.00
O238   O     0.22403   0.62394   0.42396   0.00000  Uiso   1.00
O239   O     0.22774   0.46179   0.25001   0.00000  Uiso   1.00
O240   O     0.22774   0.53821   0.25001   0.00000  Uiso   1.00
O241   O     0.10559   0.46179   0.24999   0.00000  Uiso   1.00
O242   O     0.16666   0.53823   0.18392   0.00000  Uiso   1.00
O243   O     0.16667   0.46177   0.31607   0.00000  Uiso   1.00
O244   O     0.16667   0.53823   0.31607   0.00000  Uiso   1.00
O245   O     0.16666   0.46177   0.18393   0.00000  Uiso   1.00
O246   O     0.10930   0.37606   0.07604   0.00000  Uiso   1.00
Zn247  Zn    0.16667   0.55104   0.25000   0.00000  Uiso   1.00
Zn248  Zn    0.16667   0.44896   0.25000   0.00000  Uiso   1.00
C249   C     0.41994   0.50001   0.24996   0.00000  Uiso   1.00
C250   C     0.37580   0.50001   0.24995   0.00000  Uiso   1.00
C251   C     0.52438   0.35729   0.27922   0.00000  Uiso   1.00
C252   C     0.47562   0.64271   0.22078   0.00000  Uiso   1.00
C253   C     0.47562   0.35739   0.22078   0.00000  Uiso   1.00
C254   C     0.52438   0.64261   0.27922   0.00000  Uiso   1.00
C255   C     0.49975   0.50002   0.16327   0.00000  Uiso   1.00
C256   C     0.50025   0.49998   0.33673   0.00000  Uiso   1.00
C257   C     0.50961   0.54017   0.40737   0.00000  Uiso   1.00
C258   C     0.49039   0.45983   0.09263   0.00000  Uiso   1.00
C259   C     0.50116   0.49992   0.38465   0.00000  Uiso   1.00
C260   C     0.58006   0.49999   0.25004   0.00000  Uiso   1.00
C261   C     0.49884   0.50008   0.11535   0.00000  Uiso   1.00
C262   C     0.49338   0.45969   0.40751   0.00000  Uiso   1.00
C263   C     0.50662   0.54031   0.09249   0.00000  Uiso   1.00
C264   C     0.49253   0.45964   0.45348   0.00000  Uiso   1.00
C265   C     0.50747   0.54036   0.04652   0.00000  Uiso   1.00
C266   C     0.50093   0.50013   0.47682   0.00000  Uiso   1.00
C267   C     0.49907   0.49987   0.02318   0.00000  Uiso   1.00
C268   C     0.51104   0.54077   0.45371   0.00000  Uiso   1.00
C269   C     0.48896   0.45923   0.04629   0.00000  Uiso   1.00
C270   C     0.48228   0.41974   0.47605   0.00000  Uiso   1.00
C271   C     0.47927   0.41913   0.02229   0.00000  Uiso   1.00
C272   C     0.51772   0.58026   0.02395   0.00000  Uiso   1.00
C273   C     0.46463   0.37616   0.04296   0.00000  Uiso   1.00
C274   C     0.53538   0.62384   0.45704   0.00000  Uiso   1.00
C275   C     0.52073   0.58087   0.47771   0.00000  Uiso   1.00
C276   C     0.35463   0.45957   0.24127   0.00000  Uiso   1.00
C277   C     0.64537   0.54043   0.25873   0.00000  Uiso   1.00
C278   C     0.64536   0.45956   0.24133   0.00000  Uiso   1.00
C279   C     0.35464   0.54044   0.25867   0.00000  Uiso   1.00
C280   C     0.62420   0.49999   0.25005   0.00000  Uiso   1.00
H281   H     0.51419   0.57090   0.38843   0.00000  Uiso   1.00
H282   H     0.37087   0.57185   0.26570   0.00000  Uiso   1.00
H283   H     0.54385   0.37548   0.30255   0.00000  Uiso   1.00
H284   H     0.45615   0.62452   0.19745   0.00000  Uiso   1.00
H285   H     0.45615   0.37567   0.19744   0.00000  Uiso   1.00
H286   H     0.54385   0.62433   0.30256   0.00000  Uiso   1.00
H287   H     0.47134   0.34405   0.02684   0.00000  Uiso   1.00
H288   H     0.52866   0.65595   0.47316   0.00000  Uiso   1.00
H289   H     0.48581   0.42910   0.11157   0.00000  Uiso   1.00
H290   H     0.48672   0.42861   0.38952   0.00000  Uiso   1.00
H291   H     0.51328   0.57139   0.11048   0.00000  Uiso   1.00
H292   H     0.47519   0.38921   0.45733   0.00000  Uiso   1.00
H293   H     0.52481   0.61079   0.04267   0.00000  Uiso   1.00
H294   H     0.37086   0.42817   0.23419   0.00000  Uiso   1.00
H295   H     0.62914   0.57183   0.26581   0.00000  Uiso   1.00
H296   H     0.62913   0.42815   0.23430   0.00000  Uiso   1.00
N297   N     0.50000   0.61907   0.25000   0.00000  Uiso   1.00
N298   N     0.50000   0.38093   0.25000   0.00000  Uiso   1.00
O299   O     0.43892   0.53821   0.24999   0.00000  Uiso   1.00
O300   O     0.55737   0.62394   0.42396   0.00000  Uiso   1.00
O301   O     0.56108   0.46179   0.25001   0.00000  Uiso   1.00
O302   O     0.56108   0.53821   0.25001   0.00000  Uiso   1.00
O303   O     0.43892   0.46179   0.24999   0.00000  Uiso   1.00
O304   O     0.49999   0.53823   0.18392   0.00000  Uiso   1.00
O305   O     0.50001   0.46177   0.31607   0.00000  Uiso   1.00
O306   O     0.50001   0.53823   0.31607   0.00000  Uiso   1.00
O307   O     0.49999   0.46177   0.18393   0.00000  Uiso   1.00
O308   O     0.44263   0.37606   0.07604   0.00000  Uiso   1.00
Zn309  Zn    0.50000   0.55104   0.25000   0.00000  Uiso   1.00
Zn310  Zn    0.50000   0.44896   0.25000   0.00000  Uiso   1.00
C311   C     0.75327   0.50001   0.24996   0.00000  Uiso   1.00
C312   C     0.70914   0.50001   0.24995   0.00000  Uiso   1.00
C313   C     0.85771   0.35729   0.27922   0.00000  Uiso   1.00
C314   C     0.80895   0.64271   0.22078   0.00000  Uiso   1.00
C315   C     0.80896   0.35739   0.22078   0.00000  Uiso   1.00
C316   C     0.85771   0.64261   0.27922   0.00000  Uiso   1.00
C317   C     0.83309   0.50002   0.16327   0.00000  Uiso   1.00
C318   C     0.83358   0.49998   0.33673   0.00000  Uiso   1.00
C319   C     0.84294   0.54017   0.40737   0.00000  Uiso   1.00
C320   C     0.82372   0.45983   0.09263   0.00000  Uiso   1.00
C321   C     0.83449   0.49992   0.38465   0.00000  Uiso   1.00
C322   C     0.91339   0.49999   0.25004   0.00000  Uiso   1.00
C323   C     0.83218   0.50008   0.11535   0.00000  Uiso   1.00
C324   C     0.82671   0.45969   0.40751   0.00000  Uiso   1.00
C325   C     0.83996   0.54031   0.09249   0.00000  Uiso   1.00
C326   C     0.82586   0.45964   0.45348   0.00000  Uiso   1.00
C327   C     0.84080   0.54036   0.04652   0.00000  Uiso   1.00
C328   C     0.83427   0.50013   0.47682   0.00000  Uiso   1.00
C329   C     0.83240   0.49987   0.02318   0.00000  Uiso   1.00
C330   C     0.84437   0.54077   0.45371   0.00000  Uiso   1.00
C331   C     0.82230   0.45923   0.04629   0.00000  Uiso   1.00
C332   C     0.81562   0.41974   0.47605   0.00000  Uiso   1.00
C333   C     0.81260   0.41913   0.02229   0.00000  Uiso   1.00
C334   C     0.85105   0.58026   0.02395   0.00000  Uiso   1.00
C335   C     0.79796   0.37616   0.04296   0.00000  Uiso   1.00
C336   C     0.86871   0.62384   0.45704   0.00000  Uiso   1.00
C337   C     0.85407   0.58087   0.47771   0.00000  Uiso   1.00
C338   C     0.68797   0.45957   0.24127   0.00000  Uiso   1.00
C339   C     0.97870   0.54043   0.25873   0.00000  Uiso   1.00
C340   C     0.97870   0.45956   0.24133   0.00000  Uiso   1.00
C341   C     0.68797   0.54044   0.25867   0.00000  Uiso   1.00
C342   C     0.95753   0.49999   0.25005   0.00000  Uiso   1.00
H343   H     0.84753   0.57090   0.38843   0.00000  Uiso   1.00
H344   H     0.70420   0.57185   0.26570   0.00000  Uiso   1.00
H345   H     0.87719   0.37548   0.30255   0.00000  Uiso   1.00
H346   H     0.78948   0.62452   0.19745   0.00000  Uiso   1.00
H347   H     0.78948   0.37567   0.19744   0.00000  Uiso   1.00
H348   H     0.87718   0.62433   0.30256   0.00000  Uiso   1.00
H349   H     0.80468   0.34405   0.02684   0.00000  Uiso   1.00
H350   H     0.86200   0.65595   0.47316   0.00000  Uiso   1.00
H351   H     0.81914   0.42910   0.11157   0.00000  Uiso   1.00
H352   H     0.82005   0.42861   0.38952   0.00000  Uiso   1.00
H353   H     0.84662   0.57139   0.11048   0.00000  Uiso   1.00
H354   H     0.80853   0.38921   0.45733   0.00000  Uiso   1.00
H355   H     0.85814   0.61079   0.04267   0.00000  Uiso   1.00
H356   H     0.70420   0.42817   0.23419   0.00000  Uiso   1.00
H357   H     0.96247   0.57183   0.26581   0.00000  Uiso   1.00
H358   H     0.96246   0.42815   0.23430   0.00000  Uiso   1.00
N359   N     0.83333   0.61907   0.25000   0.00000  Uiso   1.00
N360   N     0.83333   0.38093   0.25000   0.00000  Uiso   1.00
O361   O     0.77226   0.53821   0.24999   0.00000  Uiso   1.00
O362   O     0.89070   0.62394   0.42396   0.00000  Uiso   1.00
O363   O     0.89441   0.46179   0.25001   0.00000  Uiso   1.00
O364   O     0.89441   0.53821   0.25001   0.00000  Uiso   1.00
O365   O     0.77226   0.46179   0.24999   0.00000  Uiso   1.00
O366   O     0.83333   0.53823   0.18392   0.00000  Uiso   1.00
O367   O     0.83334   0.46177   0.31607   0.00000  Uiso   1.00
O368   O     0.83334   0.53823   0.31607   0.00000  Uiso   1.00
O369   O     0.83333   0.46177   0.18393   0.00000  Uiso   1.00
O370   O     0.77597   0.37606   0.07604   0.00000  Uiso   1.00
Zn371  Zn    0.83333   0.55104   0.25000   0.00000  Uiso   1.00
Zn372  Zn    0.83333   0.44896   0.25000   0.00000  Uiso   1.00
C373   C     0.08661   0.83334   0.24996   0.00000  Uiso   1.00
C374   C     0.04247   0.83334   0.24995   0.00000  Uiso   1.00
C375   C     0.19104   0.69062   0.27922   0.00000  Uiso   1.00
C376   C     0.14229   0.97605   0.22078   0.00000  Uiso   1.00
C377   C     0.14229   0.69072   0.22078   0.00000  Uiso   1.00
C378   C     0.19104   0.97594   0.27922   0.00000  Uiso   1.00
C379   C     0.16642   0.83336   0.16327   0.00000  Uiso   1.00
C380   C     0.16691   0.83331   0.33673   0.00000  Uiso   1.00
C381   C     0.17628   0.87350   0.40737   0.00000  Uiso   1.00
C382   C     0.15706   0.79316   0.09263   0.00000  Uiso   1.00
C383   C     0.16782   0.83325   0.38465   0.00000  Uiso   1.00
C384   C     0.24673   0.83333   0.25004   0.00000  Uiso   1.00
C385   C     0.16551   0.83341   0.11535   0.00000  Uiso   1.00
C386   C     0.16005   0.79302   0.40751   0.00000  Uiso   1.00
C387   C     0.17329   0.87364   0.09249   0.00000  Uiso   1.00
C388   C     0.15920   0.79297   0.45348   0.00000  Uiso   1.00
C389   C     0.17414   0.87370   0.04652   0.00000  Uiso   1.00
C390   C     0.16760   0.83346   0.47682   0.00000  Uiso   1.00
C391   C     0.16574   0.83321   0.02318   0.00000  Uiso   1.00
C392   C     0.17770   0.87410   0.45371   0.00000  Uiso   1.00
C393   C     0.15563   0.79256   0.04629   0.00000  Uiso   1.00
C394   C     0.14895   0.75308   0.47605   0.00000  Uiso   1.00
C395   C     0.14594   0.75246   0.02229   0.00000  Uiso   1.00
C396   C     0.18438   0.91359   0.02395   0.00000  Uiso   1.00
C397   C     0.13129   0.70949   0.04296   0.00000  Uiso   1.00
C398   C     0.20204   0.95717   0.45704   0.00000  Uiso   1.00
C399   C     0.18740   0.91421   0.47771   0.00000  Uiso   1.00
C400   C     0.02130   0.79291   0.24127   0.00000  Uiso   1.00
C401   C     0.31203   0.87376   0.25873   0.00000  Uiso   1.00
C402   C     0.31203   0.79289   0.24133   0.00000  Uiso   1.00
C403   C     0.02130   0.87377   0.25867   0.00000  Uiso   1.00
C404   C     0.29086   0.83332   0.25005   0.00000  Uiso   1.00
H405   H     0.18086   0.90423   0.38843   0.00000  Uiso   1.00
H406   H     0.03754   0.90519   0.26570   0.00000  Uiso   1.00
H407   H     0.21052   0.70882   0.30255   0.00000  Uiso   1.00
H408   H     0.12281   0.95785   0.19745   0.00000  Uiso   1.00
H409   H     0.12282   0.70900   0.19744   0.00000  Uiso   1.00
H410   H     0.21052   0.95766   0.30256   0.00000  Uiso   1.00
H411   H     0.13801   0.67738   0.02684   0.00000  Uiso   1.00
H412   H     0.19533   0.98928   0.47316   0.00000  Uiso   1.00
H413   H     0.15247   0.76243   0.11157   0.00000  Uiso   1.00
H414   H     0.15338   0.76195   0.38952   0.00000  Uiso   1.00
H415   H     0.17995   0.90472   0.11048   0.00000  Uiso   1.00
H416   H     0.14186   0.72254   0.45733   0.00000  Uiso   1.00
H417   H     0.19148   0.94413   0.04267   0.00000  Uiso   1.00
H418   H     0.03753   0.76150   0.23419   0.00000  Uiso   1.00
H419   H     0.29580   0.90516   0.26581   0.00000  Uiso   1.00
H420   H     0.29580   0.76148   0.23430   0.00000  Uiso   1.00
N421   N     0.16667   0.95240   0.25000   0.00000  Uiso   1.00
N422   N     0.16667   0.71427   0.25000   0.00000  Uiso   1.00
O423   O     0.10559   0.87154   0.24999   0.00000  Uiso   1.00
O424   O     0.22403   0.95727   0.42396   0.00000  Uiso   1.00
O425   O     0.22774   0.79513   0.25001   0.00000  Uiso   1.00
O426   O     0.22774   0.87154   0.25001   0.00000  Uiso   1.00
O427   O     0.10559   0.79513   0.24999   0.00000  Uiso   1.00
O428   O     0.16666   0.87156   0.18392   0.00000  Uiso   1.00
O429   O     0.16667   0.79511   0.31607   0.00000  Uiso   1.00
O430   O     0.16667   0.87156   0.31607   0.00000  Uiso   1.00
O431   O     0.16666   0.79511   0.18393   0.00000  Uiso   1.00
O432   O     0.10930   0.70939   0.07604   0.00000  Uiso   1.00
Zn433  Zn    0.16667   0.88437   0.25000   0.00000  Uiso   1.00
Zn434  Zn    0.16667   0.78229   0.25000   0.00000  Uiso   1.00
C435   C     0.41994   0.83334   0.24996   0.00000  Uiso   1.00
C436   C     0.37580   0.83334   0.24995   0.00000  Uiso   1.00
C437   C     0.52438   0.69062   0.27922   0.00000  Uiso   1.00
C438   C     0.47562   0.97605   0.22078   0.00000  Uiso   1.00
C439   C     0.47562   0.69072   0.22078   0.00000  Uiso   1.00
C440   C     0.52438   0.97594   0.27922   0.00000  Uiso   1.00
C441   C     0.49975   0.83336   0.16327   0.00000  Uiso   1.00
C442   C     0.50025   0.83331   0.33673   0.00000  Uiso   1.00
C443   C     0.50961   0.87350   0.40737   0.00000  Uiso   1.00
C444   C     0.49039   0.79316   0.09263   0.00000  Uiso   1.00
C445   C     0.50116   0.83325   0.38465   0.00000  Uiso   1.00
C446   C     0.58006   0.83333   0.25004   0.00000  Uiso   1.00
C447   C     0.49884   0.83341   0.11535   0.00000  Uiso   1.00
C448   C     0.49338   0.79302   0.40751   0.00000  Uiso   1.00
C449   C     0.50662   0.87364   0.09249   0.00000  Uiso   1.00
C450   C     0.49253   0.79297   0.45348   0.00000  Uiso   1.00
C451   C     0.50747   0.87370   0.04652   0.00000  Uiso   1.00
C452   C     0.50093   0.83346   0.47682   0.00000  Uiso   1.00
C453   C     0.49907   0.83321   0.02318   0.00000  Uiso   1.00
C454   C     0.51104   0.87410   0.45371   0.00000  Uiso   1.00
C455   C     0.48896   0.79256   0.04629   0.00000  Uiso   1.00
C456   C     0.48228   0.75308   0.47605   0.00000  Uiso   1.00
C457   C     0.47927   0.75246   0.02229   0.00000  Uiso   1.00
C458   C     0.51772   0.91359   0.02395   0.00000  Uiso   1.00
C459   C     0.46463   0.70949   0.04296   0.00000  Uiso   1.00
C460   C     0.53538   0.95717   0.45704   0.00000  Uiso   1.00
C461   C     0.52073   0.91421   0.47771   0.00000  Uiso   1.00
C462   C     0.35463   0.79291   0.24127   0.00000  Uiso   1.00
C463   C     0.64537   0.87376   0.25873   0.00000  Uiso   1.00
C464   C     0.64536   0.79289   0.24133   0.00000  Uiso   1.00
C465   C     0.35464   0.87377   0.25867   0.00000  Uiso   1.00
C466   C     0.62420   0.83332   0.25005   0.00000  Uiso   1.00
H467   H     0.51419   0.90423   0.38843   0.00000  Uiso   1.00
H468   H     0.37087   0.90519   0.26570   0.00000  Uiso   1.00
H469   H     0.54385   0.70882   0.30255   0.00000  Uiso   1.00
H470   H     0.45615   0.95785   0.19745   0.00000  Uiso   1.00
H471   H     0.45615   0.70900   0.19744   0.00000  Uiso   1.00
H472   H     0.54385   0.95766   0.30256   0.00000  Uiso   1.00
H473   H     0.47134   0.67738   0.02684   0.00000  Uiso   1.00
H474   H     0.52866   0.98928   0.47316   0.00000  Uiso   1.00
H475   H     0.48581   0.76243   0.11157   0.00000  Uiso   1.00
H476   H     0.48672   0.76195   0.38952   0.00000  Uiso   1.00
H477   H     0.51328   0.90472   0.11048   0.00000  Uiso   1.00
H478   H     0.47519   0.72254   0.45733   0.00000  Uiso   1.00
H479   H     0.52481   0.94413   0.04267   0.00000  Uiso   1.00
H480   H     0.37086   0.76150   0.23419   0.00000  Uiso   1.00
H481   H     0.62914   0.90516   0.26581   0.00000  Uiso   1.00
H482   H     0.62913   0.76148   0.23430   0.00000  Uiso   1.00
N483   N     0.50000   0.95240   0.25000   0.00000  Uiso   1.00
N484   N     0.50000   0.71427   0.25000   0.00000  Uiso   1.00
O485   O     0.43892   0.87154   0.24999   0.00000  Uiso   1.00
O486   O     0.55737   0.95727   0.42396   0.00000  Uiso   1.00
O487   O     0.56108   0.79513   0.25001   0.00000  Uiso   1.00
O488   O     0.56108   0.87154   0.25001   0.00000  Uiso   1.00
O489   O     0.43892   0.79513   0.24999   0.00000  Uiso   1.00
O490   O     0.49999   0.87156   0.18392   0.00000  Uiso   1.00
O491   O     0.50001   0.79511   0.31607   0.00000  Uiso   1.00
O492   O     0.50001   0.87156   0.31607   0.00000  Uiso   1.00
O493   O     0.49999   0.79511   0.18393   0.00000  Uiso   1.00
O494   O     0.44263   0.70939   0.07604   0.00000  Uiso   1.00
Zn495  Zn    0.50000   0.88437   0.25000   0.00000  Uiso   1.00
Zn496  Zn    0.50000   0.78229   0.25000   0.00000  Uiso   1.00
C497   C     0.75327   0.83334   0.24996   0.00000  Uiso   1.00
C498   C     0.70914   0.83334   0.24995   0.00000  Uiso   1.00
C499   C     0.85771   0.69062   0.27922   0.00000  Uiso   1.00
C500   C     0.80895   0.97605   0.22078   0.00000  Uiso   1.00
C501   C     0.80896   0.69072   0.22078   0.00000  Uiso   1.00
C502   C     0.85771   0.97594   0.27922   0.00000  Uiso   1.00
C503   C     0.83309   0.83336   0.16327   0.00000  Uiso   1.00
C504   C     0.83358   0.83331   0.33673   0.00000  Uiso   1.00
C505   C     0.84294   0.87350   0.40737   0.00000  Uiso   1.00
C506   C     0.82372   0.79316   0.09263   0.00000  Uiso   1.00
C507   C     0.83449   0.83325   0.38465   0.00000  Uiso   1.00
C508   C     0.91339   0.83333   0.25004   0.00000  Uiso   1.00
C509   C     0.83218   0.83341   0.11535   0.00000  Uiso   1.00
C510   C     0.82671   0.79302   0.40751   0.00000  Uiso   1.00
C511   C     0.83996   0.87364   0.09249   0.00000  Uiso   1.00
C512   C     0.82586   0.79297   0.45348   0.00000  Uiso   1.00
C513   C     0.84080   0.87370   0.04652   0.00000  Uiso   1.00
C514   C     0.83427   0.83346   0.47682   0.00000  Uiso   1.00
C515   C     0.83240   0.83321   0.02318   0.00000  Uiso   1.00
C516   C     0.84437   0.87410   0.45371   0.00000  Uiso   1.00
C517   C     0.82230   0.79256   0.04629   0.00000  Uiso   1.00
C518   C     0.81562   0.75308   0.47605   0.00000  Uiso   1.00
C519   C     0.81260   0.75246   0.02229   0.00000  Uiso   1.00
C520   C     0.85105   0.91359   0.02395   0.00000  Uiso   1.00
C521   C     0.79796   0.70949   0.04296   0.00000  Uiso   1.00
C522   C     0.86871   0.95717   0.45704   0.00000  Uiso   1.00
C523   C     0.85407   0.91421   0.47771   0.00000  Uiso   1.00
C524   C     0.68797   0.79291   0.24127   0.00000  Uiso   1.00
C525   C     0.97870   0.87376   0.25873   0.00000  Uiso   1.00
C526   C     0.97870   0.79289   0.24133   0.00000  Uiso   1.00
C527   C     0.68797   0.87377   0.25867   0.00000  Uiso   1.00
C528   C     0.95753   0.83332   0.25005   0.00000  Uiso   1.00
H529   H     0.84753   0.90423   0.38843   0.00000  Uiso   1.00
H530   H     0.70420   0.90519   0.26570   0.00000  Uiso   1.00
H531   H     0.87719   0.70882   0.30255   0.00000  Uiso   1.00
H532   H     0.78948   0.95785   0.19745   0.00000  Uiso   1.00
H533   H     0.78948   0.70900   0.19744   0.00000  Uiso   1.00
H534   H     0.87718   0.95766   0.30256   0.00000  Uiso   1.00
H535   H     0.80468   0.67738   0.02684   0.00000  Uiso   1.00
H536   H     0.86200   0.98928   0.47316   0.00000  Uiso   1.00
H537   H     0.81914   0.76243   0.11157   0.00000  Uiso   1.00
H538   H     0.82005   0.76195   0.38952   0.00000  Uiso   1.00
H539   H     0.84662   0.90472   0.11048   0.00000  Uiso   1.00
H540   H     0.80853   0.72254   0.45733   0.00000  Uiso   1.00
H541   H     0.85814   0.94413   0.04267   0.00000  Uiso   1.00
H542   H     0.70420   0.76150   0.23419   0.00000  Uiso   1.00
H543   H     0.96247   0.90516   0.26581   0.00000  Uiso   1.00
H544   H     0.96246   0.76148   0.23430   0.00000  Uiso   1.00
N545   N     0.83333   0.95240   0.25000   0.00000  Uiso   1.00
N546   N     0.83333   0.71427   0.25000   0.00000  Uiso   1.00
O547   O     0.77226   0.87154   0.24999   0.00000  Uiso   1.00
O548   O     0.89070   0.95727   0.42396   0.00000  Uiso   1.00
O549   O     0.89441   0.79513   0.25001   0.00000  Uiso   1.00
O550   O     0.89441   0.87154   0.25001   0.00000  Uiso   1.00
O551   O     0.77226   0.79513   0.24999   0.00000  Uiso   1.00
O552   O     0.83333   0.87156   0.18392   0.00000  Uiso   1.00
O553   O     0.83334   0.79511   0.31607   0.00000  Uiso   1.00
O554   O     0.83334   0.87156   0.31607   0.00000  Uiso   1.00
O555   O     0.83333   0.79511   0.18393   0.00000  Uiso   1.00
O556   O     0.77597   0.70939   0.07604   0.00000  Uiso   1.00
Zn557  Zn    0.83333   0.88437   0.25000   0.00000  Uiso   1.00
Zn558  Zn    0.83333   0.78229   0.25000   0.00000  Uiso   1.00
C559   C     0.08661   0.16667   0.74996   0.00000  Uiso   1.00
C560   C     0.04247   0.16668   0.74995   0.00000  Uiso   1.00
C561   C     0.19104   0.02395   0.77922   0.00000  Uiso   1.00
C562   C     0.14229   0.30938   0.72078   0.00000  Uiso   1.00
C563   C     0.14229   0.02406   0.72078   0.00000  Uiso   1.00
C564   C     0.19104   0.30928   0.77922   0.00000  Uiso   1.00
C565   C     0.16642   0.16669   0.66327   0.00000  Uiso   1.00
C566   C     0.16691   0.16664   0.83673   0.00000  Uiso   1.00
C567   C     0.17628   0.20684   0.90737   0.00000  Uiso   1.00
C568   C     0.15706   0.12649   0.59263   0.00000  Uiso   1.00
C569   C     0.16782   0.16659   0.88465   0.00000  Uiso   1.00
C570   C     0.24673   0.16666   0.75004   0.00000  Uiso   1.00
C571   C     0.16551   0.16675   0.61535   0.00000  Uiso   1.00
C572   C     0.16005   0.12636   0.90751   0.00000  Uiso   1.00
C573   C     0.17329   0.20698   0.59249   0.00000  Uiso   1.00
C574   C     0.15920   0.12630   0.95348   0.00000  Uiso   1.00
C575   C     0.17414   0.20703   0.54652   0.00000  Uiso   1.00
C576   C     0.16760   0.16679   0.97682   0.00000  Uiso   1.00
C577   C     0.16574   0.16654   0.52318   0.00000  Uiso   1.00
C578   C     0.17770   0.20744   0.95371   0.00000  Uiso   1.00
C579   C     0.15563   0.12590   0.54629   0.00000  Uiso   1.00
C580   C     0.14895   0.08641   0.97605   0.00000  Uiso   1.00
C581   C     0.14594   0.08579   0.52229   0.00000  Uiso   1.00
C582   C     0.18438   0.24692   0.52395   0.00000  Uiso   1.00
C583   C     0.13129   0.04283   0.54296   0.00000  Uiso   1.00
C584   C     0.20204   0.29051   0.95704   0.00000  Uiso   1.00
C585   C     0.18740   0.24754   0.97771   0.00000  Uiso   1.00
C586   C     0.02130   0.12624   0.74127   0.00000  Uiso   1.00
C587   C     0.31203   0.20709   0.75873   0.00000  Uiso   1.00
C588   C     0.31203   0.12623   0.74133   0.00000  Uiso   1.00
C589   C     0.02130   0.20711   0.75867   0.00000  Uiso   1.00
C590   C     0.29086   0.16666   0.75005   0.00000  Uiso   1.00
H591   H     0.18086   0.23757   0.88843   0.00000  Uiso   1.00
H592   H     0.03754   0.23852   0.76570   0.00000  Uiso   1.00
H593   H     0.21052   0.04215   0.80255   0.00000  Uiso   1.00
H594   H     0.12281   0.29118   0.69745   0.00000  Uiso   1.00
H595   H     0.12282   0.04234   0.69744   0.00000  Uiso   1.00
H596   H     0.21052   0.29100   0.80256   0.00000  Uiso   1.00
H597   H     0.13801   0.01072   0.52684   0.00000  Uiso   1.00
H598   H     0.19533   0.32262   0.97316   0.00000  Uiso   1.00
H599   H     0.15247   0.09577   0.61157   0.00000  Uiso   1.00
H600   H     0.15338   0.09528   0.88952   0.00000  Uiso   1.00
H601   H     0.17995   0.23805   0.61048   0.00000  Uiso   1.00
H602   H     0.14186   0.05587   0.95733   0.00000  Uiso   1.00
H603   H     0.19148   0.27746   0.54267   0.00000  Uiso   1.00
H604   H     0.03753   0.09484   0.73419   0.00000  Uiso   1.00
H605   H     0.29580   0.23850   0.76581   0.00000  Uiso   1.00
H606   H     0.29580   0.09481   0.73430   0.00000  Uiso   1.00
N607   N     0.16667   0.28573   0.75000   0.00000  Uiso   1.00
N608   N     0.16667   0.04760   0.75000   0.00000  Uiso   1.00
O609   O     0.10559   0.20487   0.74999   0.00000  Uiso   1.00
O610   O     0.22403   0.29061   0.92396   0.00000  Uiso   1.00
O611   O     0.22774   0.12846   0.75001   0.00000  Uiso   1.00
O612   O     0.22774   0.20487   0.75001   0.00000  Uiso   1.00
O613   O     0.10559   0.12846   0.74999   0.00000  Uiso   1.00
O614   O     0.16666   0.20489   0.68392   0.00000  Uiso   1.00
O615   O     0.16667   0.12844   0.81607   0.00000  Uiso   1.00
O616   O     0.16667   0.20489   0.81607   0.00000  Uiso   1.00
O617   O     0.16666   0.12844   0.68393   0.00000  Uiso   1.00
O618   O     0.10930   0.04273   0.57604   0.00000  Uiso   1.00
Zn619  Zn    0.16667   0.21771   0.75000   0.00000  Uiso   1.00
Zn620  Zn    0.16667   0.11563   0.75000   0.00000  Uiso   1.00
C621   C     0.41994   0.16667   0.74996   0.00000  Uiso   1.00
C622   C     0.37580   0.16668   0.74995   0.00000  Uiso   1.00
C623   C     0.52438   0.02395   0.77922   0.00000  Uiso   1.00
C624   C     0.47562   0.30938   0.72078   0.00000  Uiso   1.00
C625   C     0.47562   0.02406   0.72078   0.00000  Uiso   1.00
C626   C     0.52438   0.30928   0.77922   0.00000  Uiso   1.00
C627   C     0.49975   0.16669   0.66327   0.00000  Uiso   1.00
C628   C     0.50025   0.16664   0.83673   0.00000  Uiso   1.00
C629   C     0.50961   0.20684   0.90737   0.00000  Uiso   1.00
C630   C     0.49039   0.12649   0.59263   0.00000  Uiso   1.00
C631   C     0.50116   0.16659   0.88465   0.00000  Uiso   1.00
C632   C     0.58006   0.16666   0.75004   0.00000  Uiso   1.00
C633   C     0.49884   0.16675   0.61535   0.00000  Uiso   1.00
C634   C     0.49338   0.12636   0.90751   0.00000  Uiso   1.00
C635   C     0.50662   0.20698   0.59249   0.00000  Uiso   1.00
C636   C     0.49253   0.12630   0.95348   0.00000  Uiso   1.00
C637   C     0.50747   0.20703   0.54652   0.00000  Uiso   1.00
C638   C     0.50093   0.16679   0.97682   0.00000  Uiso   1.00
C639   C     0.49907   0.16654   0.52318   0.00000  Uiso   1.00
C640   C     0.51104   0.20744   0.95371   0.00000  Uiso   1.00
C641   C     0.48896   0.12590   0.54629   0.00000  Uiso   1.00
C642   C     0.48228   0.08641   0.97605   0.00000  Uiso   1.00
C643   C     0.47927   0.08579   0.52229   0.00000  Uiso   1.00
C644   C     0.51772   0.24692   0.52395   0.00000  Uiso   1.00
C645   C     0.46463   0.04283   0.54296   0.00000  Uiso   1.00
C646   C     0.53538   0.29051   0.95704   0.00000  Uiso   1.00
C647   C     0.52073   0.24754   0.97771   0.00000  Uiso   1.00
C648   C     0.35463   0.12624   0.74127   0.00000  Uiso   1.00
C649   C     0.64537   0.20709   0.75873   0.00000  Uiso   1.00
C650   C     0.64536   0.12623   0.74133   0.00000  Uiso   1.00
C651   C     0.35464   0.20711   0.75867   0.00000  Uiso   1.00
C652   C     0.62420   0.16666   0.75005   0.00000  Uiso   1.00
H653   H     0.51419   0.23757   0.88843   0.00000  Uiso   1.00
H654   H     0.37087   0.23852   0.76570   0.00000  Uiso   1.00
H655   H     0.54385   0.04215   0.80255   0.00000  Uiso   1.00
H656   H     0.45615   0.29118   0.69745   0.00000  Uiso   1.00
H657   H     0.45615   0.04234   0.69744   0.00000  Uiso   1.00
H658   H     0.54385   0.29100   0.80256   0.00000  Uiso   1.00
H659   H     0.47134   0.01072   0.52684   0.00000  Uiso   1.00
H660   H     0.52866   0.32262   0.97316   0.00000  Uiso   1.00
H661   H     0.48581   0.09577   0.61157   0.00000  Uiso   1.00
H662   H     0.48672   0.09528   0.88952   0.00000  Uiso   1.00
H663   H     0.51328   0.23805   0.61048   0.00000  Uiso   1.00
H664   H     0.47519   0.05587   0.95733   0.00000  Uiso   1.00
H665   H     0.52481   0.27746   0.54267   0.00000  Uiso   1.00
H666   H     0.37086   0.09484   0.73419   0.00000  Uiso   1.00
H667   H     0.62914   0.23850   0.76581   0.00000  Uiso   1.00
H668   H     0.62913   0.09481   0.73430   0.00000  Uiso   1.00
N669   N     0.50000   0.28573   0.75000   0.00000  Uiso   1.00
N670   N     0.50000   0.04760   0.75000   0.00000  Uiso   1.00
O671   O     0.43892   0.20487   0.74999   0.00000  Uiso   1.00
O672   O     0.55737   0.29061   0.92396   0.00000  Uiso   1.00
O673   O     0.56108   0.12846   0.75001   0.00000  Uiso   1.00
O674   O     0.56108   0.20487   0.75001   0.00000  Uiso   1.00
O675   O     0.43892   0.12846   0.74999   0.00000  Uiso   1.00
O676   O     0.49999   0.20489   0.68392   0.00000  Uiso   1.00
O677   O     0.50001   0.12844   0.81607   0.00000  Uiso   1.00
O678   O     0.50001   0.20489   0.81607   0.00000  Uiso   1.00
O679   O     0.49999   0.12844   0.68393   0.00000  Uiso   1.00
O680   O     0.44263   0.04273   0.57604   0.00000  Uiso   1.00
Zn681  Zn    0.50000   0.21771   0.75000   0.00000  Uiso   1.00
Zn682  Zn    0.50000   0.11563   0.75000   0.00000  Uiso   1.00
C683   C     0.75327   0.16667   0.74996   0.00000  Uiso   1.00
C684   C     0.70914   0.16668   0.74995   0.00000  Uiso   1.00
C685   C     0.85771   0.02395   0.77922   0.00000  Uiso   1.00
C686   C     0.80895   0.30938   0.72078   0.00000  Uiso   1.00
C687   C     0.80896   0.02406   0.72078   0.00000  Uiso   1.00
C688   C     0.85771   0.30928   0.77922   0.00000  Uiso   1.00
C689   C     0.83309   0.16669   0.66327   0.00000  Uiso   1.00
C690   C     0.83358   0.16664   0.83673   0.00000  Uiso   1.00
C691   C     0.84294   0.20684   0.90737   0.00000  Uiso   1.00
C692   C     0.82372   0.12649   0.59263   0.00000  Uiso   1.00
C693   C     0.83449   0.16659   0.88465   0.00000  Uiso   1.00
C694   C     0.91339   0.16666   0.75004   0.00000  Uiso   1.00
C695   C     0.83218   0.16675   0.61535   0.00000  Uiso   1.00
C696   C     0.82671   0.12636   0.90751   0.00000  Uiso   1.00
C697   C     0.83996   0.20698   0.59249   0.00000  Uiso   1.00
C698   C     0.82586   0.12630   0.95348   0.00000  Uiso   1.00
C699   C     0.84080   0.20703   0.54652   0.00000  Uiso   1.00
C700   C     0.83427   0.16679   0.97682   0.00000  Uiso   1.00
C701   C     0.83240   0.16654   0.52318   0.00000  Uiso   1.00
C702   C     0.84437   0.20744   0.95371   0.00000  Uiso   1.00
C703   C     0.82230   0.12590   0.54629   0.00000  Uiso   1.00
C704   C     0.81562   0.08641   0.97605   0.00000  Uiso   1.00
C705   C     0.81260   0.08579   0.52229   0.00000  Uiso   1.00
C706   C     0.85105   0.24692   0.52395   0.00000  Uiso   1.00
C707   C     0.79796   0.04283   0.54296   0.00000  Uiso   1.00
C708   C     0.86871   0.29051   0.95704   0.00000  Uiso   1.00
C709   C     0.85407   0.24754   0.97771   0.00000  Uiso   1.00
C710   C     0.68797   0.12624   0.74127   0.00000  Uiso   1.00
C711   C     0.97870   0.20709   0.75873   0.00000  Uiso   1.00
C712   C     0.97870   0.12623   0.74133   0.00000  Uiso   1.00
C713   C     0.68797   0.20711   0.75867   0.00000  Uiso   1.00
C714   C     0.95753   0.16666   0.75005   0.00000  Uiso   1.00
H715   H     0.84753   0.23757   0.88843   0.00000  Uiso   1.00
H716   H     0.70420   0.23852   0.76570   0.00000  Uiso   1.00
H717   H     0.87719   0.04215   0.80255   0.00000  Uiso   1.00
H718   H     0.78948   0.29118   0.69745   0.00000  Uiso   1.00
H719   H     0.78948   0.04234   0.69744   0.00000  Uiso   1.00
H720   H     0.87718   0.29100   0.80256   0.00000  Uiso   1.00
H721   H     0.80468   0.01072   0.52684   0.00000  Uiso   1.00
H722   H     0.86200   0.32262   0.97316   0.00000  Uiso   1.00
H723   H     0.81914   0.09577   0.61157   0.00000  Uiso   1.00
H724   H     0.82005   0.09528   0.88952   0.00000  Uiso   1.00
H725   H     0.84662   0.23805   0.61048   0.00000  Uiso   1.00
H726   H     0.80853   0.05587   0.95733   0.00000  Uiso   1.00
H727   H     0.85814   0.27746   0.54267   0.00000  Uiso   1.00
H728   H     0.70420   0.09484   0.73419   0.00000  Uiso   1.00
H729   H     0.96247   0.23850   0.76581   0.00000  Uiso   1.00
H730   H     0.96246   0.09481   0.73430   0.00000  Uiso   1.00
N731   N     0.83333   0.28573   0.75000   0.00000  Uiso   1.00
N732   N     0.83333   0.04760   0.75000   0.00000  Uiso   1.00
O733   O     0.77226   0.20487   0.74999   0.00000  Uiso   1.00
O734   O     0.89070   0.29061   0.92396   0.00000  Uiso   1.00
O735   O     0.89441   0.12846   0.75001   0.00000  Uiso   1.00
O736   O     0.89441   0.20487   0.75001   0.00000  Uiso   1.00
O737   O     0.77226   0.12846   0.74999   0.00000  Uiso   1.00
O738   O     0.83333   0.20489   0.68392   0.00000  Uiso   1.00
O739   O     0.83334   0.12844   0.81607   0.00000  Uiso   1.00
O740   O     0.83334   0.20489   0.81607   0.00000  Uiso   1.00
O741   O     0.83333   0.12844   0.68393   0.00000  Uiso   1.00
O742   O     0.77597   0.04273   0.57604   0.00000  Uiso   1.00
Zn743  Zn    0.83333   0.21771   0.75000   0.00000  Uiso   1.00
Zn744  Zn    0.83333   0.11563   0.75000   0.00000  Uiso   1.00
C745   C     0.08661   0.50001   0.74996   0.00000  Uiso   1.00
C746   C     0.04247   0.50001   0.74995   0.00000  Uiso   1.00
C747   C     0.19104   0.35729   0.77922   0.00000  Uiso   1.00
C748   C     0.14229   0.64271   0.72078   0.00000  Uiso   1.00
C749   C     0.14229   0.35739   0.72078   0.00000  Uiso   1.00
C750   C     0.19104   0.64261   0.77922   0.00000  Uiso   1.00
C751   C     0.16642   0.50002   0.66327   0.00000  Uiso   1.00
C752   C     0.16691   0.49998   0.83673   0.00000  Uiso   1.00
C753   C     0.17628   0.54017   0.90737   0.00000  Uiso   1.00
C754   C     0.15706   0.45983   0.59263   0.00000  Uiso   1.00
C755   C     0.16782   0.49992   0.88465   0.00000  Uiso   1.00
C756   C     0.24673   0.49999   0.75004   0.00000  Uiso   1.00
C757   C     0.16551   0.50008   0.61535   0.00000  Uiso   1.00
C758   C     0.16005   0.45969   0.90751   0.00000  Uiso   1.00
C759   C     0.17329   0.54031   0.59249   0.00000  Uiso   1.00
C760   C     0.15920   0.45964   0.95348   0.00000  Uiso   1.00
C761   C     0.17414   0.54036   0.54652   0.00000  Uiso   1.00
C762   C     0.16760   0.50013   0.97682   0.00000  Uiso   1.00
C763   C     0.16574   0.49987   0.52318   0.00000  Uiso   1.00
C764   C     0.17770   0.54077   0.95371   0.00000  Uiso   1.00
C765   C     0.15563   0.45923   0.54629   0.00000  Uiso   1.00
C766   C     0.14895   0.41974   0.97605   0.00000  Uiso   1.00
C767   C     0.14594   0.41913   0.52229   0.00000  Uiso   1.00
C768   C     0.18438   0.58026   0.52395   0.00000  Uiso   1.00
C769   C     0.13129   0.37616   0.54296   0.00000  Uiso   1.00
C770   C     0.20204   0.62384   0.95704   0.00000  Uiso   1.00
C771   C     0.18740   0.58087   0.97771   0.00000  Uiso   1.00
C772   C     0.02130   0.45957   0.74127   0.00000  Uiso   1.00
C773   C     0.31203   0.54043   0.75873   0.00000  Uiso   1.00
C774   C     0.31203   0.45956   0.74133   0.00000  Uiso   1.00
C775   C     0.02130   0.54044   0.75867   0.00000  Uiso   1.00
C776   C     0.29086   0.49999   0.75005   0.00000  Uiso   1.00
H777   H     0.18086   0.57090   0.88843   0.00000  Uiso   1.00
H778   H     0.03754   0.57185   0.76570   0.00000  Uiso   1.00
H779   H     0.21052   0.37548   0.80255   0.00000  Uiso   1.00
H780   H     0.12281   0.62452   0.69745   0.00000  Uiso   1.00
H781   H     0.12282   0.37567   0.69744   0.00000  Uiso   1.00
H782   H     0.21052   0.62433   0.80256   0.00000  Uiso   1.00
H783   H     0.13801   0.34405   0.52684   0.00000  Uiso   1.00
H784   H     0.19533   0.65595   0.97316   0.00000  Uiso   1.00
H785   H     0.15247   0.42910   0.61157   0.00000  Uiso   1.00
H786   H     0.15338   0.42861   0.88952   0.00000  Uiso   1.00
H787   H     0.17995   0.57139   0.61048   0.00000  Uiso   1.00
H788   H     0.14186   0.38921   0.95733   0.00000  Uiso   1.00
H789   H     0.19148   0.61079   0.54267   0.00000  Uiso   1.00
H790   H     0.03753   0.42817   0.73419   0.00000  Uiso   1.00
H791   H     0.29580   0.57183   0.76581   0.00000  Uiso   1.00
H792   H     0.29580   0.42815   0.73430   0.00000  Uiso   1.00
N793   N     0.16667   0.61907   0.75000   0.00000  Uiso   1.00
N794   N     0.16667   0.38093   0.75000   0.00000  Uiso   1.00
O795   O     0.10559   0.53821   0.74999   0.00000  Uiso   1.00
O796   O     0.22403   0.62394   0.92396   0.00000  Uiso   1.00
O797   O     0.22774   0.46179   0.75001   0.00000  Uiso   1.00
O798   O     0.22774   0.53821   0.75001   0.00000  Uiso   1.00
O799   O     0.10559   0.46179   0.74999   0.00000  Uiso   1.00
O800   O     0.16666   0.53823   0.68392   0.00000  Uiso   1.00
O801   O     0.16667   0.46177   0.81607   0.00000  Uiso   1.00
O802   O     0.16667   0.53823   0.81607   0.00000  Uiso   1.00
O803   O     0.16666   0.46177   0.68393   0.00000  Uiso   1.00
O804   O     0.10930   0.37606   0.57604   0.00000  Uiso   1.00
Zn805  Zn    0.16667   0.55104   0.75000   0.00000  Uiso   1.00
Zn806  Zn    0.16667   0.44896   0.75000   0.00000  Uiso   1.00
C807   C     0.41994   0.50001   0.74996   0.00000  Uiso   1.00
C808   C     0.37580   0.50001   0.74995   0.00000  Uiso   1.00
C809   C     0.52438   0.35729   0.77922   0.00000  Uiso   1.00
C810   C     0.47562   0.64271   0.72078   0.00000  Uiso   1.00
C811   C     0.47562   0.35739   0.72078   0.00000  Uiso   1.00
C812   C     0.52438   0.64261   0.77922   0.00000  Uiso   1.00
C813   C     0.49975   0.50002   0.66327   0.00000  Uiso   1.00
C814   C     0.50025   0.49998   0.83673   0.00000  Uiso   1.00
C815   C     0.50961   0.54017   0.90737   0.00000  Uiso   1.00
C816   C     0.49039   0.45983   0.59263   0.00000  Uiso   1.00
C817   C     0.50116   0.49992   0.88465   0.00000  Uiso   1.00
C818   C     0.58006   0.49999   0.75004   0.00000  Uiso   1.00
C819   C     0.49884   0.50008   0.61535   0.00000  Uiso   1.00
C820   C     0.49338   0.45969   0.90751   0.00000  Uiso   1.00
C821   C     0.50662   0.54031   0.59249   0.00000  Uiso   1.00
C822   C     0.49253   0.45964   0.95348   0.00000  Uiso   1.00
C823   C     0.50747   0.54036   0.54652   0.00000  Uiso   1.00
C824   C     0.50093   0.50013   0.97682   0.00000  Uiso   1.00
C825   C     0.49907   0.49987   0.52318   0.00000  Uiso   1.00
C826   C     0.51104   0.54077   0.95371   0.00000  Uiso   1.00
C827   C     0.48896   0.45923   0.54629   0.00000  Uiso   1.00
C828   C     0.48228   0.41974   0.97605   0.00000  Uiso   1.00
C829   C     0.47927   0.41913   0.52229   0.00000  Uiso   1.00
C830   C     0.51772   0.58026   0.52395   0.00000  Uiso   1.00
C831   C     0.46463   0.37616   0.54296   0.00000  Uiso   1.00
C832   C     0.53538   0.62384   0.95704   0.00000  Uiso   1.00
C833   C     0.52073   0.58087   0.97771   0.00000  Uiso   1.00
C834   C     0.35463   0.45957   0.74127   0.00000  Uiso   1.00
C835   C     0.64537   0.54043   0.75873   0.00000  Uiso   1.00
C836   C     0.64536   0.45956   0.74133   0.00000  Uiso   1.00
C837   C     0.35464   0.54044   0.75867   0.00000  Uiso   1.00
C838   C     0.62420   0.49999   0.75005   0.00000  Uiso   1.00
H839   H     0.51419   0.57090   0.88843   0.00000  Uiso   1.00
H840   H     0.37087   0.57185   0.76570   0.00000  Uiso   1.00
H841   H     0.54385   0.37548   0.80255   0.00000  Uiso   1.00
H842   H     0.45615   0.62452   0.69745   0.00000  Uiso   1.00
H843   H     0.45615   0.37567   0.69744   0.00000  Uiso   1.00
H844   H     0.54385   0.62433   0.80256   0.00000  Uiso   1.00
H845   H     0.47134   0.34405   0.52684   0.00000  Uiso   1.00
H846   H     0.52866   0.65595   0.97316   0.00000  Uiso   1.00
H847   H     0.48581   0.42910   0.61157   0.00000  Uiso   1.00
H848   H     0.48672   0.42861   0.88952   0.00000  Uiso   1.00
H849   H     0.51328   0.57139   0.61048   0.00000  Uiso   1.00
H850   H     0.47519   0.38921   0.95733   0.00000  Uiso   1.00
H851   H     0.52481   0.61079   0.54267   0.00000  Uiso   1.00
H852   H     0.37086   0.42817   0.73419   0.00000  Uiso   1.00
H853   H     0.62914   0.57183   0.76581   0.00000  Uiso   1.00
H854   H     0.62913   0.42815   0.73430   0.00000  Uiso   1.00
N855   N     0.50000   0.61907   0.75000   0.00000  Uiso   1.00
N856   N     0.50000   0.38093   0.75000   0.00000  Uiso   1.00
O857   O     0.43892   0.53821   0.74999   0.00000  Uiso   1.00
O858   O     0.55737   0.62394   0.92396   0.00000  Uiso   1.00
O859   O     0.56108   0.46179   0.75001   0.00000  Uiso   1.00
O860   O     0.56108   0.53821   0.75001   0.00000  Uiso   1.00
O861   O     0.43892   0.46179   0.74999   0.00000  Uiso   1.00
O862   O     0.49999   0.53823   0.68392   0.00000  Uiso   1.00
O863   O     0.50001   0.46177   0.81607   0.00000  Uiso   1.00
O864   O     0.50001   0.53823   0.81607   0.00000  Uiso   1.00
O865   O     0.49999   0.46177   0.68393   0.00000  Uiso   1.00
O866   O     0.44263   0.37606   0.57604   0.00000  Uiso   1.00
Zn867  Zn    0.50000   0.55104   0.75000   0.00000  Uiso   1.00
Zn868  Zn    0.50000   0.44896   0.75000   0.00000  Uiso   1.00
C869   C     0.75327   0.50001   0.74996   0.00000  Uiso   1.00
C870   C     0.70914   0.50001   0.74995   0.00000  Uiso   1.00
C871   C     0.85771   0.35729   0.77922   0.00000  Uiso   1.00
C872   C     0.80895   0.64271   0.72078   0.00000  Uiso   1.00
C873   C     0.80896   0.35739   0.72078   0.00000  Uiso   1.00
C874   C     0.85771   0.64261   0.77922   0.00000  Uiso   1.00
C875   C     0.83309   0.50002   0.66327   0.00000  Uiso   1.00
C876   C     0.83358   0.49998   0.83673   0.00000  Uiso   1.00
C877   C     0.84294   0.54017   0.90737   0.00000  Uiso   1.00
C878   C     0.82372   0.45983   0.59263   0.00000  Uiso   1.00
C879   C     0.83449   0.49992   0.88465   0.00000  Uiso   1.00
C880   C     0.91339   0.49999   0.75004   0.00000  Uiso   1.00
C881   C     0.83218   0.50008   0.61535   0.00000  Uiso   1.00
C882   C     0.82671   0.45969   0.90751   0.00000  Uiso   1.00
C883   C     0.83996   0.54031   0.59249   0.00000  Uiso   1.00
C884   C     0.82586   0.45964   0.95348   0.00000  Uiso   1.00
C885   C     0.84080   0.54036   0.54652   0.00000  Uiso   1.00
C886   C     0.83427   0.50013   0.97682   0.00000  Uiso   1.00
C887   C     0.83240   0.49987   0.52318   0.00000  Uiso   1.00
C888   C     0.84437   0.54077   0.95371   0.00000  Uiso   1.00
C889   C     0.82230   0.45923   0.54629   0.00000  Uiso   1.00
C890   C     0.81562   0.41974   0.97605   0.00000  Uiso   1.00
C891   C     0.81260   0.41913   0.52229   0.00000  Uiso   1.00
C892   C     0.85105   0.58026   0.52395   0.00000  Uiso   1.00
C893   C     0.79796   0.37616   0.54296   0.00000  Uiso   1.00
C894   C     0.86871   0.62384   0.95704   0.00000  Uiso   1.00
C895   C     0.85407   0.58087   0.97771   0.00000  Uiso   1.00
C896   C     0.68797   0.45957   0.74127   0.00000  Uiso   1.00
C897   C     0.97870   0.54043   0.75873   0.00000  Uiso   1.00
C898   C     0.97870   0.45956   0.74133   0.00000  Uiso   1.00
C899   C     0.68797   0.54044   0.75867   0.00000  Uiso   1.00
C900   C     0.95753   0.49999   0.75005   0.00000  Uiso   1.00
H901   H     0.84753   0.57090   0.88843   0.00000  Uiso   1.00
H902   H     0.70420   0.57185   0.76570   0.00000  Uiso   1.00
H903   H     0.87719   0.37548   0.80255   0.00000  Uiso   1.00
H904   H     0.78948   0.62452   0.69745   0.00000  Uiso   1.00
H905   H     0.78948   0.37567   0.69744   0.00000  Uiso   1.00
H906   H     0.87718   0.62433   0.80256   0.00000  Uiso   1.00
H907   H     0.80468   0.34405   0.52684   0.00000  Uiso   1.00
H908   H     0.86200   0.65595   0.97316   0.00000  Uiso   1.00
H909   H     0.81914   0.42910   0.61157   0.00000  Uiso   1.00
H910   H     0.82005   0.42861   0.88952   0.00000  Uiso   1.00
H911   H     0.84662   0.57139   0.61048   0.00000  Uiso   1.00
H912   H     0.80853   0.38921   0.95733   0.00000  Uiso   1.00
H913   H     0.85814   0.61079   0.54267   0.00000  Uiso   1.00
H914   H     0.70420   0.42817   0.73419   0.00000  Uiso   1.00
H915   H     0.96247   0.57183   0.76581   0.00000  Uiso   1.00
H916   H     0.96246   0.42815   0.73430   0.00000  Uiso   1.00
N917   N     0.83333   0.61907   0.75000   0.00000  Uiso   1.00
N918   N     0.83333   0.38093   0.75000   0.00000  Uiso   1.00
O919   O     0.77226   0.53821   0.74999   0.00000  Uiso   1.00
O920   O     0.89070   0.62394   0.92396   0.00000  Uiso   1.00
O921   O     0.89441   0.46179   0.75001   0.00000  Uiso   1.00
O922   O     0.89441   0.53821   0.75001   0.00000  Uiso   1.00
O923   O     0.77226   0.46179   0.74999   0.00000  Uiso   1.00
O924   O     0.83333   0.53823   0.68392   0.00000  Uiso   1.00
O925   O     0.83334   0.46177   0.81607   0.00000  Uiso   1.00
O926   O     0.83334   0.53823   0.81607   0.00000  Uiso   1.00
O927   O     0.83333   0.46177   0.68393   0.00000  Uiso   1.00
O928   O     0.77597   0.37606   0.57604   0.00000  Uiso   1.00
Zn929  Zn    0.83333   0.55104   0.75000   0.00000  Uiso   1.00
Zn930  Zn    0.83333   0.44896   0.75000   0.00000  Uiso   1.00
C931   C     0.08661   0.83334   0.74996   0.00000  Uiso   1.00
C932   C     0.04247   0.83334   0.74995   0.00000  Uiso   1.00
C933   C     0.19104   0.69062   0.77922   0.00000  Uiso   1.00
C934   C     0.14229   0.97605   0.72078   0.00000  Uiso   1.00
C935   C     0.14229   0.69072   0.72078   0.00000  Uiso   1.00
C936   C     0.19104   0.97594   0.77922   0.00000  Uiso   1.00
C937   C     0.16642   0.83336   0.66327   0.00000  Uiso   1.00
C938   C     0.16691   0.83331   0.83673   0.00000  Uiso   1.00
C939   C     0.17628   0.87350   0.90737   0.00000  Uiso   1.00
C940   C     0.15706   0.79316   0.59263   0.00000  Uiso   1.00
C941   C     0.16782   0.83325   0.88465   0.00000  Uiso   1.00
C942   C     0.24673   0.83333   0.75004   0.00000  Uiso   1.00
C943   C     0.16551   0.83341   0.61535   0.00000  Uiso   1.00
C944   C     0.16005   0.79302   0.90751   0.00000  Uiso   1.00
C945   C     0.17329   0.87364   0.59249   0.00000  Uiso   1.00
C946   C     0.15920   0.79297   0.95348   0.00000  Uiso   1.00
C947   C     0.17414   0.87370   0.54652   0.00000  Uiso   1.00
C948   C     0.16760   0.83346   0.97682   0.00000  Uiso   1.00
C949   C     0.16574   0.83321   0.52318   0.00000  Uiso   1.00
C950   C     0.17770   0.87410   0.95371   0.00000  Uiso   1.00
C951   C     0.15563   0.79256   0.54629   0.00000  Uiso   1.00
C952   C     0.14895   0.75308   0.97605   0.00000  Uiso   1.00
C953   C     0.14594   0.75246   0.52229   0.00000  Uiso   1.00
C954   C     0.18438   0.91359   0.52395   0.00000  Uiso   1.00
C955   C     0.13129   0.70949   0.54296   0.00000  Uiso   1.00
C956   C     0.20204   0.95717   0.95704   0.00000  Uiso   1.00
C957   C     0.18740   0.91421   0.97771   0.00000  Uiso   1.00
C958   C     0.02130   0.79291   0.74127   0.00000  Uiso   1.00
C959   C     0.31203   0.87376   0.75873   0.00000  Uiso   1.00
C960   C     0.31203   0.79289   0.74133   0.00000  Uiso   1.00
C961   C     0.02130   0.87377   0.75867   0.00000  Uiso   1.00
C962   C     0.29086   0.83332   0.75005   0.00000  Uiso   1.00
H963   H     0.18086   0.90423   0.88843   0.00000  Uiso   1.00
H964   H     0.03754   0.90519   0.76570   0.00000  Uiso   1.00
H965   H     0.21052   0.70882   0.80255   0.00000  Uiso   1.00
H966   H     0.12281   0.95785   0.69745   0.00000  Uiso   1.00
H967   H     0.12282   0.70900   0.69744   0.00000  Uiso   1.00
H968   H     0.21052   0.95766   0.80256   0.00000  Uiso   1.00
H969   H     0.13801   0.67738   0.52684   0.00000  Uiso   1.00
H970   H     0.19533   0.98928   0.97316   0.00000  Uiso   1.00
H971   H     0.15247   0.76243   0.61157   0.00000  Uiso   1.00
H972   H     0.15338   0.76195   0.88952   0.00000  Uiso   1.00
H973   H     0.17995   0.90472   0.61048   0.00000  Uiso   1.00
H974   H     0.14186   0.72254   0.95733   0.00000  Uiso   1.00
H975   H     0.19148   0.94413   0.54267   0.00000  Uiso   1.00
H976   H     0.03753   0.76150   0.73419   0.00000  Uiso   1.00
H977   H     0.29580   0.90516   0.76581   0.00000  Uiso   1.00
H978   H     0.29580   0.76148   0.73430   0.00000  Uiso   1.00
N979   N     0.16667   0.95240   0.75000   0.00000  Uiso   1.00
N980   N     0.16667   0.71427   0.75000   0.00000  Uiso   1.00
O981   O     0.10559   0.87154   0.74999   0.00000  Uiso   1.00
O982   O     0.22403   0.95727   0.92396   0.00000  Uiso   1.00
O983   O     0.22774   0.79513   0.75001   0.00000  Uiso   1.00
O984   O     0.22774   0.87154   0.75001   0.00000  Uiso   1.00
O985   O     0.10559   0.79513   0.74999   0.00000  Uiso   1.00
O986   O     0.16666   0.87156   0.68392   0.00000  Uiso   1.00
O987   O     0.16667   0.79511   0.81607   0.00000  Uiso   1.00
O988   O     0.16667   0.87156   0.81607   0.00000  Uiso   1.00
O989   O     0.16666   0.79511   0.68393   0.00000  Uiso   1.00
O990   O     0.10930   0.70939   0.57604   0.00000  Uiso   1.00
Zn991  Zn    0.16667   0.88437   0.75000   0.00000  Uiso   1.00
Zn992  Zn    0.16667   0.78229   0.75000   0.00000  Uiso   1.00
C993   C     0.41994   0.83334   0.74996   0.00000  Uiso   1.00
C994   C     0.37580   0.83334   0.74995   0.00000  Uiso   1.00
C995   C     0.52438   0.69062   0.77922   0.00000  Uiso   1.00
C996   C     0.47562   0.97605   0.72078   0.00000  Uiso   1.00
C997   C     0.47562   0.69072   0.72078   0.00000  Uiso   1.00
C998   C     0.52438   0.97594   0.77922   0.00000  Uiso   1.00
C999   C     0.49975   0.83336   0.66327   0.00000  Uiso   1.00
C1000  C     0.50025   0.83331   0.83673   0.00000  Uiso   1.00
C1001  C     0.50961   0.87350   0.90737   0.00000  Uiso   1.00
C1002  C     0.49039   0.79316   0.59263   0.00000  Uiso   1.00
C1003  C     0.50116   0.83325   0.88465   0.00000  Uiso   1.00
C1004  C     0.58006   0.83333   0.75004   0.00000  Uiso   1.00
C1005  C     0.49884   0.83341   0.61535   0.00000  Uiso   1.00
C1006  C     0.49338   0.79302   0.90751   0.00000  Uiso   1.00
C1007  C     0.50662   0.87364   0.59249   0.00000  Uiso   1.00
C1008  C     0.49253   0.79297   0.95348   0.00000  Uiso   1.00
C1009  C     0.50747   0.87370   0.54652   0.00000  Uiso   1.00
C1010  C     0.50093   0.83346   0.97682   0.00000  Uiso   1.00
C1011  C     0.49907   0.83321   0.52318   0.00000  Uiso   1.00
C1012  C     0.51104   0.87410   0.95371   0.00000  Uiso   1.00
C1013  C     0.48896   0.79256   0.54629   0.00000  Uiso   1.00
C1014  C     0.48228   0.75308   0.97605   0.00000  Uiso   1.00
C1015  C     0.47927   0.75246   0.52229   0.00000  Uiso   1.00
C1016  C     0.51772   0.91359   0.52395   0.00000  Uiso   1.00
C1017  C     0.46463   0.70949   0.54296   0.00000  Uiso   1.00
C1018  C     0.53538   0.95717   0.95704   0.00000  Uiso   1.00
C1019  C     0.52073   0.91421   0.97771   0.00000  Uiso   1.00
C1020  C     0.35463   0.79291   0.74127   0.00000  Uiso   1.00
C1021  C     0.64537   0.87376   0.75873   0.00000  Uiso   1.00
C1022  C     0.64536   0.79289   0.74133   0.00000  Uiso   1.00
C1023  C     0.35464   0.87377   0.75867   0.00000  Uiso   1.00
C1024  C     0.62420   0.83332   0.75005   0.00000  Uiso   1.00
H1025  H     0.51419   0.90423   0.88843   0.00000  Uiso   1.00
H1026  H     0.37087   0.90519   0.76570   0.00000  Uiso   1.00
H1027  H     0.54385   0.70882   0.80255   0.00000  Uiso   1.00
H1028  H     0.45615   0.95785   0.69745   0.00000  Uiso   1.00
H1029  H     0.45615   0.70900   0.69744   0.00000  Uiso   1.00
H1030  H     0.54385   0.95766   0.80256   0.00000  Uiso   1.00
H1031  H     0.47134   0.67738   0.52684   0.00000  Uiso   1.00
H1032  H     0.52866   0.98928   0.97316   0.00000  Uiso   1.00
H1033  H     0.48581   0.76243   0.61157   0.00000  Uiso   1.00
H1034  H     0.48672   0.76195   0.88952   0.00000  Uiso   1.00
H1035  H     0.51328   0.90472   0.61048   0.00000  Uiso   1.00
H1036  H     0.47519   0.72254   0.95733   0.00000  Uiso   1.00
H1037  H     0.52481   0.94413   0.54267   0.00000  Uiso   1.00
H1038  H     0.37086   0.76150   0.73419   0.00000  Uiso   1.00
H1039  H     0.62914   0.90516   0.76581   0.00000  Uiso   1.00
H1040  H     0.62913   0.76148   0.73430   0.00000  Uiso   1.00
N1041  N     0.50000   0.95240   0.75000   0.00000  Uiso   1.00
N1042  N     0.50000   0.71427   0.75000   0.00000  Uiso   1.00
O1043  O     0.43892   0.87154   0.74999   0.00000  Uiso   1.00
O1044  O     0.55737   0.95727   0.92396   0.00000  Uiso   1.00
O1045  O     0.56108   0.79513   0.75001   0.00000  Uiso   1.00
O1046  O     0.56108   0.87154   0.75001   0.00000  Uiso   1.00
O1047  O     0.43892   0.79513   0.74999   0.00000  Uiso   1.00
O1048  O     0.49999   0.87156   0.68392   0.00000  Uiso   1.00
O1049  O     0.50001   0.79511   0.81607   0.00000  Uiso   1.00
O1050  O     0.50001   0.87156   0.81607   0.00000  Uiso   1.00
O1051  O     0.49999   0.79511   0.68393   0.00000  Uiso   1.00
O1052  O     0.44263   0.70939   0.57604   0.00000  Uiso   1.00
Zn1053 Zn    0.50000   0.88437   0.75000   0.00000  Uiso   1.00
Zn1054 Zn    0.50000   0.78229   0.75000   0.00000  Uiso   1.00
C1055  C     0.75327   0.83334   0.74996   0.00000  Uiso   1.00
C1056  C     0.70914   0.83334   0.74995   0.00000  Uiso   1.00
C1057  C     0.85771   0.69062   0.77922   0.00000  Uiso   1.00
C1058  C     0.80895   0.97605   0.72078   0.00000  Uiso   1.00
C1059  C     0.80896   0.69072   0.72078   0.00000  Uiso   1.00
C1060  C     0.85771   0.97594   0.77922   0.00000  Uiso   1.00
C1061  C     0.83309   0.83336   0.66327   0.00000  Uiso   1.00
C1062  C     0.83358   0.83331   0.83673   0.00000  Uiso   1.00
C1063  C     0.84294   0.87350   0.90737   0.00000  Uiso   1.00
C1064  C     0.82372   0.79316   0.59263   0.00000  Uiso   1.00
C1065  C     0.83449   0.83325   0.88465   0.00000  Uiso   1.00
C1066  C     0.91339   0.83333   0.75004   0.00000  Uiso   1.00
C1067  C     0.83218   0.83341   0.61535   0.00000  Uiso   1.00
C1068  C     0.82671   0.79302   0.90751   0.00000  Uiso   1.00
C1069  C     0.83996   0.87364   0.59249   0.00000  Uiso   1.00
C1070  C     0.82586   0.79297   0.95348   0.00000  Uiso   1.00
C1071  C     0.84080   0.87370   0.54652   0.00000  Uiso   1.00
C1072  C     0.83427   0.83346   0.97682   0.00000  Uiso   1.00
C1073  C     0.83240   0.83321   0.52318   0.00000  Uiso   1.00
C1074  C     0.84437   0.87410   0.95371   0.00000  Uiso   1.00
C1075  C     0.82230   0.79256   0.54629   0.00000  Uiso   1.00
C1076  C     0.81562   0.75308   0.97605   0.00000  Uiso   1.00
C1077  C     0.81260   0.75246   0.52229   0.00000  Uiso   1.00
C1078  C     0.85105   0.91359   0.52395   0.00000  Uiso   1.00
C1079  C     0.79796   0.70949   0.54296   0.00000  Uiso   1.00
C1080  C     0.86871   0.95717   0.95704   0.00000  Uiso   1.00
C1081  C     0.85407   0.91421   0.97771   0.00000  Uiso   1.00
C1082  C     0.68797   0.79291   0.74127   0.00000  Uiso   1.00
C1083  C     0.97870   0.87376   0.75873   0.00000  Uiso   1.00
C1084  C     0.97870   0.79289   0.74133   0.00000  Uiso   1.00
C1085  C     0.68797   0.87377   0.75867   0.00000  Uiso   1.00
C1086  C     0.95753   0.83332   0.75005   0.00000  Uiso   1.00
H1087  H     0.84753   0.90423   0.88843   0.00000  Uiso   1.00
H1088  H     0.70420   0.90519   0.76570   0.00000  Uiso   1.00
H1089  H     0.87719   0.70882   0.80255   0.00000  Uiso   1.00
H1090  H     0.78948   0.95785   0.69745   0.00000  Uiso   1.00
H1091  H     0.78948   0.70900   0.69744   0.00000  Uiso   1.00
H1092  H     0.87718   0.95766   0.80256   0.00000  Uiso   1.00
H1093  H     0.80468   0.67738   0.52684   0.00000  Uiso   1.00
H1094  H     0.86200   0.98928   0.97316   0.00000  Uiso   1.00
H1095  H     0.81914   0.76243   0.61157   0.00000  Uiso   1.00
H1096  H     0.82005   0.76195   0.88952   0.00000  Uiso   1.00
H1097  H     0.84662   0.90472   0.61048   0.00000  Uiso   1.00
H1098  H     0.80853   0.72254   0.95733   0.00000  Uiso   1.00
H1099  H     0.85814   0.94413   0.54267   0.00000  Uiso   1.00
H1100  H     0.70420   0.76150   0.73419   0.00000  Uiso   1.00
H1101  H     0.96247   0.90516   0.76581   0.00000  Uiso   1.00
H1102  H     0.96246   0.76148   0.73430   0.00000  Uiso   1.00
N1103  N     0.83333   0.95240   0.75000   0.00000  Uiso   1.00
N1104  N     0.83333   0.71427   0.75000   0.00000  Uiso   1.00
O1105  O     0.77226   0.87154   0.74999   0.00000  Uiso   1.00
O1106  O     0.89070   0.95727   0.92396   0.00000  Uiso   1.00
O1107  O     0.89441   0.79513   0.75001   0.00000  Uiso   1.00
O1108  O     0.89441   0.87154   0.75001   0.00000  Uiso   1.00
O1109  O     0.77226   0.79513   0.74999   0.00000  Uiso   1.00
O1110  O     0.83333   0.87156   0.68392   0.00000  Uiso   1.00
O1111  O     0.83334   0.79511   0.81607   0.00000  Uiso   1.00
O1112  O     0.83334   0.87156   0.81607   0.00000  Uiso   1.00
O1113  O     0.83333   0.79511   0.68393   0.00000  Uiso   1.00
O1114  O     0.77597   0.70939   0.57604   0.00000  Uiso   1.00
Zn1115 Zn    0.83333   0.88437   0.75000   0.00000  Uiso   1.00
Zn1116 Zn    0.83333   0.78229   0.75000   0.00000  Uiso   1.00
loop_
_geom_bond_atom_site_label_1
_geom_bond_atom_site_label_2
_geom_bond_distance
_geom_bond_site_symmetry_2
_ccdc_geom_bond_type
C1     O55     1.281   .     A
C1     O51     1.281   .     A
C1     C2      1.419   .     S
C2     C31     1.397   .     A
C2     C28     1.397   .     A
C3     H35     1.082   .     S
C3     N50     1.366   .     A
C3     C378    1.415   1_545 S
C4     N49     1.366   .     A
C4     H36     1.082   .     S
C4     C191    1.415   .     S
C5     N50     1.366   .     A
C5     H37     1.082   .     S
C5     C376    1.415   1_545 S
C6     H38     1.082   .     S
C6     N49     1.366   .     A
C6     C189    1.415   .     S
C7     O56     1.286   .     A
C7     C13     1.439   .     S
C7     O59     1.286   .     A
C8     O57     1.286   .     A
C8     C11     1.439   .     S
C8     O58     1.286   .     A
C9     H33     1.079   .     S
C9     C11     1.396   .     A
C9     C20     1.393   .     A
C10    H41     1.079   .     S
C10    C21     1.393   .     A
C10    C13     1.396   .     A
C11    C14     1.392   .     A
C12    O53     1.281   .     A
C12    C32     1.419   .     S
C12    O54     1.281   .     A
C13    C15     1.392   .     A
C14    H42     1.085   .     S
C14    C16     1.381   .     A
C15    H43     1.085   .     S
C15    C17     1.381   .     A
C16    C18     1.411   .     A
C16    C22     1.396   .     A
C17    C24     1.396   .     A
C17    C19     1.411   .     A
C18    C20     1.421   .     A
C18    C577    1.393   .     S
C19    C21     1.421   .     A
C19    C576    1.393   1_554 S
C20    C27     1.419   .     A
C21    C23     1.419   .     A
C22    H44     1.086   .     S
C22    C581    1.392   .     S
C23    C25     1.486   .     S
C23    C580    1.392   1_554 S
C24    H45     1.086   .     S
C24    C585    1.392   1_554 S
C25    H39     1.085   .     S
C25    O60     1.220   .     D
C26    O52     1.220   .     D
C26    H40     1.085   .     S
C26    C27     1.486   .     S
C27    C582    1.392   .     S
C28    H46     1.084   .     S
C28    C154    1.370   1_455 S
C29    H47     1.084   .     S
C29    C32     1.397   .     A
C29    C93     1.370   .     S
C30    H48     1.084   .     S
C30    C32     1.397   .     A
C30    C90     1.370   .     S
C31    H34     1.084   .     S
C31    C153    1.370   1_455 S
N49    Zn61    2.004   .     S
N50    Zn62    2.004   .     S
O51    Zn61    2.000   .     S
O53    Zn62    2.000   .     S
O54    Zn61    2.000   .     S
O55    Zn62    2.000   .     S
O56    Zn61    2.020   .     S
O57    Zn62    2.020   .     S
O58    Zn61    2.019   .     S
O59    Zn62    2.019   .     S
C63    O117    1.281   .     A
C63    O113    1.281   .     A
C63    C64     1.419   .     S
C64    C93     1.397   .     A
C64    C90     1.397   .     A
C65    H97     1.082   .     S
C65    N112    1.366   .     A
C65    C440    1.415   1_545 S
C66    N111    1.366   .     A
C66    H98     1.082   .     S
C66    C253    1.415   .     S
C67    N112    1.366   .     A
C67    H99     1.082   .     S
C67    C438    1.415   1_545 S
C68    H100    1.082   .     S
C68    N111    1.366   .     A
C68    C251    1.415   .     S
C69    O118    1.286   .     A
C69    C75     1.439   .     S
C69    O121    1.286   .     A
C70    O119    1.286   .     A
C70    C73     1.439   .     S
C70    O120    1.286   .     A
C71    H95     1.079   .     S
C71    C73     1.396   .     A
C71    C82     1.393   .     A
C72    H103    1.079   .     S
C72    C83     1.393   .     A
C72    C75     1.396   .     A
C73    C76     1.392   .     A
C74    O115    1.281   .     A
C74    C94     1.419   .     S
C74    O116    1.281   .     A
C75    C77     1.392   .     A
C76    H104    1.085   .     S
C76    C78     1.381   .     A
C77    H105    1.085   .     S
C77    C79     1.381   .     A
C78    C80     1.411   .     A
C78    C84     1.396   .     A
C79    C86     1.396   .     A
C79    C81     1.411   .     A
C80    C82     1.421   .     A
C80    C639    1.393   .     S
C81    C83     1.421   .     A
C81    C638    1.393   1_554 S
C82    C89     1.419   .     A
C83    C85     1.419   .     A
C84    H106    1.086   .     S
C84    C643    1.392   .     S
C85    C87     1.486   .     S
C85    C642    1.392   1_554 S
C86    H107    1.086   .     S
C86    C647    1.392   1_554 S
C87    H101    1.085   .     S
C87    O122    1.220   .     D
C88    O114    1.220   .     D
C88    H102    1.085   .     S
C88    C89     1.486   .     S
C89    C644    1.392   .     S
C90    H108    1.084   .     S
C91    H109    1.084   .     S
C91    C94     1.397   .     A
C91    C155    1.370   .     S
C92    H110    1.084   .     S
C92    C94     1.397   .     A
C92    C152    1.370   .     S
C93    H96     1.084   .     S
N111   Zn123   2.004   .     S
N112   Zn124   2.004   .     S
O113   Zn123   2.000   .     S
O115   Zn124   2.000   .     S
O116   Zn123   2.000   .     S
O117   Zn124   2.000   .     S
O118   Zn123   2.020   .     S
O119   Zn124   2.020   .     S
O120   Zn123   2.019   .     S
O121   Zn124   2.019   .     S
C125   O179    1.281   .     A
C125   O175    1.281   .     A
C125   C126    1.419   .     S
C126   C155    1.397   .     A
C126   C152    1.397   .     A
C127   H159    1.082   .     S
C127   N174    1.366   .     A
C127   C502    1.415   1_545 S
C128   N173    1.366   .     A
C128   H160    1.082   .     S
C128   C315    1.415   .     S
C129   N174    1.366   .     A
C129   H161    1.082   .     S
C129   C500    1.415   1_545 S
C130   H162    1.082   .     S
C130   N173    1.366   .     A
C130   C313    1.415   .     S
C131   O180    1.286   .     A
C131   C137    1.439   .     S
C131   O183    1.286   .     A
C132   O181    1.286   .     A
C132   C135    1.439   .     S
C132   O182    1.286   .     A
C133   H157    1.079   .     S
C133   C135    1.396   .     A
C133   C144    1.393   .     A
C134   H165    1.079   .     S
C134   C145    1.393   .     A
C134   C137    1.396   .     A
C135   C138    1.392   .     A
C136   O177    1.281   .     A
C136   C156    1.419   .     S
C136   O178    1.281   .     A
C137   C139    1.392   .     A
C138   H166    1.085   .     S
C138   C140    1.381   .     A
C139   H167    1.085   .     S
C139   C141    1.381   .     A
C140   C142    1.411   .     A
C140   C146    1.396   .     A
C141   C148    1.396   .     A
C141   C143    1.411   .     A
C142   C144    1.421   .     A
C142   C701    1.393   .     S
C143   C145    1.421   .     A
C143   C700    1.393   1_554 S
C144   C151    1.419   .     A
C145   C147    1.419   .     A
C146   H168    1.086   .     S
C146   C705    1.392   .     S
C147   C149    1.486   .     S
C147   C704    1.392   1_554 S
C148   H169    1.086   .     S
C148   C709    1.392   1_554 S
C149   H163    1.085   .     S
C149   O184    1.220   .     D
C150   O176    1.220   .     D
C150   H164    1.085   .     S
C150   C151    1.486   .     S
C151   C706    1.392   .     S
C152   H170    1.084   .     S
C153   H171    1.084   .     S
C153   C156    1.397   .     A
C153   C31     1.370   1_655 S
C154   H172    1.084   .     S
C154   C156    1.397   .     A
C154   C28     1.370   1_655 S
C155   H158    1.084   .     S
N173   Zn185   2.004   .     S
N174   Zn186   2.004   .     S
O175   Zn185   2.000   .     S
O177   Zn186   2.000   .     S
O178   Zn185   2.000   .     S
O179   Zn186   2.000   .     S
O180   Zn185   2.020   .     S
O181   Zn186   2.020   .     S
O182   Zn185   2.019   .     S
O183   Zn186   2.019   .     S
C187   O241    1.281   .     A
C187   O237    1.281   .     A
C187   C188    1.419   .     S
C188   C217    1.397   .     A
C188   C214    1.397   .     A
C189   H221    1.082   .     S
C189   N236    1.366   .     A
C190   N235    1.366   .     A
C190   H222    1.082   .     S
C190   C377    1.415   .     S
C191   N236    1.366   .     A
C191   H223    1.082   .     S
C192   H224    1.082   .     S
C192   N235    1.366   .     A
C192   C375    1.415   .     S
C193   O242    1.286   .     A
C193   C199    1.439   .     S
C193   O245    1.286   .     A
C194   O243    1.286   .     A
C194   C197    1.439   .     S
C194   O244    1.286   .     A
C195   H219    1.079   .     S
C195   C197    1.396   .     A
C195   C206    1.393   .     A
C196   H227    1.079   .     S
C196   C207    1.393   .     A
C196   C199    1.396   .     A
C197   C200    1.392   .     A
C198   O239    1.281   .     A
C198   C218    1.419   .     S
C198   O240    1.281   .     A
C199   C201    1.392   .     A
C200   H228    1.085   .     S
C200   C202    1.381   .     A
C201   H229    1.085   .     S
C201   C203    1.381   .     A
C202   C204    1.411   .     A
C202   C208    1.396   .     A
C203   C210    1.396   .     A
C203   C205    1.411   .     A
C204   C206    1.421   .     A
C204   C763    1.393   .     S
C205   C207    1.421   .     A
C205   C762    1.393   1_554 S
C206   C213    1.419   .     A
C207   C209    1.419   .     A
C208   H230    1.086   .     S
C208   C767    1.392   .     S
C209   C211    1.486   .     S
C209   C766    1.392   1_554 S
C210   H231    1.086   .     S
C210   C771    1.392   1_554 S
C211   H225    1.085   .     S
C211   O246    1.220   .     D
C212   O238    1.220   .     D
C212   H226    1.085   .     S
C212   C213    1.486   .     S
C213   C768    1.392   .     S
C214   H232    1.084   .     S
C214   C340    1.370   1_455 S
C215   H233    1.084   .     S
C215   C218    1.397   .     A
C215   C279    1.370   .     S
C216   H234    1.084   .     S
C216   C218    1.397   .     A
C216   C276    1.370   .     S
C217   H220    1.084   .     S
C217   C339    1.370   1_455 S
N235   Zn247   2.004   .     S
N236   Zn248   2.004   .     S
O237   Zn247   2.000   .     S
O239   Zn248   2.000   .     S
O240   Zn247   2.000   .     S
O241   Zn248   2.000   .     S
O242   Zn247   2.020   .     S
O243   Zn248   2.020   .     S
O244   Zn247   2.019   .     S
O245   Zn248   2.019   .     S
C249   O303    1.281   .     A
C249   O299    1.281   .     A
C249   C250    1.419   .     S
C250   C279    1.397   .     A
C250   C276    1.397   .     A
C251   H283    1.082   .     S
C251   N298    1.366   .     A
C252   N297    1.366   .     A
C252   H284    1.082   .     S
C252   C439    1.415   .     S
C253   N298    1.366   .     A
C253   H285    1.082   .     S
C254   H286    1.082   .     S
C254   N297    1.366   .     A
C254   C437    1.415   .     S
C255   O304    1.286   .     A
C255   C261    1.439   .     S
C255   O307    1.286   .     A
C256   O305    1.286   .     A
C256   C259    1.439   .     S
C256   O306    1.286   .     A
C257   H281    1.079   .     S
C257   C259    1.396   .     A
C257   C268    1.393   .     A
C258   H289    1.079   .     S
C258   C269    1.393   .     A
C258   C261    1.396   .     A
C259   C262    1.392   .     A
C260   O301    1.281   .     A
C260   C280    1.419   .     S
C260   O302    1.281   .     A
C261   C263    1.392   .     A
C262   H290    1.085   .     S
C262   C264    1.381   .     A
C263   H291    1.085   .     S
C263   C265    1.381   .     A
C264   C266    1.411   .     A
C264   C270    1.396   .     A
C265   C272    1.396   .     A
C265   C267    1.411   .     A
C266   C268    1.421   .     A
C266   C825    1.393   .     S
C267   C269    1.421   .     A
C267   C824    1.393   1_554 S
C268   C275    1.419   .     A
C269   C271    1.419   .     A
C270   H292    1.086   .     S
C270   C829    1.392   .     S
C271   C273    1.486   .     S
C271   C828    1.392   1_554 S
C272   H293    1.086   .     S
C272   C833    1.392   1_554 S
C273   H287    1.085   .     S
C273   O308    1.220   .     D
C274   O300    1.220   .     D
C274   H288    1.085   .     S
C274   C275    1.486   .     S
C275   C830    1.392   .     S
C276   H294    1.084   .     S
C277   H295    1.084   .     S
C277   C280    1.397   .     A
C277   C341    1.370   .     S
C278   H296    1.084   .     S
C278   C280    1.397   .     A
C278   C338    1.370   .     S
C279   H282    1.084   .     S
N297   Zn309   2.004   .     S
N298   Zn310   2.004   .     S
O299   Zn309   2.000   .     S
O301   Zn310   2.000   .     S
O302   Zn309   2.000   .     S
O303   Zn310   2.000   .     S
O304   Zn309   2.020   .     S
O305   Zn310   2.020   .     S
O306   Zn309   2.019   .     S
O307   Zn310   2.019   .     S
C311   O365    1.281   .     A
C311   O361    1.281   .     A
C311   C312    1.419   .     S
C312   C341    1.397   .     A
C312   C338    1.397   .     A
C313   H345    1.082   .     S
C313   N360    1.366   .     A
C314   N359    1.366   .     A
C314   H346    1.082   .     S
C314   C501    1.415   .     S
C315   N360    1.366   .     A
C315   H347    1.082   .     S
C316   H348    1.082   .     S
C316   N359    1.366   .     A
C316   C499    1.415   .     S
C317   O366    1.286   .     A
C317   C323    1.439   .     S
C317   O369    1.286   .     A
C318   O367    1.286   .     A
C318   C321    1.439   .     S
C318   O368    1.286   .     A
C319   H343    1.079   .     S
C319   C321    1.396   .     A
C319   C330    1.393   .     A
C320   H351    1.079   .     S
C320   C331    1.393   .     A
C320   C323    1.396   .     A
C321   C324    1.392   .     A
C322   O363    1.281   .     A
C322   C342    1.419   .     S
C322   O364    1.281   .     A
C323   C325    1.392   .     A
C324   H352    1.085   .     S
C324   C326    1.381   .     A
C325   H353    1.085   .     S
C325   C327    1.381   .     A
C326   C328    1.411   .     A
C326   C332    1.396   .     A
C327   C334    1.396   .     A
C327   C329    1.411   .     A
C328   C330    1.421   .     A
C328   C887    1.393   .     S
C329   C331    1.421   .     A
C329   C886    1.393   1_554 S
C330   C337    1.419   .     A
C331   C333    1.419   .     A
C332   H354    1.086   .     S
C332   C891    1.392   .     S
C333   C335    1.486   .     S
C333   C890    1.392   1_554 S
C334   H355    1.086   .     S
C334   C895    1.392   1_554 S
C335   H349    1.085   .     S
C335   O370    1.220   .     D
C336   O362    1.220   .     D
C336   H350    1.085   .     S
C336   C337    1.486   .     S
C337   C892    1.392   .     S
C338   H356    1.084   .     S
C339   H357    1.084   .     S
C339   C342    1.397   .     A
C339   C217    1.370   1_655 S
C340   H358    1.084   .     S
C340   C342    1.397   .     A
C340   C214    1.370   1_655 S
C341   H344    1.084   .     S
N359   Zn371   2.004   .     S
N360   Zn372   2.004   .     S
O361   Zn371   2.000   .     S
O363   Zn372   2.000   .     S
O364   Zn371   2.000   .     S
O365   Zn372   2.000   .     S
O366   Zn371   2.020   .     S
O367   Zn372   2.020   .     S
O368   Zn371   2.019   .     S
O369   Zn372   2.019   .     S
C373   O427    1.281   .     A
C373   O423    1.281   .     A
C373   C374    1.419   .     S
C374   C403    1.397   .     A
C374   C400    1.397   .     A
C375   H407    1.082   .     S
C375   N422    1.366   .     A
C376   N421    1.366   .     A
C376   H408    1.082   .     S
C376   C5      1.415   1_565 S
C377   N422    1.366   .     A
C377   H409    1.082   .     S
C378   H410    1.082   .     S
C378   N421    1.366   .     A
C378   C3      1.415   1_565 S
C379   O428    1.286   .     A
C379   C385    1.439   .     S
C379   O431    1.286   .     A
C380   O429    1.286   .     A
C380   C383    1.439   .     S
C380   O430    1.286   .     A
C381   H405    1.079   .     S
C381   C383    1.396   .     A
C381   C392    1.393   .     A
C382   H413    1.079   .     S
C382   C393    1.393   .     A
C382   C385    1.396   .     A
C383   C386    1.392   .     A
C384   O425    1.281   .     A
C384   C404    1.419   .     S
C384   O426    1.281   .     A
C385   C387    1.392   .     A
C386   H414    1.085   .     S
C386   C388    1.381   .     A
C387   H415    1.085   .     S
C387   C389    1.381   .     A
C388   C390    1.411   .     A
C388   C394    1.396   .     A
C389   C396    1.396   .     A
C389   C391    1.411   .     A
C390   C392    1.421   .     A
C390   C949    1.393   .     S
C391   C393    1.421   .     A
C391   C948    1.393   1_554 S
C392   C399    1.419   .     A
C393   C395    1.419   .     A
C394   H416    1.086   .     S
C394   C953    1.392   .     S
C395   C397    1.486   .     S
C395   C952    1.392   1_554 S
C396   H417    1.086   .     S
C396   C957    1.392   1_554 S
C397   H411    1.085   .     S
C397   O432    1.220   .     D
C398   O424    1.220   .     D
C398   H412    1.085   .     S
C398   C399    1.486   .     S
C399   C954    1.392   .     S
C400   H418    1.084   .     S
C400   C526    1.370   1_455 S
C401   H419    1.084   .     S
C401   C404    1.397   .     A
C401   C465    1.370   .     S
C402   H420    1.084   .     S
C402   C404    1.397   .     A
C402   C462    1.370   .     S
C403   H406    1.084   .     S
C403   C525    1.370   1_455 S
N421   Zn433   2.004   .     S
N422   Zn434   2.004   .     S
O423   Zn433   2.000   .     S
O425   Zn434   2.000   .     S
O426   Zn433   2.000   .     S
O427   Zn434   2.000   .     S
O428   Zn433   2.020   .     S
O429   Zn434   2.020   .     S
O430   Zn433   2.019   .     S
O431   Zn434   2.019   .     S
C435   O489    1.281   .     A
C435   O485    1.281   .     A
C435   C436    1.419   .     S
C436   C465    1.397   .     A
C436   C462    1.397   .     A
C437   H469    1.082   .     S
C437   N484    1.366   .     A
C438   N483    1.366   .     A
C438   H470    1.082   .     S
C438   C67     1.415   1_565 S
C439   N484    1.366   .     A
C439   H471    1.082   .     S
C440   H472    1.082   .     S
C440   N483    1.366   .     A
C440   C65     1.415   1_565 S
C441   O490    1.286   .     A
C441   C447    1.439   .     S
C441   O493    1.286   .     A
C442   O491    1.286   .     A
C442   C445    1.439   .     S
C442   O492    1.286   .     A
C443   H467    1.079   .     S
C443   C445    1.396   .     A
C443   C454    1.393   .     A
C444   H475    1.079   .     S
C444   C455    1.393   .     A
C444   C447    1.396   .     A
C445   C448    1.392   .     A
C446   O487    1.281   .     A
C446   C466    1.419   .     S
C446   O488    1.281   .     A
C447   C449    1.392   .     A
C448   H476    1.085   .     S
C448   C450    1.381   .     A
C449   H477    1.085   .     S
C449   C451    1.381   .     A
C450   C452    1.411   .     A
C450   C456    1.396   .     A
C451   C458    1.396   .     A
C451   C453    1.411   .     A
C452   C454    1.421   .     A
C452   C1011   1.393   .     S
C453   C455    1.421   .     A
C453   C1010   1.393   1_554 S
C454   C461    1.419   .     A
C455   C457    1.419   .     A
C456   H478    1.086   .     S
C456   C1015   1.392   .     S
C457   C459    1.486   .     S
C457   C1014   1.392   1_554 S
C458   H479    1.086   .     S
C458   C1019   1.392   1_554 S
C459   H473    1.085   .     S
C459   O494    1.220   .     D
C460   O486    1.220   .     D
C460   H474    1.085   .     S
C460   C461    1.486   .     S
C461   C1016   1.392   .     S
C462   H480    1.084   .     S
C463   H481    1.084   .     S
C463   C466    1.397   .     A
C463   C527    1.370   .     S
C464   H482    1.084   .     S
C464   C466    1.397   .     A
C464   C524    1.370   .     S
C465   H468    1.084   .     S
N483   Zn495   2.004   .     S
N484   Zn496   2.004   .     S
O485   Zn495   2.000   .     S
O487   Zn496   2.000   .     S
O488   Zn495   2.000   .     S
O489   Zn496   2.000   .     S
O490   Zn495   2.020   .     S
O491   Zn496   2.020   .     S
O492   Zn495   2.019   .     S
O493   Zn496   2.019   .     S
C497   O551    1.281   .     A
C497   O547    1.281   .     A
C497   C498    1.419   .     S
C498   C527    1.397   .     A
C498   C524    1.397   .     A
C499   H531    1.082   .     S
C499   N546    1.366   .     A
C500   N545    1.366   .     A
C500   H532    1.082   .     S
C500   C129    1.415   1_565 S
C501   N546    1.366   .     A
C501   H533    1.082   .     S
C502   H534    1.082   .     S
C502   N545    1.366   .     A
C502   C127    1.415   1_565 S
C503   O552    1.286   .     A
C503   C509    1.439   .     S
C503   O555    1.286   .     A
C504   O553    1.286   .     A
C504   C507    1.439   .     S
C504   O554    1.286   .     A
C505   H529    1.079   .     S
C505   C507    1.396   .     A
C505   C516    1.393   .     A
C506   H537    1.079   .     S
C506   C517    1.393   .     A
C506   C509    1.396   .     A
C507   C510    1.392   .     A
C508   O549    1.281   .     A
C508   C528    1.419   .     S
C508   O550    1.281   .     A
C509   C511    1.392   .     A
C510   H538    1.085   .     S
C510   C512    1.381   .     A
C511   H539    1.085   .     S
C511   C513    1.381   .     A
C512   C514    1.411   .     A
C512   C518    1.396   .     A
C513   C520    1.396   .     A
C513   C515    1.411   .     A
C514   C516    1.421   .     A
C514   C1073   1.393   .     S
C515   C517    1.421   .     A
C515   C1072   1.393   1_554 S
C516   C523    1.419   .     A
C517   C519    1.419   .     A
C518   H540    1.086   .     S
C518   C1077   1.392   .     S
C519   C521    1.486   .     S
C519   C1076   1.392   1_554 S
C520   H541    1.086   .     S
C520   C1081   1.392   1_554 S
C521   H535    1.085   .     S
C521   O556    1.220   .     D
C522   O548    1.220   .     D
C522   H536    1.085   .     S
C522   C523    1.486   .     S
C523   C1078   1.392   .     S
C524   H542    1.084   .     S
C525   H543    1.084   .     S
C525   C528    1.397   .     A
C525   C403    1.370   1_655 S
C526   H544    1.084   .     S
C526   C528    1.397   .     A
C526   C400    1.370   1_655 S
C527   H530    1.084   .     S
N545   Zn557   2.004   .     S
N546   Zn558   2.004   .     S
O547   Zn557   2.000   .     S
O549   Zn558   2.000   .     S
O550   Zn557   2.000   .     S
O551   Zn558   2.000   .     S
O552   Zn557   2.020   .     S
O553   Zn558   2.020   .     S
O554   Zn557   2.019   .     S
O555   Zn558   2.019   .     S
C559   O613    1.281   .     A
C559   O609    1.281   .     A
C559   C560    1.419   .     S
C560   C589    1.397   .     A
C560   C586    1.397   .     A
C561   H593    1.082   .     S
C561   N608    1.366   .     A
C561   C936    1.415   1_545 S
C562   N607    1.366   .     A
C562   H594    1.082   .     S
C562   C749    1.415   .     S
C563   N608    1.366   .     A
C563   H595    1.082   .     S
C563   C934    1.415   1_545 S
C564   H596    1.082   .     S
C564   N607    1.366   .     A
C564   C747    1.415   .     S
C565   O614    1.286   .     A
C565   C571    1.439   .     S
C565   O617    1.286   .     A
C566   O615    1.286   .     A
C566   C569    1.439   .     S
C566   O616    1.286   .     A
C567   H591    1.079   .     S
C567   C569    1.396   .     A
C567   C578    1.393   .     A
C568   H599    1.079   .     S
C568   C579    1.393   .     A
C568   C571    1.396   .     A
C569   C572    1.392   .     A
C570   O611    1.281   .     A
C570   C590    1.419   .     S
C570   O612    1.281   .     A
C571   C573    1.392   .     A
C572   H600    1.085   .     S
C572   C574    1.381   .     A
C573   H601    1.085   .     S
C573   C575    1.381   .     A
C574   C576    1.411   .     A
C574   C580    1.396   .     A
C575   C582    1.396   .     A
C575   C577    1.411   .     A
C576   C578    1.421   .     A
C576   C19     1.393   1_556 S
C577   C579    1.421   .     A
C578   C585    1.419   .     A
C579   C581    1.419   .     A
C580   H602    1.086   .     S
C580   C23     1.392   1_556 S
C581   C583    1.486   .     S
C582   H603    1.086   .     S
C583   H597    1.085   .     S
C583   O618    1.220   .     D
C584   O610    1.220   .     D
C584   H598    1.085   .     S
C584   C585    1.486   .     S
C585   C24     1.392   1_556 S
C586   H604    1.084   .     S
C586   C712    1.370   1_455 S
C587   H605    1.084   .     S
C587   C590    1.397   .     A
C587   C651    1.370   .     S
C588   H606    1.084   .     S
C588   C590    1.397   .     A
C588   C648    1.370   .     S
C589   H592    1.084   .     S
C589   C711    1.370   1_455 S
N607   Zn619   2.004   .     S
N608   Zn620   2.004   .     S
O609   Zn619   2.000   .     S
O611   Zn620   2.000   .     S
O612   Zn619   2.000   .     S
O613   Zn620   2.000   .     S
O614   Zn619   2.020   .     S
O615   Zn620   2.020   .     S
O616   Zn619   2.019   .     S
O617   Zn620   2.019   .     S
C621   O675    1.281   .     A
C621   O671    1.281   .     A
C621   C622    1.419   .     S
C622   C651    1.397   .     A
C622   C648    1.397   .     A
C623   H655    1.082   .     S
C623   N670    1.366   .     A
C623   C998    1.415   1_545 S
C624   N669    1.366   .     A
C624   H656    1.082   .     S
C624   C811    1.415   .     S
C625   N670    1.366   .     A
C625   H657    1.082   .     S
C625   C996    1.415   1_545 S
C626   H658    1.082   .     S
C626   N669    1.366   .     A
C626   C809    1.415   .     S
C627   O676    1.286   .     A
C627   C633    1.439   .     S
C627   O679    1.286   .     A
C628   O677    1.286   .     A
C628   C631    1.439   .     S
C628   O678    1.286   .     A
C629   H653    1.079   .     S
C629   C631    1.396   .     A
C629   C640    1.393   .     A
C630   H661    1.079   .     S
C630   C641    1.393   .     A
C630   C633    1.396   .     A
C631   C634    1.392   .     A
C632   O673    1.281   .     A
C632   C652    1.419   .     S
C632   O674    1.281   .     A
C633   C635    1.392   .     A
C634   H662    1.085   .     S
C634   C636    1.381   .     A
C635   H663    1.085   .     S
C635   C637    1.381   .     A
C636   C638    1.411   .     A
C636   C642    1.396   .     A
C637   C644    1.396   .     A
C637   C639    1.411   .     A
C638   C640    1.421   .     A
C638   C81     1.393   1_556 S
C639   C641    1.421   .     A
C640   C647    1.419   .     A
C641   C643    1.419   .     A
C642   H664    1.086   .     S
C642   C85     1.392   1_556 S
C643   C645    1.486   .     S
C644   H665    1.086   .     S
C645   H659    1.085   .     S
C645   O680    1.220   .     D
C646   O672    1.220   .     D
C646   H660    1.085   .     S
C646   C647    1.486   .     S
C647   C86     1.392   1_556 S
C648   H666    1.084   .     S
C649   H667    1.084   .     S
C649   C652    1.397   .     A
C649   C713    1.370   .     S
C650   H668    1.084   .     S
C650   C652    1.397   .     A
C650   C710    1.370   .     S
C651   H654    1.084   .     S
N669   Zn681   2.004   .     S
N670   Zn682   2.004   .     S
O671   Zn681   2.000   .     S
O673   Zn682   2.000   .     S
O674   Zn681   2.000   .     S
O675   Zn682   2.000   .     S
O676   Zn681   2.020   .     S
O677   Zn682   2.020   .     S
O678   Zn681   2.019   .     S
O679   Zn682   2.019   .     S
C683   O737    1.281   .     A
C683   O733    1.281   .     A
C683   C684    1.419   .     S
C684   C713    1.397   .     A
C684   C710    1.397   .     A
C685   H717    1.082   .     S
C685   N732    1.366   .     A
C685   C1060   1.415   1_545 S
C686   N731    1.366   .     A
C686   H718    1.082   .     S
C686   C873    1.415   .     S
C687   N732    1.366   .     A
C687   H719    1.082   .     S
C687   C1058   1.415   1_545 S
C688   H720    1.082   .     S
C688   N731    1.366   .     A
C688   C871    1.415   .     S
C689   O738    1.286   .     A
C689   C695    1.439   .     S
C689   O741    1.286   .     A
C690   O739    1.286   .     A
C690   C693    1.439   .     S
C690   O740    1.286   .     A
C691   H715    1.079   .     S
C691   C693    1.396   .     A
C691   C702    1.393   .     A
C692   H723    1.079   .     S
C692   C703    1.393   .     A
C692   C695    1.396   .     A
C693   C696    1.392   .     A
C694   O735    1.281   .     A
C694   C714    1.419   .     S
C694   O736    1.281   .     A
C695   C697    1.392   .     A
C696   H724    1.085   .     S
C696   C698    1.381   .     A
C697   H725    1.085   .     S
C697   C699    1.381   .     A
C698   C700    1.411   .     A
C698   C704    1.396   .     A
C699   C706    1.396   .     A
C699   C701    1.411   .     A
C700   C702    1.421   .     A
C700   C143    1.393   1_556 S
C701   C703    1.421   .     A
C702   C709    1.419   .     A
C703   C705    1.419   .     A
C704   H726    1.086   .     S
C704   C147    1.392   1_556 S
C705   C707    1.486   .     S
C706   H727    1.086   .     S
C707   H721    1.085   .     S
C707   O742    1.220   .     D
C708   O734    1.220   .     D
C708   H722    1.085   .     S
C708   C709    1.486   .     S
C709   C148    1.392   1_556 S
C710   H728    1.084   .     S
C711   H729    1.084   .     S
C711   C714    1.397   .     A
C711   C589    1.370   1_655 S
C712   H730    1.084   .     S
C712   C714    1.397   .     A
C712   C586    1.370   1_655 S
C713   H716    1.084   .     S
N731   Zn743   2.004   .     S
N732   Zn744   2.004   .     S
O733   Zn743   2.000   .     S
O735   Zn744   2.000   .     S
O736   Zn743   2.000   .     S
O737   Zn744   2.000   .     S
O738   Zn743   2.020   .     S
O739   Zn744   2.020   .     S
O740   Zn743   2.019   .     S
O741   Zn744   2.019   .     S
C745   O799    1.281   .     A
C745   O795    1.281   .     A
C745   C746    1.419   .     S
C746   C775    1.397   .     A
C746   C772    1.397   .     A
C747   H779    1.082   .     S
C747   N794    1.366   .     A
C748   N793    1.366   .     A
C748   H780    1.082   .     S
C748   C935    1.415   .     S
C749   N794    1.366   .     A
C749   H781    1.082   .     S
C750   H782    1.082   .     S
C750   N793    1.366   .     A
C750   C933    1.415   .     S
C751   O800    1.286   .     A
C751   C757    1.439   .     S
C751   O803    1.286   .     A
C752   O801    1.286   .     A
C752   C755    1.439   .     S
C752   O802    1.286   .     A
C753   H777    1.079   .     S
C753   C755    1.396   .     A
C753   C764    1.393   .     A
C754   H785    1.079   .     S
C754   C765    1.393   .     A
C754   C757    1.396   .     A
C755   C758    1.392   .     A
C756   O797    1.281   .     A
C756   C776    1.419   .     S
C756   O798    1.281   .     A
C757   C759    1.392   .     A
C758   H786    1.085   .     S
C758   C760    1.381   .     A
C759   H787    1.085   .     S
C759   C761    1.381   .     A
C760   C762    1.411   .     A
C760   C766    1.396   .     A
C761   C768    1.396   .     A
C761   C763    1.411   .     A
C762   C764    1.421   .     A
C762   C205    1.393   1_556 S
C763   C765    1.421   .     A
C764   C771    1.419   .     A
C765   C767    1.419   .     A
C766   H788    1.086   .     S
C766   C209    1.392   1_556 S
C767   C769    1.486   .     S
C768   H789    1.086   .     S
C769   H783    1.085   .     S
C769   O804    1.220   .     D
C770   O796    1.220   .     D
C770   H784    1.085   .     S
C770   C771    1.486   .     S
C771   C210    1.392   1_556 S
C772   H790    1.084   .     S
C772   C898    1.370   1_455 S
C773   H791    1.084   .     S
C773   C776    1.397   .     A
C773   C837    1.370   .     S
C774   H792    1.084   .     S
C774   C776    1.397   .     A
C774   C834    1.370   .     S
C775   H778    1.084   .     S
C775   C897    1.370   1_455 S
N793   Zn805   2.004   .     S
N794   Zn806   2.004   .     S
O795   Zn805   2.000   .     S
O797   Zn806   2.000   .     S
O798   Zn805   2.000   .     S
O799   Zn806   2.000   .     S
O800   Zn805   2.020   .     S
O801   Zn806   2.020   .     S
O802   Zn805   2.019   .     S
O803   Zn806   2.019   .     S
C807   O861    1.281   .     A
C807   O857    1.281   .     A
C807   C808    1.419   .     S
C808   C837    1.397   .     A
C808   C834    1.397   .     A
C809   H841    1.082   .     S
C809   N856    1.366   .     A
C810   N855    1.366   .     A
C810   H842    1.082   .     S
C810   C997    1.415   .     S
C811   N856    1.366   .     A
C811   H843    1.082   .     S
C812   H844    1.082   .     S
C812   N855    1.366   .     A
C812   C995    1.415   .     S
C813   O862    1.286   .     A
C813   C819    1.439   .     S
C813   O865    1.286   .     A
C814   O863    1.286   .     A
C814   C817    1.439   .     S
C814   O864    1.286   .     A
C815   H839    1.079   .     S
C815   C817    1.396   .     A
C815   C826    1.393   .     A
C816   H847    1.079   .     S
C816   C827    1.393   .     A
C816   C819    1.396   .     A
C817   C820    1.392   .     A
C818   O859    1.281   .     A
C818   C838    1.419   .     S
C818   O860    1.281   .     A
C819   C821    1.392   .     A
C820   H848    1.085   .     S
C820   C822    1.381   .     A
C821   H849    1.085   .     S
C821   C823    1.381   .     A
C822   C824    1.411   .     A
C822   C828    1.396   .     A
C823   C830    1.396   .     A
C823   C825    1.411   .     A
C824   C826    1.421   .     A
C824   C267    1.393   1_556 S
C825   C827    1.421   .     A
C826   C833    1.419   .     A
C827   C829    1.419   .     A
C828   H850    1.086   .     S
C828   C271    1.392   1_556 S
C829   C831    1.486   .     S
C830   H851    1.086   .     S
C831   H845    1.085   .     S
C831   O866    1.220   .     D
C832   O858    1.220   .     D
C832   H846    1.085   .     S
C832   C833    1.486   .     S
C833   C272    1.392   1_556 S
C834   H852    1.084   .     S
C835   H853    1.084   .     S
C835   C838    1.397   .     A
C835   C899    1.370   .     S
C836   H854    1.084   .     S
C836   C838    1.397   .     A
C836   C896    1.370   .     S
C837   H840    1.084   .     S
N855   Zn867   2.004   .     S
N856   Zn868   2.004   .     S
O857   Zn867   2.000   .     S
O859   Zn868   2.000   .     S
O860   Zn867   2.000   .     S
O861   Zn868   2.000   .     S
O862   Zn867   2.020   .     S
O863   Zn868   2.020   .     S
O864   Zn867   2.019   .     S
O865   Zn868   2.019   .     S
C869   O923    1.281   .     A
C869   O919    1.281   .     A
C869   C870    1.419   .     S
C870   C899    1.397   .     A
C870   C896    1.397   .     A
C871   H903    1.082   .     S
C871   N918    1.366   .     A
C872   N917    1.366   .     A
C872   H904    1.082   .     S
C872   C1059   1.415   .     S
C873   N918    1.366   .     A
C873   H905    1.082   .     S
C874   H906    1.082   .     S
C874   N917    1.366   .     A
C874   C1057   1.415   .     S
C875   O924    1.286   .     A
C875   C881    1.439   .     S
C875   O927    1.286   .     A
C876   O925    1.286   .     A
C876   C879    1.439   .     S
C876   O926    1.286   .     A
C877   H901    1.079   .     S
C877   C879    1.396   .     A
C877   C888    1.393   .     A
C878   H909    1.079   .     S
C878   C889    1.393   .     A
C878   C881    1.396   .     A
C879   C882    1.392   .     A
C880   O921    1.281   .     A
C880   C900    1.419   .     S
C880   O922    1.281   .     A
C881   C883    1.392   .     A
C882   H910    1.085   .     S
C882   C884    1.381   .     A
C883   H911    1.085   .     S
C883   C885    1.381   .     A
C884   C886    1.411   .     A
C884   C890    1.396   .     A
C885   C892    1.396   .     A
C885   C887    1.411   .     A
C886   C888    1.421   .     A
C886   C329    1.393   1_556 S
C887   C889    1.421   .     A
C888   C895    1.419   .     A
C889   C891    1.419   .     A
C890   H912    1.086   .     S
C890   C333    1.392   1_556 S
C891   C893    1.486   .     S
C892   H913    1.086   .     S
C893   H907    1.085   .     S
C893   O928    1.220   .     D
C894   O920    1.220   .     D
C894   H908    1.085   .     S
C894   C895    1.486   .     S
C895   C334    1.392   1_556 S
C896   H914    1.084   .     S
C897   H915    1.084   .     S
C897   C900    1.397   .     A
C897   C775    1.370   1_655 S
C898   H916    1.084   .     S
C898   C900    1.397   .     A
C898   C772    1.370   1_655 S
C899   H902    1.084   .     S
N917   Zn929   2.004   .     S
N918   Zn930   2.004   .     S
O919   Zn929   2.000   .     S
O921   Zn930   2.000   .     S
O922   Zn929   2.000   .     S
O923   Zn930   2.000   .     S
O924   Zn929   2.020   .     S
O925   Zn930   2.020   .     S
O926   Zn929   2.019   .     S
O927   Zn930   2.019   .     S
C931   O985    1.281   .     A
C931   O981    1.281   .     A
C931   C932    1.419   .     S
C932   C961    1.397   .     A
C932   C958    1.397   .     A
C933   H965    1.082   .     S
C933   N980    1.366   .     A
C934   N979    1.366   .     A
C934   H966    1.082   .     S
C934   C563    1.415   1_565 S
C935   N980    1.366   .     A
C935   H967    1.082   .     S
C936   H968    1.082   .     S
C936   N979    1.366   .     A
C936   C561    1.415   1_565 S
C937   O986    1.286   .     A
C937   C943    1.439   .     S
C937   O989    1.286   .     A
C938   O987    1.286   .     A
C938   C941    1.439   .     S
C938   O988    1.286   .     A
C939   H963    1.079   .     S
C939   C941    1.396   .     A
C939   C950    1.393   .     A
C940   H971    1.079   .     S
C940   C951    1.393   .     A
C940   C943    1.396   .     A
C941   C944    1.392   .     A
C942   O983    1.281   .     A
C942   C962    1.419   .     S
C942   O984    1.281   .     A
C943   C945    1.392   .     A
C944   H972    1.085   .     S
C944   C946    1.381   .     A
C945   H973    1.085   .     S
C945   C947    1.381   .     A
C946   C948    1.411   .     A
C946   C952    1.396   .     A
C947   C954    1.396   .     A
C947   C949    1.411   .     A
C948   C950    1.421   .     A
C948   C391    1.393   1_556 S
C949   C951    1.421   .     A
C950   C957    1.419   .     A
C951   C953    1.419   .     A
C952   H974    1.086   .     S
C952   C395    1.392   1_556 S
C953   C955    1.486   .     S
C954   H975    1.086   .     S
C955   H969    1.085   .     S
C955   O990    1.220   .     D
C956   O982    1.220   .     D
C956   H970    1.085   .     S
C956   C957    1.486   .     S
C957   C396    1.392   1_556 S
C958   H976    1.084   .     S
C958   C1084   1.370   1_455 S
C959   H977    1.084   .     S
C959   C962    1.397   .     A
C959   C1023   1.370   .     S
C960   H978    1.084   .     S
C960   C962    1.397   .     A
C960   C1020   1.370   .     S
C961   H964    1.084   .     S
C961   C1083   1.370   1_455 S
N979   Zn991   2.004   .     S
N980   Zn992   2.004   .     S
O981   Zn991   2.000   .     S
O983   Zn992   2.000   .     S
O984   Zn991   2.000   .     S
O985   Zn992   2.000   .     S
O986   Zn991   2.020   .     S
O987   Zn992   2.020   .     S
O988   Zn991   2.019   .     S
O989   Zn992   2.019   .     S
C993   O1047   1.281   .     A
C993   O1043   1.281   .     A
C993   C994    1.419   .     S
C994   C1023   1.397   .     A
C994   C1020   1.397   .     A
C995   H1027   1.082   .     S
C995   N1042   1.366   .     A
C996   N1041   1.366   .     A
C996   H1028   1.082   .     S
C996   C625    1.415   1_565 S
C997   N1042   1.366   .     A
C997   H1029   1.082   .     S
C998   H1030   1.082   .     S
C998   N1041   1.366   .     A
C998   C623    1.415   1_565 S
C999   O1048   1.286   .     A
C999   C1005   1.439   .     S
C999   O1051   1.286   .     A
C1000  O1049   1.286   .     A
C1000  C1003   1.439   .     S
C1000  O1050   1.286   .     A
C1001  H1025   1.079   .     S
C1001  C1003   1.396   .     A
C1001  C1012   1.393   .     A
C1002  H1033   1.079   .     S
C1002  C1013   1.393   .     A
C1002  C1005   1.396   .     A
C1003  C1006   1.392   .     A
C1004  O1045   1.281   .     A
C1004  C1024   1.419   .     S
C1004  O1046   1.281   .     A
C1005  C1007   1.392   .     A
C1006  H1034   1.085   .     S
C1006  C1008   1.381   .     A
C1007  H1035   1.085   .     S
C1007  C1009   1.381   .     A
C1008  C1010   1.411   .     A
C1008  C1014   1.396   .     A
C1009  C1016   1.396   .     A
C1009  C1011   1.411   .     A
C1010  C1012   1.421   .     A
C1010  C453    1.393   1_556 S
C1011  C1013   1.421   .     A
C1012  C1019   1.419   .     A
C1013  C1015   1.419   .     A
C1014  H1036   1.086   .     S
C1014  C457    1.392   1_556 S
C1015  C1017   1.486   .     S
C1016  H1037   1.086   .     S
C1017  H1031   1.085   .     S
C1017  O1052   1.220   .     D
C1018  O1044   1.220   .     D
C1018  H1032   1.085   .     S
C1018  C1019   1.486   .     S
C1019  C458    1.392   1_556 S
C1020  H1038   1.084   .     S
C1021  H1039   1.084   .     S
C1021  C1024   1.397   .     A
C1021  C1085   1.370   .     S
C1022  H1040   1.084   .     S
C1022  C1024   1.397   .     A
C1022  C1082   1.370   .     S
C1023  H1026   1.084   .     S
N1041  Zn1053  2.004   .     S
N1042  Zn1054  2.004   .     S
O1043  Zn1053  2.000   .     S
O1045  Zn1054  2.000   .     S
O1046  Zn1053  2.000   .     S
O1047  Zn1054  2.000   .     S
O1048  Zn1053  2.020   .     S
O1049  Zn1054  2.020   .     S
O1050  Zn1053  2.019   .     S
O1051  Zn1054  2.019   .     S
C1055  O1109   1.281   .     A
C1055  O1105   1.281   .     A
C1055  C1056   1.419   .     S
C1056  C1085   1.397   .     A
C1056  C1082   1.397   .     A
C1057  H1089   1.082   .     S
C1057  N1104   1.366   .     A
C1058  N1103   1.366   .     A
C1058  H1090   1.082   .     S
C1058  C687    1.415   1_565 S
C1059  N1104   1.366   .     A
C1059  H1091   1.082   .     S
C1060  H1092   1.082   .     S
C1060  N1103   1.366   .     A
C1060  C685    1.415   1_565 S
C1061  O1110   1.286   .     A
C1061  C1067   1.439   .     S
C1061  O1113   1.286   .     A
C1062  O1111   1.286   .     A
C1062  C1065   1.439   .     S
C1062  O1112   1.286   .     A
C1063  H1087   1.079   .     S
C1063  C1065   1.396   .     A
C1063  C1074   1.393   .     A
C1064  H1095   1.079   .     S
C1064  C1075   1.393   .     A
C1064  C1067   1.396   .     A
C1065  C1068   1.392   .     A
C1066  O1107   1.281   .     A
C1066  C1086   1.419   .     S
C1066  O1108   1.281   .     A
C1067  C1069   1.392   .     A
C1068  H1096   1.085   .     S
C1068  C1070   1.381   .     A
C1069  H1097   1.085   .     S
C1069  C1071   1.381   .     A
C1070  C1072   1.411   .     A
C1070  C1076   1.396   .     A
C1071  C1078   1.396   .     A
C1071  C1073   1.411   .     A
C1072  C1074   1.421   .     A
C1072  C515    1.393   1_556 S
C1073  C1075   1.421   .     A
C1074  C1081   1.419   .     A
C1075  C1077   1.419   .     A
C1076  H1098   1.086   .     S
C1076  C519    1.392   1_556 S
C1077  C1079   1.486   .     S
C1078  H1099   1.086   .     S
C1079  H1093   1.085   .     S
C1079  O1114   1.220   .     D
C1080  O1106   1.220   .     D
C1080  H1094   1.085   .     S
C1080  C1081   1.486   .     S
C1081  C520    1.392   1_556 S
C1082  H1100   1.084   .     S
C1083  H1101   1.084   .     S
C1083  C1086   1.397   .     A
C1083  C961    1.370   1_655 S
C1084  H1102   1.084   .     S
C1084  C1086   1.397   .     A
C1084  C958    1.370   1_655 S
C1085  H1088   1.084   .     S
N1103  Zn1115  2.004   .     S
N1104  Zn1116  2.004   .     S
O1105  Zn1115  2.000   .     S
O1107  Zn1116  2.000   .     S
O1108  Zn1115  2.000   .     S
O1109  Zn1116  2.000   .     S
O1110  Zn1115  2.020   .     S
O1111  Zn1116  2.020   .     S
O1112  Zn1115  2.019   .     S
O1113  Zn1116  2.019   .     S
