data_str_m2_o10_o18_pcu_sym.32
_audit_creation_date              2020-01-03
_audit_creation_method            'Materials Studio'
_symmetry_space_group_name_H-M    'P1'
_symmetry_Int_Tables_number       1
_symmetry_cell_setting            triclinic
loop_
_symmetry_equiv_pos_as_xyz
  x,y,z
_cell_length_a                    22.3815
_cell_length_b                    26.0766
_cell_length_c                    31.4447
_cell_angle_alpha                 94.2537
_cell_angle_beta                  74.8963
_cell_angle_gamma                 103.2135
loop_
_atom_site_label
_atom_site_type_symbol
_atom_site_fract_x
_atom_site_fract_y
_atom_site_fract_z
_atom_site_U_iso_or_equiv
_atom_site_adp_type
_atom_site_occupancy
C1     C     0.18169   0.26669   0.25131   0.00000  Uiso   1.00
C2     C     0.20543   0.17125   0.16687   0.00000  Uiso   1.00
C3     C     0.10402   0.15404   0.38069   0.00000  Uiso   1.00
C4     C     0.22939   0.18070   0.11951   0.00000  Uiso   1.00
C5     C     0.03002   0.10615   0.44257   0.00000  Uiso   1.00
C6     C     0.30260   0.23079   0.05849   0.00000  Uiso   1.00
C7     C     0.04782   0.11761   0.39784   0.00000  Uiso   1.00
C8     C     0.28481   0.21828   0.10299   0.00000  Uiso   1.00
C9     C     0.14277   0.17742   0.40829   0.00000  Uiso   1.00
C10    C     0.19096   0.15769   0.09162   0.00000  Uiso   1.00
C11    C     0.13163   0.15918   0.45123   0.00000  Uiso   1.00
C12    C     0.15164   0.06664   0.24870   0.00000  Uiso   1.00
C13    C     0.20181   0.17713   0.04913   0.00000  Uiso   1.00
C14    C     0.07143   0.12695   0.46940   0.00000  Uiso   1.00
C15    C     0.26159   0.21007   0.03138   0.00000  Uiso   1.00
C16    C     0.17716   0.17338   0.47703   0.00000  Uiso   1.00
C17    C     0.15625   0.16349   0.02339   0.00000  Uiso   1.00
C18    C     0.05832   0.14609   0.08945   0.00000  Uiso   1.00
C19    C     0.27628   0.19259   0.41146   0.00000  Uiso   1.00
C20    C     0.09061   0.14090   0.04210   0.00000  Uiso   1.00
C21    C     0.24278   0.19670   0.45861   0.00000  Uiso   1.00
C22    C     0.05149   0.11849   0.01446   0.00000  Uiso   1.00
C23    C     0.28142   0.21939   0.48647   0.00000  Uiso   1.00
C24    C     0.19010   0.32269   0.25193   0.00000  Uiso   1.00
C25    C     0.14322   0.01064   0.24810   0.00000  Uiso   1.00
C26    C     0.12793   0.16239   0.33316   0.00000  Uiso   1.00
Cu27   Cu    0.10737   0.16108   0.24517   0.00000  Uiso   1.00
Cu28   Cu    0.22596   0.17225   0.25484   0.00000  Uiso   1.00
H29    H     0.00284   0.09845   0.02858   0.00000  Uiso   1.00
H30    H     0.09805   0.32015   0.24449   0.00000  Uiso   1.00
H31    H     0.00145   0.20569   0.28409   0.00000  Uiso   1.00
H32    H     0.33196   0.12777   0.21578   0.00000  Uiso   1.00
H33    H     0.05185   0.19058   0.14509   0.00000  Uiso   1.00
H34    H     0.01220   0.22617   0.35997   0.00000  Uiso   1.00
H35    H     0.32986   0.24011   0.47263   0.00000  Uiso   1.00
H36    H     0.15186   0.12533   0.10415   0.00000  Uiso   1.00
H37    H     0.18194   0.20948   0.39527   0.00000  Uiso   1.00
H38    H     0.31396   0.23803   0.12445   0.00000  Uiso   1.00
H39    H     0.01791   0.09815   0.37675   0.00000  Uiso   1.00
H40    H     0.31787   0.08024   0.45599   0.00000  Uiso   1.00
H41    H     0.01429   0.25751   0.04549   0.00000  Uiso   1.00
H42    H     0.23527   0.01318   0.25553   0.00000  Uiso   1.00
N43    N     0.31506   0.18068   0.26212   0.00000  Uiso   1.00
N44    N     0.01827   0.15265   0.23788   0.00000  Uiso   1.00
O45    O     0.12815   0.23809   0.24686   0.00000  Uiso   1.00
O46    O     0.07644   0.19211   0.11304   0.00000  Uiso   1.00
O47    O     0.26253   0.15242   0.39017   0.00000  Uiso   1.00
O48    O     0.32550   0.23392   0.39189   0.00000  Uiso   1.00
O49    O     0.20518   0.09524   0.25314   0.00000  Uiso   1.00
O50    O     0.22829   0.24753   0.25503   0.00000  Uiso   1.00
O51    O     0.10504   0.08580   0.24498   0.00000  Uiso   1.00
O52    O     0.08851   0.15930   0.30855   0.00000  Uiso   1.00
O53    O     0.24482   0.17403   0.19146   0.00000  Uiso   1.00
O54    O     0.18866   0.16874   0.31671   0.00000  Uiso   1.00
O55    O     0.14468   0.16460   0.18329   0.00000  Uiso   1.00
O56    O     0.01494   0.11075   0.10759   0.00000  Uiso   1.00
C57    C     0.51502   0.26669   0.25131   0.00000  Uiso   1.00
C58    C     0.53876   0.17125   0.16687   0.00000  Uiso   1.00
C59    C     0.43735   0.15404   0.38069   0.00000  Uiso   1.00
C60    C     0.56273   0.18070   0.11951   0.00000  Uiso   1.00
C61    C     0.36335   0.10615   0.44257   0.00000  Uiso   1.00
C62    C     0.63593   0.23079   0.05849   0.00000  Uiso   1.00
C63    C     0.38116   0.11761   0.39784   0.00000  Uiso   1.00
C64    C     0.61814   0.21828   0.10299   0.00000  Uiso   1.00
C65    C     0.47610   0.17742   0.40829   0.00000  Uiso   1.00
C66    C     0.52430   0.15769   0.09162   0.00000  Uiso   1.00
C67    C     0.46496   0.15918   0.45123   0.00000  Uiso   1.00
C68    C     0.48497   0.06664   0.24870   0.00000  Uiso   1.00
C69    C     0.53514   0.17713   0.04913   0.00000  Uiso   1.00
C70    C     0.40476   0.12695   0.46940   0.00000  Uiso   1.00
C71    C     0.59492   0.21007   0.03138   0.00000  Uiso   1.00
C72    C     0.51049   0.17338   0.47703   0.00000  Uiso   1.00
C73    C     0.48959   0.16349   0.02339   0.00000  Uiso   1.00
C74    C     0.39166   0.14609   0.08945   0.00000  Uiso   1.00
C75    C     0.60962   0.19259   0.41146   0.00000  Uiso   1.00
C76    C     0.42394   0.14090   0.04210   0.00000  Uiso   1.00
C77    C     0.57612   0.19670   0.45861   0.00000  Uiso   1.00
C78    C     0.38483   0.11849   0.01446   0.00000  Uiso   1.00
C79    C     0.61475   0.21939   0.48647   0.00000  Uiso   1.00
C80    C     0.52344   0.32269   0.25193   0.00000  Uiso   1.00
C81    C     0.47655   0.01064   0.24810   0.00000  Uiso   1.00
C82    C     0.46126   0.16239   0.33316   0.00000  Uiso   1.00
Cu83   Cu    0.44071   0.16108   0.24517   0.00000  Uiso   1.00
Cu84   Cu    0.55929   0.17225   0.25484   0.00000  Uiso   1.00
H85    H     0.33617   0.09845   0.02858   0.00000  Uiso   1.00
H86    H     0.43138   0.32015   0.24449   0.00000  Uiso   1.00
H87    H     0.33479   0.20569   0.28409   0.00000  Uiso   1.00
H88    H     0.66529   0.12777   0.21578   0.00000  Uiso   1.00
H89    H     0.38518   0.19058   0.14509   0.00000  Uiso   1.00
H90    H     0.34554   0.22617   0.35997   0.00000  Uiso   1.00
H91    H     0.66319   0.24011   0.47263   0.00000  Uiso   1.00
H92    H     0.48519   0.12533   0.10415   0.00000  Uiso   1.00
H93    H     0.51528   0.20948   0.39527   0.00000  Uiso   1.00
H94    H     0.64729   0.23803   0.12445   0.00000  Uiso   1.00
H95    H     0.35125   0.09815   0.37675   0.00000  Uiso   1.00
H96    H     0.65121   0.08024   0.45599   0.00000  Uiso   1.00
H97    H     0.34763   0.25751   0.04549   0.00000  Uiso   1.00
H98    H     0.56860   0.01318   0.25553   0.00000  Uiso   1.00
N99    N     0.64839   0.18068   0.26212   0.00000  Uiso   1.00
N100   N     0.35161   0.15265   0.23788   0.00000  Uiso   1.00
O101   O     0.46148   0.23809   0.24686   0.00000  Uiso   1.00
O102   O     0.40977   0.19211   0.11304   0.00000  Uiso   1.00
O103   O     0.59586   0.15242   0.39017   0.00000  Uiso   1.00
O104   O     0.65884   0.23392   0.39189   0.00000  Uiso   1.00
O105   O     0.53852   0.09524   0.25314   0.00000  Uiso   1.00
O106   O     0.56163   0.24753   0.25503   0.00000  Uiso   1.00
O107   O     0.43837   0.08580   0.24498   0.00000  Uiso   1.00
O108   O     0.42185   0.15930   0.30855   0.00000  Uiso   1.00
O109   O     0.57815   0.17403   0.19146   0.00000  Uiso   1.00
O110   O     0.52199   0.16874   0.31671   0.00000  Uiso   1.00
O111   O     0.47801   0.16460   0.18329   0.00000  Uiso   1.00
O112   O     0.34828   0.11075   0.10759   0.00000  Uiso   1.00
C113   C     0.84835   0.26669   0.25131   0.00000  Uiso   1.00
C114   C     0.87210   0.17125   0.16687   0.00000  Uiso   1.00
C115   C     0.77068   0.15404   0.38069   0.00000  Uiso   1.00
C116   C     0.89606   0.18070   0.11951   0.00000  Uiso   1.00
C117   C     0.69669   0.10615   0.44257   0.00000  Uiso   1.00
C118   C     0.96927   0.23079   0.05849   0.00000  Uiso   1.00
C119   C     0.71449   0.11761   0.39784   0.00000  Uiso   1.00
C120   C     0.95148   0.21828   0.10299   0.00000  Uiso   1.00
C121   C     0.80943   0.17742   0.40829   0.00000  Uiso   1.00
C122   C     0.85763   0.15769   0.09162   0.00000  Uiso   1.00
C123   C     0.79830   0.15918   0.45123   0.00000  Uiso   1.00
C124   C     0.81831   0.06664   0.24870   0.00000  Uiso   1.00
C125   C     0.86847   0.17713   0.04913   0.00000  Uiso   1.00
C126   C     0.73809   0.12695   0.46940   0.00000  Uiso   1.00
C127   C     0.92826   0.21007   0.03138   0.00000  Uiso   1.00
C128   C     0.84382   0.17338   0.47703   0.00000  Uiso   1.00
C129   C     0.82292   0.16349   0.02339   0.00000  Uiso   1.00
C130   C     0.72499   0.14609   0.08945   0.00000  Uiso   1.00
C131   C     0.94295   0.19259   0.41146   0.00000  Uiso   1.00
C132   C     0.75728   0.14090   0.04210   0.00000  Uiso   1.00
C133   C     0.90945   0.19670   0.45861   0.00000  Uiso   1.00
C134   C     0.71816   0.11849   0.01446   0.00000  Uiso   1.00
C135   C     0.94809   0.21939   0.48647   0.00000  Uiso   1.00
C136   C     0.85677   0.32269   0.25193   0.00000  Uiso   1.00
C137   C     0.80988   0.01064   0.24810   0.00000  Uiso   1.00
C138   C     0.79459   0.16239   0.33316   0.00000  Uiso   1.00
Cu139  Cu    0.77404   0.16108   0.24517   0.00000  Uiso   1.00
Cu140  Cu    0.89263   0.17225   0.25484   0.00000  Uiso   1.00
H141   H     0.66951   0.09845   0.02858   0.00000  Uiso   1.00
H142   H     0.76471   0.32015   0.24449   0.00000  Uiso   1.00
H143   H     0.66812   0.20569   0.28409   0.00000  Uiso   1.00
H144   H     0.99863   0.12777   0.21578   0.00000  Uiso   1.00
H145   H     0.71852   0.19058   0.14509   0.00000  Uiso   1.00
H146   H     0.67887   0.22617   0.35997   0.00000  Uiso   1.00
H147   H     0.99653   0.24011   0.47263   0.00000  Uiso   1.00
H148   H     0.81852   0.12533   0.10415   0.00000  Uiso   1.00
H149   H     0.84861   0.20948   0.39527   0.00000  Uiso   1.00
H150   H     0.98062   0.23803   0.12445   0.00000  Uiso   1.00
H151   H     0.68458   0.09815   0.37675   0.00000  Uiso   1.00
H152   H     0.98454   0.08024   0.45599   0.00000  Uiso   1.00
H153   H     0.68096   0.25751   0.04549   0.00000  Uiso   1.00
H154   H     0.90194   0.01318   0.25553   0.00000  Uiso   1.00
N155   N     0.98173   0.18068   0.26212   0.00000  Uiso   1.00
N156   N     0.68494   0.15265   0.23788   0.00000  Uiso   1.00
O157   O     0.79482   0.23809   0.24686   0.00000  Uiso   1.00
O158   O     0.74311   0.19211   0.11304   0.00000  Uiso   1.00
O159   O     0.92920   0.15242   0.39017   0.00000  Uiso   1.00
O160   O     0.99217   0.23392   0.39189   0.00000  Uiso   1.00
O161   O     0.87185   0.09524   0.25314   0.00000  Uiso   1.00
O162   O     0.89496   0.24753   0.25503   0.00000  Uiso   1.00
O163   O     0.77171   0.08580   0.24498   0.00000  Uiso   1.00
O164   O     0.75518   0.15930   0.30855   0.00000  Uiso   1.00
O165   O     0.91149   0.17403   0.19146   0.00000  Uiso   1.00
O166   O     0.85532   0.16874   0.31671   0.00000  Uiso   1.00
O167   O     0.81134   0.16460   0.18329   0.00000  Uiso   1.00
O168   O     0.68161   0.11075   0.10759   0.00000  Uiso   1.00
C169   C     0.18169   0.60002   0.25131   0.00000  Uiso   1.00
C170   C     0.20543   0.50458   0.16687   0.00000  Uiso   1.00
C171   C     0.10402   0.48737   0.38069   0.00000  Uiso   1.00
C172   C     0.22939   0.51403   0.11951   0.00000  Uiso   1.00
C173   C     0.03002   0.43948   0.44257   0.00000  Uiso   1.00
C174   C     0.30260   0.56413   0.05849   0.00000  Uiso   1.00
C175   C     0.04782   0.45094   0.39784   0.00000  Uiso   1.00
C176   C     0.28481   0.55161   0.10299   0.00000  Uiso   1.00
C177   C     0.14277   0.51075   0.40829   0.00000  Uiso   1.00
C178   C     0.19096   0.49102   0.09162   0.00000  Uiso   1.00
C179   C     0.13163   0.49251   0.45123   0.00000  Uiso   1.00
C180   C     0.15164   0.39998   0.24870   0.00000  Uiso   1.00
C181   C     0.20181   0.51047   0.04913   0.00000  Uiso   1.00
C182   C     0.07143   0.46028   0.46940   0.00000  Uiso   1.00
C183   C     0.26159   0.54340   0.03138   0.00000  Uiso   1.00
C184   C     0.17716   0.50672   0.47703   0.00000  Uiso   1.00
C185   C     0.15625   0.49682   0.02339   0.00000  Uiso   1.00
C186   C     0.05832   0.47942   0.08945   0.00000  Uiso   1.00
C187   C     0.27628   0.52592   0.41146   0.00000  Uiso   1.00
C188   C     0.09061   0.47424   0.04210   0.00000  Uiso   1.00
C189   C     0.24278   0.53003   0.45861   0.00000  Uiso   1.00
C190   C     0.05149   0.45182   0.01446   0.00000  Uiso   1.00
C191   C     0.28142   0.55272   0.48647   0.00000  Uiso   1.00
C192   C     0.19010   0.65602   0.25193   0.00000  Uiso   1.00
C193   C     0.14322   0.34398   0.24810   0.00000  Uiso   1.00
C194   C     0.12793   0.49572   0.33316   0.00000  Uiso   1.00
Cu195  Cu    0.10737   0.49441   0.24517   0.00000  Uiso   1.00
Cu196  Cu    0.22596   0.50559   0.25484   0.00000  Uiso   1.00
H197   H     0.00284   0.43178   0.02858   0.00000  Uiso   1.00
H198   H     0.09805   0.65348   0.24449   0.00000  Uiso   1.00
H199   H     0.00145   0.53902   0.28409   0.00000  Uiso   1.00
H200   H     0.33196   0.46111   0.21578   0.00000  Uiso   1.00
H201   H     0.05185   0.52391   0.14509   0.00000  Uiso   1.00
H202   H     0.01220   0.55950   0.35997   0.00000  Uiso   1.00
H203   H     0.32986   0.57344   0.47263   0.00000  Uiso   1.00
H204   H     0.15186   0.45866   0.10415   0.00000  Uiso   1.00
H205   H     0.18194   0.54281   0.39527   0.00000  Uiso   1.00
H206   H     0.31396   0.57136   0.12445   0.00000  Uiso   1.00
H207   H     0.01791   0.43148   0.37675   0.00000  Uiso   1.00
H208   H     0.31787   0.41358   0.45599   0.00000  Uiso   1.00
H209   H     0.01429   0.59084   0.04549   0.00000  Uiso   1.00
H210   H     0.23527   0.34651   0.25553   0.00000  Uiso   1.00
N211   N     0.31506   0.51401   0.26212   0.00000  Uiso   1.00
N212   N     0.01827   0.48599   0.23788   0.00000  Uiso   1.00
O213   O     0.12815   0.57142   0.24686   0.00000  Uiso   1.00
O214   O     0.07644   0.52544   0.11304   0.00000  Uiso   1.00
O215   O     0.26253   0.48575   0.39017   0.00000  Uiso   1.00
O216   O     0.32550   0.56726   0.39189   0.00000  Uiso   1.00
O217   O     0.20518   0.42858   0.25314   0.00000  Uiso   1.00
O218   O     0.22829   0.58086   0.25503   0.00000  Uiso   1.00
O219   O     0.10504   0.41914   0.24498   0.00000  Uiso   1.00
O220   O     0.08851   0.49263   0.30855   0.00000  Uiso   1.00
O221   O     0.24482   0.50737   0.19146   0.00000  Uiso   1.00
O222   O     0.18866   0.50207   0.31671   0.00000  Uiso   1.00
O223   O     0.14468   0.49793   0.18329   0.00000  Uiso   1.00
O224   O     0.01494   0.44409   0.10759   0.00000  Uiso   1.00
C225   C     0.51502   0.60002   0.25131   0.00000  Uiso   1.00
C226   C     0.53876   0.50458   0.16687   0.00000  Uiso   1.00
C227   C     0.43735   0.48737   0.38069   0.00000  Uiso   1.00
C228   C     0.56273   0.51403   0.11951   0.00000  Uiso   1.00
C229   C     0.36335   0.43948   0.44257   0.00000  Uiso   1.00
C230   C     0.63593   0.56413   0.05849   0.00000  Uiso   1.00
C231   C     0.38116   0.45094   0.39784   0.00000  Uiso   1.00
C232   C     0.61814   0.55161   0.10299   0.00000  Uiso   1.00
C233   C     0.47610   0.51075   0.40829   0.00000  Uiso   1.00
C234   C     0.52430   0.49102   0.09162   0.00000  Uiso   1.00
C235   C     0.46496   0.49251   0.45123   0.00000  Uiso   1.00
C236   C     0.48497   0.39998   0.24870   0.00000  Uiso   1.00
C237   C     0.53514   0.51047   0.04913   0.00000  Uiso   1.00
C238   C     0.40476   0.46028   0.46940   0.00000  Uiso   1.00
C239   C     0.59492   0.54340   0.03138   0.00000  Uiso   1.00
C240   C     0.51049   0.50672   0.47703   0.00000  Uiso   1.00
C241   C     0.48959   0.49682   0.02339   0.00000  Uiso   1.00
C242   C     0.39166   0.47942   0.08945   0.00000  Uiso   1.00
C243   C     0.60962   0.52592   0.41146   0.00000  Uiso   1.00
C244   C     0.42394   0.47424   0.04210   0.00000  Uiso   1.00
C245   C     0.57612   0.53003   0.45861   0.00000  Uiso   1.00
C246   C     0.38483   0.45182   0.01446   0.00000  Uiso   1.00
C247   C     0.61475   0.55272   0.48647   0.00000  Uiso   1.00
C248   C     0.52344   0.65602   0.25193   0.00000  Uiso   1.00
C249   C     0.47655   0.34398   0.24810   0.00000  Uiso   1.00
C250   C     0.46126   0.49572   0.33316   0.00000  Uiso   1.00
Cu251  Cu    0.44071   0.49441   0.24517   0.00000  Uiso   1.00
Cu252  Cu    0.55929   0.50559   0.25484   0.00000  Uiso   1.00
H253   H     0.33617   0.43178   0.02858   0.00000  Uiso   1.00
H254   H     0.43138   0.65348   0.24449   0.00000  Uiso   1.00
H255   H     0.33479   0.53902   0.28409   0.00000  Uiso   1.00
H256   H     0.66529   0.46111   0.21578   0.00000  Uiso   1.00
H257   H     0.38518   0.52391   0.14509   0.00000  Uiso   1.00
H258   H     0.34554   0.55950   0.35997   0.00000  Uiso   1.00
H259   H     0.66319   0.57344   0.47263   0.00000  Uiso   1.00
H260   H     0.48519   0.45866   0.10415   0.00000  Uiso   1.00
H261   H     0.51528   0.54281   0.39527   0.00000  Uiso   1.00
H262   H     0.64729   0.57136   0.12445   0.00000  Uiso   1.00
H263   H     0.35125   0.43148   0.37675   0.00000  Uiso   1.00
H264   H     0.65121   0.41358   0.45599   0.00000  Uiso   1.00
H265   H     0.34763   0.59084   0.04549   0.00000  Uiso   1.00
H266   H     0.56860   0.34651   0.25553   0.00000  Uiso   1.00
N267   N     0.64839   0.51401   0.26212   0.00000  Uiso   1.00
N268   N     0.35161   0.48599   0.23788   0.00000  Uiso   1.00
O269   O     0.46148   0.57142   0.24686   0.00000  Uiso   1.00
O270   O     0.40977   0.52544   0.11304   0.00000  Uiso   1.00
O271   O     0.59586   0.48575   0.39017   0.00000  Uiso   1.00
O272   O     0.65884   0.56726   0.39189   0.00000  Uiso   1.00
O273   O     0.53852   0.42858   0.25314   0.00000  Uiso   1.00
O274   O     0.56163   0.58086   0.25503   0.00000  Uiso   1.00
O275   O     0.43837   0.41914   0.24498   0.00000  Uiso   1.00
O276   O     0.42185   0.49263   0.30855   0.00000  Uiso   1.00
O277   O     0.57815   0.50737   0.19146   0.00000  Uiso   1.00
O278   O     0.52199   0.50207   0.31671   0.00000  Uiso   1.00
O279   O     0.47801   0.49793   0.18329   0.00000  Uiso   1.00
O280   O     0.34828   0.44409   0.10759   0.00000  Uiso   1.00
C281   C     0.84835   0.60002   0.25131   0.00000  Uiso   1.00
C282   C     0.87210   0.50458   0.16687   0.00000  Uiso   1.00
C283   C     0.77068   0.48737   0.38069   0.00000  Uiso   1.00
C284   C     0.89606   0.51403   0.11951   0.00000  Uiso   1.00
C285   C     0.69669   0.43948   0.44257   0.00000  Uiso   1.00
C286   C     0.96927   0.56413   0.05849   0.00000  Uiso   1.00
C287   C     0.71449   0.45094   0.39784   0.00000  Uiso   1.00
C288   C     0.95148   0.55161   0.10299   0.00000  Uiso   1.00
C289   C     0.80943   0.51075   0.40829   0.00000  Uiso   1.00
C290   C     0.85763   0.49102   0.09162   0.00000  Uiso   1.00
C291   C     0.79830   0.49251   0.45123   0.00000  Uiso   1.00
C292   C     0.81831   0.39998   0.24870   0.00000  Uiso   1.00
C293   C     0.86847   0.51047   0.04913   0.00000  Uiso   1.00
C294   C     0.73809   0.46028   0.46940   0.00000  Uiso   1.00
C295   C     0.92826   0.54340   0.03138   0.00000  Uiso   1.00
C296   C     0.84382   0.50672   0.47703   0.00000  Uiso   1.00
C297   C     0.82292   0.49682   0.02339   0.00000  Uiso   1.00
C298   C     0.72499   0.47942   0.08945   0.00000  Uiso   1.00
C299   C     0.94295   0.52592   0.41146   0.00000  Uiso   1.00
C300   C     0.75728   0.47424   0.04210   0.00000  Uiso   1.00
C301   C     0.90945   0.53003   0.45861   0.00000  Uiso   1.00
C302   C     0.71816   0.45182   0.01446   0.00000  Uiso   1.00
C303   C     0.94809   0.55272   0.48647   0.00000  Uiso   1.00
C304   C     0.85677   0.65602   0.25193   0.00000  Uiso   1.00
C305   C     0.80988   0.34398   0.24810   0.00000  Uiso   1.00
C306   C     0.79459   0.49572   0.33316   0.00000  Uiso   1.00
Cu307  Cu    0.77404   0.49441   0.24517   0.00000  Uiso   1.00
Cu308  Cu    0.89263   0.50559   0.25484   0.00000  Uiso   1.00
H309   H     0.66951   0.43178   0.02858   0.00000  Uiso   1.00
H310   H     0.76471   0.65348   0.24449   0.00000  Uiso   1.00
H311   H     0.66812   0.53902   0.28409   0.00000  Uiso   1.00
H312   H     0.99863   0.46111   0.21578   0.00000  Uiso   1.00
H313   H     0.71852   0.52391   0.14509   0.00000  Uiso   1.00
H314   H     0.67887   0.55950   0.35997   0.00000  Uiso   1.00
H315   H     0.99653   0.57344   0.47263   0.00000  Uiso   1.00
H316   H     0.81852   0.45866   0.10415   0.00000  Uiso   1.00
H317   H     0.84861   0.54281   0.39527   0.00000  Uiso   1.00
H318   H     0.98062   0.57136   0.12445   0.00000  Uiso   1.00
H319   H     0.68458   0.43148   0.37675   0.00000  Uiso   1.00
H320   H     0.98454   0.41358   0.45599   0.00000  Uiso   1.00
H321   H     0.68096   0.59084   0.04549   0.00000  Uiso   1.00
H322   H     0.90194   0.34651   0.25553   0.00000  Uiso   1.00
N323   N     0.98173   0.51401   0.26212   0.00000  Uiso   1.00
N324   N     0.68494   0.48599   0.23788   0.00000  Uiso   1.00
O325   O     0.79482   0.57142   0.24686   0.00000  Uiso   1.00
O326   O     0.74311   0.52544   0.11304   0.00000  Uiso   1.00
O327   O     0.92920   0.48575   0.39017   0.00000  Uiso   1.00
O328   O     0.99217   0.56726   0.39189   0.00000  Uiso   1.00
O329   O     0.87185   0.42858   0.25314   0.00000  Uiso   1.00
O330   O     0.89496   0.58086   0.25503   0.00000  Uiso   1.00
O331   O     0.77171   0.41914   0.24498   0.00000  Uiso   1.00
O332   O     0.75518   0.49263   0.30855   0.00000  Uiso   1.00
O333   O     0.91149   0.50737   0.19146   0.00000  Uiso   1.00
O334   O     0.85532   0.50207   0.31671   0.00000  Uiso   1.00
O335   O     0.81134   0.49793   0.18329   0.00000  Uiso   1.00
O336   O     0.68161   0.44409   0.10759   0.00000  Uiso   1.00
C337   C     0.18169   0.93336   0.25131   0.00000  Uiso   1.00
C338   C     0.20543   0.83792   0.16687   0.00000  Uiso   1.00
C339   C     0.10402   0.82071   0.38069   0.00000  Uiso   1.00
C340   C     0.22939   0.84736   0.11951   0.00000  Uiso   1.00
C341   C     0.03002   0.77282   0.44257   0.00000  Uiso   1.00
C342   C     0.30260   0.89746   0.05849   0.00000  Uiso   1.00
C343   C     0.04782   0.78428   0.39784   0.00000  Uiso   1.00
C344   C     0.28481   0.88495   0.10299   0.00000  Uiso   1.00
C345   C     0.14277   0.84409   0.40829   0.00000  Uiso   1.00
C346   C     0.19096   0.82436   0.09162   0.00000  Uiso   1.00
C347   C     0.13163   0.82585   0.45123   0.00000  Uiso   1.00
C348   C     0.15164   0.73331   0.24870   0.00000  Uiso   1.00
C349   C     0.20181   0.84380   0.04913   0.00000  Uiso   1.00
C350   C     0.07143   0.79361   0.46940   0.00000  Uiso   1.00
C351   C     0.26159   0.87674   0.03138   0.00000  Uiso   1.00
C352   C     0.17716   0.84005   0.47703   0.00000  Uiso   1.00
C353   C     0.15625   0.83016   0.02339   0.00000  Uiso   1.00
C354   C     0.05832   0.81275   0.08945   0.00000  Uiso   1.00
C355   C     0.27628   0.85925   0.41146   0.00000  Uiso   1.00
C356   C     0.09061   0.80757   0.04210   0.00000  Uiso   1.00
C357   C     0.24278   0.86337   0.45861   0.00000  Uiso   1.00
C358   C     0.05149   0.78515   0.01446   0.00000  Uiso   1.00
C359   C     0.28142   0.88605   0.48647   0.00000  Uiso   1.00
C360   C     0.19010   0.98935   0.25193   0.00000  Uiso   1.00
C361   C     0.14322   0.67731   0.24810   0.00000  Uiso   1.00
C362   C     0.12793   0.82905   0.33316   0.00000  Uiso   1.00
Cu363  Cu    0.10737   0.82775   0.24517   0.00000  Uiso   1.00
Cu364  Cu    0.22596   0.83892   0.25484   0.00000  Uiso   1.00
H365   H     0.00284   0.76512   0.02858   0.00000  Uiso   1.00
H366   H     0.09805   0.98682   0.24449   0.00000  Uiso   1.00
H367   H     0.00145   0.87235   0.28409   0.00000  Uiso   1.00
H368   H     0.33196   0.79444   0.21578   0.00000  Uiso   1.00
H369   H     0.05185   0.85725   0.14509   0.00000  Uiso   1.00
H370   H     0.01220   0.89284   0.35997   0.00000  Uiso   1.00
H371   H     0.32986   0.90678   0.47263   0.00000  Uiso   1.00
H372   H     0.15186   0.79200   0.10415   0.00000  Uiso   1.00
H373   H     0.18194   0.87615   0.39527   0.00000  Uiso   1.00
H374   H     0.31396   0.90470   0.12445   0.00000  Uiso   1.00
H375   H     0.01791   0.76481   0.37675   0.00000  Uiso   1.00
H376   H     0.31787   0.74691   0.45599   0.00000  Uiso   1.00
H377   H     0.01429   0.92418   0.04549   0.00000  Uiso   1.00
H378   H     0.23527   0.67984   0.25553   0.00000  Uiso   1.00
N379   N     0.31506   0.84735   0.26212   0.00000  Uiso   1.00
N380   N     0.01827   0.81932   0.23788   0.00000  Uiso   1.00
O381   O     0.12815   0.90476   0.24686   0.00000  Uiso   1.00
O382   O     0.07644   0.85877   0.11304   0.00000  Uiso   1.00
O383   O     0.26253   0.81909   0.39017   0.00000  Uiso   1.00
O384   O     0.32550   0.90059   0.39189   0.00000  Uiso   1.00
O385   O     0.20518   0.76191   0.25314   0.00000  Uiso   1.00
O386   O     0.22829   0.91420   0.25503   0.00000  Uiso   1.00
O387   O     0.10504   0.75247   0.24498   0.00000  Uiso   1.00
O388   O     0.08851   0.82597   0.30855   0.00000  Uiso   1.00
O389   O     0.24482   0.84070   0.19146   0.00000  Uiso   1.00
O390   O     0.18866   0.83540   0.31671   0.00000  Uiso   1.00
O391   O     0.14468   0.83126   0.18329   0.00000  Uiso   1.00
O392   O     0.01494   0.77742   0.10759   0.00000  Uiso   1.00
C393   C     0.51502   0.93336   0.25131   0.00000  Uiso   1.00
C394   C     0.53876   0.83792   0.16687   0.00000  Uiso   1.00
C395   C     0.43735   0.82071   0.38069   0.00000  Uiso   1.00
C396   C     0.56273   0.84736   0.11951   0.00000  Uiso   1.00
C397   C     0.36335   0.77282   0.44257   0.00000  Uiso   1.00
C398   C     0.63593   0.89746   0.05849   0.00000  Uiso   1.00
C399   C     0.38116   0.78428   0.39784   0.00000  Uiso   1.00
C400   C     0.61814   0.88495   0.10299   0.00000  Uiso   1.00
C401   C     0.47610   0.84409   0.40829   0.00000  Uiso   1.00
C402   C     0.52430   0.82436   0.09162   0.00000  Uiso   1.00
C403   C     0.46496   0.82585   0.45123   0.00000  Uiso   1.00
C404   C     0.48497   0.73331   0.24870   0.00000  Uiso   1.00
C405   C     0.53514   0.84380   0.04913   0.00000  Uiso   1.00
C406   C     0.40476   0.79361   0.46940   0.00000  Uiso   1.00
C407   C     0.59492   0.87674   0.03138   0.00000  Uiso   1.00
C408   C     0.51049   0.84005   0.47703   0.00000  Uiso   1.00
C409   C     0.48959   0.83016   0.02339   0.00000  Uiso   1.00
C410   C     0.39166   0.81275   0.08945   0.00000  Uiso   1.00
C411   C     0.60962   0.85925   0.41146   0.00000  Uiso   1.00
C412   C     0.42394   0.80757   0.04210   0.00000  Uiso   1.00
C413   C     0.57612   0.86337   0.45861   0.00000  Uiso   1.00
C414   C     0.38483   0.78515   0.01446   0.00000  Uiso   1.00
C415   C     0.61475   0.88605   0.48647   0.00000  Uiso   1.00
C416   C     0.52344   0.98935   0.25193   0.00000  Uiso   1.00
C417   C     0.47655   0.67731   0.24810   0.00000  Uiso   1.00
C418   C     0.46126   0.82905   0.33316   0.00000  Uiso   1.00
Cu419  Cu    0.44071   0.82775   0.24517   0.00000  Uiso   1.00
Cu420  Cu    0.55929   0.83892   0.25484   0.00000  Uiso   1.00
H421   H     0.33617   0.76512   0.02858   0.00000  Uiso   1.00
H422   H     0.43138   0.98682   0.24449   0.00000  Uiso   1.00
H423   H     0.33479   0.87235   0.28409   0.00000  Uiso   1.00
H424   H     0.66529   0.79444   0.21578   0.00000  Uiso   1.00
H425   H     0.38518   0.85725   0.14509   0.00000  Uiso   1.00
H426   H     0.34554   0.89284   0.35997   0.00000  Uiso   1.00
H427   H     0.66319   0.90678   0.47263   0.00000  Uiso   1.00
H428   H     0.48519   0.79200   0.10415   0.00000  Uiso   1.00
H429   H     0.51528   0.87615   0.39527   0.00000  Uiso   1.00
H430   H     0.64729   0.90470   0.12445   0.00000  Uiso   1.00
H431   H     0.35125   0.76481   0.37675   0.00000  Uiso   1.00
H432   H     0.65121   0.74691   0.45599   0.00000  Uiso   1.00
H433   H     0.34763   0.92418   0.04549   0.00000  Uiso   1.00
H434   H     0.56860   0.67984   0.25553   0.00000  Uiso   1.00
N435   N     0.64839   0.84735   0.26212   0.00000  Uiso   1.00
N436   N     0.35161   0.81932   0.23788   0.00000  Uiso   1.00
O437   O     0.46148   0.90476   0.24686   0.00000  Uiso   1.00
O438   O     0.40977   0.85877   0.11304   0.00000  Uiso   1.00
O439   O     0.59586   0.81909   0.39017   0.00000  Uiso   1.00
O440   O     0.65884   0.90059   0.39189   0.00000  Uiso   1.00
O441   O     0.53852   0.76191   0.25314   0.00000  Uiso   1.00
O442   O     0.56163   0.91420   0.25503   0.00000  Uiso   1.00
O443   O     0.43837   0.75247   0.24498   0.00000  Uiso   1.00
O444   O     0.42185   0.82597   0.30855   0.00000  Uiso   1.00
O445   O     0.57815   0.84070   0.19146   0.00000  Uiso   1.00
O446   O     0.52199   0.83540   0.31671   0.00000  Uiso   1.00
O447   O     0.47801   0.83126   0.18329   0.00000  Uiso   1.00
O448   O     0.34828   0.77742   0.10759   0.00000  Uiso   1.00
C449   C     0.84835   0.93336   0.25131   0.00000  Uiso   1.00
C450   C     0.87210   0.83792   0.16687   0.00000  Uiso   1.00
C451   C     0.77068   0.82071   0.38069   0.00000  Uiso   1.00
C452   C     0.89606   0.84736   0.11951   0.00000  Uiso   1.00
C453   C     0.69669   0.77282   0.44257   0.00000  Uiso   1.00
C454   C     0.96927   0.89746   0.05849   0.00000  Uiso   1.00
C455   C     0.71449   0.78428   0.39784   0.00000  Uiso   1.00
C456   C     0.95148   0.88495   0.10299   0.00000  Uiso   1.00
C457   C     0.80943   0.84409   0.40829   0.00000  Uiso   1.00
C458   C     0.85763   0.82436   0.09162   0.00000  Uiso   1.00
C459   C     0.79830   0.82585   0.45123   0.00000  Uiso   1.00
C460   C     0.81831   0.73331   0.24870   0.00000  Uiso   1.00
C461   C     0.86847   0.84380   0.04913   0.00000  Uiso   1.00
C462   C     0.73809   0.79361   0.46940   0.00000  Uiso   1.00
C463   C     0.92826   0.87674   0.03138   0.00000  Uiso   1.00
C464   C     0.84382   0.84005   0.47703   0.00000  Uiso   1.00
C465   C     0.82292   0.83016   0.02339   0.00000  Uiso   1.00
C466   C     0.72499   0.81275   0.08945   0.00000  Uiso   1.00
C467   C     0.94295   0.85925   0.41146   0.00000  Uiso   1.00
C468   C     0.75728   0.80757   0.04210   0.00000  Uiso   1.00
C469   C     0.90945   0.86337   0.45861   0.00000  Uiso   1.00
C470   C     0.71816   0.78515   0.01446   0.00000  Uiso   1.00
C471   C     0.94809   0.88605   0.48647   0.00000  Uiso   1.00
C472   C     0.85677   0.98935   0.25193   0.00000  Uiso   1.00
C473   C     0.80988   0.67731   0.24810   0.00000  Uiso   1.00
C474   C     0.79459   0.82905   0.33316   0.00000  Uiso   1.00
Cu475  Cu    0.77404   0.82775   0.24517   0.00000  Uiso   1.00
Cu476  Cu    0.89263   0.83892   0.25484   0.00000  Uiso   1.00
H477   H     0.66951   0.76512   0.02858   0.00000  Uiso   1.00
H478   H     0.76471   0.98682   0.24449   0.00000  Uiso   1.00
H479   H     0.66812   0.87235   0.28409   0.00000  Uiso   1.00
H480   H     0.99863   0.79444   0.21578   0.00000  Uiso   1.00
H481   H     0.71852   0.85725   0.14509   0.00000  Uiso   1.00
H482   H     0.67887   0.89284   0.35997   0.00000  Uiso   1.00
H483   H     0.99653   0.90678   0.47263   0.00000  Uiso   1.00
H484   H     0.81852   0.79200   0.10415   0.00000  Uiso   1.00
H485   H     0.84861   0.87615   0.39527   0.00000  Uiso   1.00
H486   H     0.98062   0.90470   0.12445   0.00000  Uiso   1.00
H487   H     0.68458   0.76481   0.37675   0.00000  Uiso   1.00
H488   H     0.98454   0.74691   0.45599   0.00000  Uiso   1.00
H489   H     0.68096   0.92418   0.04549   0.00000  Uiso   1.00
H490   H     0.90194   0.67984   0.25553   0.00000  Uiso   1.00
N491   N     0.98173   0.84735   0.26212   0.00000  Uiso   1.00
N492   N     0.68494   0.81932   0.23788   0.00000  Uiso   1.00
O493   O     0.79482   0.90476   0.24686   0.00000  Uiso   1.00
O494   O     0.74311   0.85877   0.11304   0.00000  Uiso   1.00
O495   O     0.92920   0.81909   0.39017   0.00000  Uiso   1.00
O496   O     0.99217   0.90059   0.39189   0.00000  Uiso   1.00
O497   O     0.87185   0.76191   0.25314   0.00000  Uiso   1.00
O498   O     0.89496   0.91420   0.25503   0.00000  Uiso   1.00
O499   O     0.77171   0.75247   0.24498   0.00000  Uiso   1.00
O500   O     0.75518   0.82597   0.30855   0.00000  Uiso   1.00
O501   O     0.91149   0.84070   0.19146   0.00000  Uiso   1.00
O502   O     0.85532   0.83540   0.31671   0.00000  Uiso   1.00
O503   O     0.81134   0.83126   0.18329   0.00000  Uiso   1.00
O504   O     0.68161   0.77742   0.10759   0.00000  Uiso   1.00
C505   C     0.18169   0.26669   0.75131   0.00000  Uiso   1.00
C506   C     0.20543   0.17125   0.66687   0.00000  Uiso   1.00
C507   C     0.10402   0.15404   0.88069   0.00000  Uiso   1.00
C508   C     0.22939   0.18070   0.61951   0.00000  Uiso   1.00
C509   C     0.03002   0.10615   0.94257   0.00000  Uiso   1.00
C510   C     0.30260   0.23079   0.55849   0.00000  Uiso   1.00
C511   C     0.04782   0.11761   0.89784   0.00000  Uiso   1.00
C512   C     0.28481   0.21828   0.60299   0.00000  Uiso   1.00
C513   C     0.14277   0.17742   0.90829   0.00000  Uiso   1.00
C514   C     0.19096   0.15769   0.59162   0.00000  Uiso   1.00
C515   C     0.13163   0.15918   0.95123   0.00000  Uiso   1.00
C516   C     0.15164   0.06664   0.74870   0.00000  Uiso   1.00
C517   C     0.20181   0.17713   0.54913   0.00000  Uiso   1.00
C518   C     0.07143   0.12695   0.96940   0.00000  Uiso   1.00
C519   C     0.26159   0.21007   0.53138   0.00000  Uiso   1.00
C520   C     0.17716   0.17338   0.97703   0.00000  Uiso   1.00
C521   C     0.15625   0.16349   0.52339   0.00000  Uiso   1.00
C522   C     0.05832   0.14609   0.58945   0.00000  Uiso   1.00
C523   C     0.27628   0.19259   0.91146   0.00000  Uiso   1.00
C524   C     0.09061   0.14090   0.54210   0.00000  Uiso   1.00
C525   C     0.24278   0.19670   0.95861   0.00000  Uiso   1.00
C526   C     0.05149   0.11849   0.51446   0.00000  Uiso   1.00
C527   C     0.28142   0.21939   0.98647   0.00000  Uiso   1.00
C528   C     0.19010   0.32269   0.75193   0.00000  Uiso   1.00
C529   C     0.14322   0.01064   0.74810   0.00000  Uiso   1.00
C530   C     0.12793   0.16239   0.83316   0.00000  Uiso   1.00
Cu531  Cu    0.10737   0.16108   0.74517   0.00000  Uiso   1.00
Cu532  Cu    0.22596   0.17225   0.75484   0.00000  Uiso   1.00
H533   H     0.00284   0.09845   0.52858   0.00000  Uiso   1.00
H534   H     0.09805   0.32015   0.74449   0.00000  Uiso   1.00
H535   H     0.00145   0.20569   0.78409   0.00000  Uiso   1.00
H536   H     0.33196   0.12777   0.71578   0.00000  Uiso   1.00
H537   H     0.05185   0.19058   0.64509   0.00000  Uiso   1.00
H538   H     0.01220   0.22617   0.85997   0.00000  Uiso   1.00
H539   H     0.32986   0.24011   0.97263   0.00000  Uiso   1.00
H540   H     0.15186   0.12533   0.60415   0.00000  Uiso   1.00
H541   H     0.18194   0.20948   0.89527   0.00000  Uiso   1.00
H542   H     0.31396   0.23803   0.62445   0.00000  Uiso   1.00
H543   H     0.01791   0.09815   0.87675   0.00000  Uiso   1.00
H544   H     0.31787   0.08024   0.95599   0.00000  Uiso   1.00
H545   H     0.01429   0.25751   0.54549   0.00000  Uiso   1.00
H546   H     0.23527   0.01318   0.75553   0.00000  Uiso   1.00
N547   N     0.31506   0.18068   0.76212   0.00000  Uiso   1.00
N548   N     0.01827   0.15265   0.73788   0.00000  Uiso   1.00
O549   O     0.12815   0.23809   0.74686   0.00000  Uiso   1.00
O550   O     0.07644   0.19211   0.61304   0.00000  Uiso   1.00
O551   O     0.26253   0.15242   0.89017   0.00000  Uiso   1.00
O552   O     0.32550   0.23392   0.89189   0.00000  Uiso   1.00
O553   O     0.20518   0.09524   0.75314   0.00000  Uiso   1.00
O554   O     0.22829   0.24753   0.75503   0.00000  Uiso   1.00
O555   O     0.10504   0.08580   0.74498   0.00000  Uiso   1.00
O556   O     0.08851   0.15930   0.80855   0.00000  Uiso   1.00
O557   O     0.24482   0.17403   0.69146   0.00000  Uiso   1.00
O558   O     0.18866   0.16874   0.81671   0.00000  Uiso   1.00
O559   O     0.14468   0.16460   0.68329   0.00000  Uiso   1.00
O560   O     0.01494   0.11075   0.60759   0.00000  Uiso   1.00
C561   C     0.51502   0.26669   0.75131   0.00000  Uiso   1.00
C562   C     0.53876   0.17125   0.66687   0.00000  Uiso   1.00
C563   C     0.43735   0.15404   0.88069   0.00000  Uiso   1.00
C564   C     0.56273   0.18070   0.61951   0.00000  Uiso   1.00
C565   C     0.36335   0.10615   0.94257   0.00000  Uiso   1.00
C566   C     0.63593   0.23079   0.55849   0.00000  Uiso   1.00
C567   C     0.38116   0.11761   0.89784   0.00000  Uiso   1.00
C568   C     0.61814   0.21828   0.60299   0.00000  Uiso   1.00
C569   C     0.47610   0.17742   0.90829   0.00000  Uiso   1.00
C570   C     0.52430   0.15769   0.59162   0.00000  Uiso   1.00
C571   C     0.46496   0.15918   0.95123   0.00000  Uiso   1.00
C572   C     0.48497   0.06664   0.74870   0.00000  Uiso   1.00
C573   C     0.53514   0.17713   0.54913   0.00000  Uiso   1.00
C574   C     0.40476   0.12695   0.96940   0.00000  Uiso   1.00
C575   C     0.59492   0.21007   0.53138   0.00000  Uiso   1.00
C576   C     0.51049   0.17338   0.97703   0.00000  Uiso   1.00
C577   C     0.48959   0.16349   0.52339   0.00000  Uiso   1.00
C578   C     0.39166   0.14609   0.58945   0.00000  Uiso   1.00
C579   C     0.60962   0.19259   0.91146   0.00000  Uiso   1.00
C580   C     0.42394   0.14090   0.54210   0.00000  Uiso   1.00
C581   C     0.57612   0.19670   0.95861   0.00000  Uiso   1.00
C582   C     0.38483   0.11849   0.51446   0.00000  Uiso   1.00
C583   C     0.61475   0.21939   0.98647   0.00000  Uiso   1.00
C584   C     0.52344   0.32269   0.75193   0.00000  Uiso   1.00
C585   C     0.47655   0.01064   0.74810   0.00000  Uiso   1.00
C586   C     0.46126   0.16239   0.83316   0.00000  Uiso   1.00
Cu587  Cu    0.44071   0.16108   0.74517   0.00000  Uiso   1.00
Cu588  Cu    0.55929   0.17225   0.75484   0.00000  Uiso   1.00
H589   H     0.33617   0.09845   0.52858   0.00000  Uiso   1.00
H590   H     0.43138   0.32015   0.74449   0.00000  Uiso   1.00
H591   H     0.33479   0.20569   0.78409   0.00000  Uiso   1.00
H592   H     0.66529   0.12777   0.71578   0.00000  Uiso   1.00
H593   H     0.38518   0.19058   0.64509   0.00000  Uiso   1.00
H594   H     0.34554   0.22617   0.85997   0.00000  Uiso   1.00
H595   H     0.66319   0.24011   0.97263   0.00000  Uiso   1.00
H596   H     0.48519   0.12533   0.60415   0.00000  Uiso   1.00
H597   H     0.51528   0.20948   0.89527   0.00000  Uiso   1.00
H598   H     0.64729   0.23803   0.62445   0.00000  Uiso   1.00
H599   H     0.35125   0.09815   0.87675   0.00000  Uiso   1.00
H600   H     0.65121   0.08024   0.95599   0.00000  Uiso   1.00
H601   H     0.34763   0.25751   0.54549   0.00000  Uiso   1.00
H602   H     0.56860   0.01318   0.75553   0.00000  Uiso   1.00
N603   N     0.64839   0.18068   0.76212   0.00000  Uiso   1.00
N604   N     0.35161   0.15265   0.73788   0.00000  Uiso   1.00
O605   O     0.46148   0.23809   0.74686   0.00000  Uiso   1.00
O606   O     0.40977   0.19211   0.61304   0.00000  Uiso   1.00
O607   O     0.59586   0.15242   0.89017   0.00000  Uiso   1.00
O608   O     0.65884   0.23392   0.89189   0.00000  Uiso   1.00
O609   O     0.53852   0.09524   0.75314   0.00000  Uiso   1.00
O610   O     0.56163   0.24753   0.75503   0.00000  Uiso   1.00
O611   O     0.43837   0.08580   0.74498   0.00000  Uiso   1.00
O612   O     0.42185   0.15930   0.80855   0.00000  Uiso   1.00
O613   O     0.57815   0.17403   0.69146   0.00000  Uiso   1.00
O614   O     0.52199   0.16874   0.81671   0.00000  Uiso   1.00
O615   O     0.47801   0.16460   0.68329   0.00000  Uiso   1.00
O616   O     0.34828   0.11075   0.60759   0.00000  Uiso   1.00
C617   C     0.84835   0.26669   0.75131   0.00000  Uiso   1.00
C618   C     0.87210   0.17125   0.66687   0.00000  Uiso   1.00
C619   C     0.77068   0.15404   0.88069   0.00000  Uiso   1.00
C620   C     0.89606   0.18070   0.61951   0.00000  Uiso   1.00
C621   C     0.69669   0.10615   0.94257   0.00000  Uiso   1.00
C622   C     0.96927   0.23079   0.55849   0.00000  Uiso   1.00
C623   C     0.71449   0.11761   0.89784   0.00000  Uiso   1.00
C624   C     0.95148   0.21828   0.60299   0.00000  Uiso   1.00
C625   C     0.80943   0.17742   0.90829   0.00000  Uiso   1.00
C626   C     0.85763   0.15769   0.59162   0.00000  Uiso   1.00
C627   C     0.79830   0.15918   0.95123   0.00000  Uiso   1.00
C628   C     0.81831   0.06664   0.74870   0.00000  Uiso   1.00
C629   C     0.86847   0.17713   0.54913   0.00000  Uiso   1.00
C630   C     0.73809   0.12695   0.96940   0.00000  Uiso   1.00
C631   C     0.92826   0.21007   0.53138   0.00000  Uiso   1.00
C632   C     0.84382   0.17338   0.97703   0.00000  Uiso   1.00
C633   C     0.82292   0.16349   0.52339   0.00000  Uiso   1.00
C634   C     0.72499   0.14609   0.58945   0.00000  Uiso   1.00
C635   C     0.94295   0.19259   0.91146   0.00000  Uiso   1.00
C636   C     0.75728   0.14090   0.54210   0.00000  Uiso   1.00
C637   C     0.90945   0.19670   0.95861   0.00000  Uiso   1.00
C638   C     0.71816   0.11849   0.51446   0.00000  Uiso   1.00
C639   C     0.94809   0.21939   0.98647   0.00000  Uiso   1.00
C640   C     0.85677   0.32269   0.75193   0.00000  Uiso   1.00
C641   C     0.80988   0.01064   0.74810   0.00000  Uiso   1.00
C642   C     0.79459   0.16239   0.83316   0.00000  Uiso   1.00
Cu643  Cu    0.77404   0.16108   0.74517   0.00000  Uiso   1.00
Cu644  Cu    0.89263   0.17225   0.75484   0.00000  Uiso   1.00
H645   H     0.66951   0.09845   0.52858   0.00000  Uiso   1.00
H646   H     0.76471   0.32015   0.74449   0.00000  Uiso   1.00
H647   H     0.66812   0.20569   0.78409   0.00000  Uiso   1.00
H648   H     0.99863   0.12777   0.71578   0.00000  Uiso   1.00
H649   H     0.71852   0.19058   0.64509   0.00000  Uiso   1.00
H650   H     0.67887   0.22617   0.85997   0.00000  Uiso   1.00
H651   H     0.99653   0.24011   0.97263   0.00000  Uiso   1.00
H652   H     0.81852   0.12533   0.60415   0.00000  Uiso   1.00
H653   H     0.84861   0.20948   0.89527   0.00000  Uiso   1.00
H654   H     0.98062   0.23803   0.62445   0.00000  Uiso   1.00
H655   H     0.68458   0.09815   0.87675   0.00000  Uiso   1.00
H656   H     0.98454   0.08024   0.95599   0.00000  Uiso   1.00
H657   H     0.68096   0.25751   0.54549   0.00000  Uiso   1.00
H658   H     0.90194   0.01318   0.75553   0.00000  Uiso   1.00
N659   N     0.98173   0.18068   0.76212   0.00000  Uiso   1.00
N660   N     0.68494   0.15265   0.73788   0.00000  Uiso   1.00
O661   O     0.79482   0.23809   0.74686   0.00000  Uiso   1.00
O662   O     0.74311   0.19211   0.61304   0.00000  Uiso   1.00
O663   O     0.92920   0.15242   0.89017   0.00000  Uiso   1.00
O664   O     0.99217   0.23392   0.89189   0.00000  Uiso   1.00
O665   O     0.87185   0.09524   0.75314   0.00000  Uiso   1.00
O666   O     0.89496   0.24753   0.75503   0.00000  Uiso   1.00
O667   O     0.77171   0.08580   0.74498   0.00000  Uiso   1.00
O668   O     0.75518   0.15930   0.80855   0.00000  Uiso   1.00
O669   O     0.91149   0.17403   0.69146   0.00000  Uiso   1.00
O670   O     0.85532   0.16874   0.81671   0.00000  Uiso   1.00
O671   O     0.81134   0.16460   0.68329   0.00000  Uiso   1.00
O672   O     0.68161   0.11075   0.60759   0.00000  Uiso   1.00
C673   C     0.18169   0.60002   0.75131   0.00000  Uiso   1.00
C674   C     0.20543   0.50458   0.66687   0.00000  Uiso   1.00
C675   C     0.10402   0.48737   0.88069   0.00000  Uiso   1.00
C676   C     0.22939   0.51403   0.61951   0.00000  Uiso   1.00
C677   C     0.03002   0.43948   0.94257   0.00000  Uiso   1.00
C678   C     0.30260   0.56413   0.55849   0.00000  Uiso   1.00
C679   C     0.04782   0.45094   0.89784   0.00000  Uiso   1.00
C680   C     0.28481   0.55161   0.60299   0.00000  Uiso   1.00
C681   C     0.14277   0.51075   0.90829   0.00000  Uiso   1.00
C682   C     0.19096   0.49102   0.59162   0.00000  Uiso   1.00
C683   C     0.13163   0.49251   0.95123   0.00000  Uiso   1.00
C684   C     0.15164   0.39998   0.74870   0.00000  Uiso   1.00
C685   C     0.20181   0.51047   0.54913   0.00000  Uiso   1.00
C686   C     0.07143   0.46028   0.96940   0.00000  Uiso   1.00
C687   C     0.26159   0.54340   0.53138   0.00000  Uiso   1.00
C688   C     0.17716   0.50672   0.97703   0.00000  Uiso   1.00
C689   C     0.15625   0.49682   0.52339   0.00000  Uiso   1.00
C690   C     0.05832   0.47942   0.58945   0.00000  Uiso   1.00
C691   C     0.27628   0.52592   0.91146   0.00000  Uiso   1.00
C692   C     0.09061   0.47424   0.54210   0.00000  Uiso   1.00
C693   C     0.24278   0.53003   0.95861   0.00000  Uiso   1.00
C694   C     0.05149   0.45182   0.51446   0.00000  Uiso   1.00
C695   C     0.28142   0.55272   0.98647   0.00000  Uiso   1.00
C696   C     0.19010   0.65602   0.75193   0.00000  Uiso   1.00
C697   C     0.14322   0.34398   0.74810   0.00000  Uiso   1.00
C698   C     0.12793   0.49572   0.83316   0.00000  Uiso   1.00
Cu699  Cu    0.10737   0.49441   0.74517   0.00000  Uiso   1.00
Cu700  Cu    0.22596   0.50559   0.75484   0.00000  Uiso   1.00
H701   H     0.00284   0.43178   0.52858   0.00000  Uiso   1.00
H702   H     0.09805   0.65348   0.74449   0.00000  Uiso   1.00
H703   H     0.00145   0.53902   0.78409   0.00000  Uiso   1.00
H704   H     0.33196   0.46111   0.71578   0.00000  Uiso   1.00
H705   H     0.05185   0.52391   0.64509   0.00000  Uiso   1.00
H706   H     0.01220   0.55950   0.85997   0.00000  Uiso   1.00
H707   H     0.32986   0.57344   0.97263   0.00000  Uiso   1.00
H708   H     0.15186   0.45866   0.60415   0.00000  Uiso   1.00
H709   H     0.18194   0.54281   0.89527   0.00000  Uiso   1.00
H710   H     0.31396   0.57136   0.62445   0.00000  Uiso   1.00
H711   H     0.01791   0.43148   0.87675   0.00000  Uiso   1.00
H712   H     0.31787   0.41358   0.95599   0.00000  Uiso   1.00
H713   H     0.01429   0.59084   0.54549   0.00000  Uiso   1.00
H714   H     0.23527   0.34651   0.75553   0.00000  Uiso   1.00
N715   N     0.31506   0.51401   0.76212   0.00000  Uiso   1.00
N716   N     0.01827   0.48599   0.73788   0.00000  Uiso   1.00
O717   O     0.12815   0.57142   0.74686   0.00000  Uiso   1.00
O718   O     0.07644   0.52544   0.61304   0.00000  Uiso   1.00
O719   O     0.26253   0.48575   0.89017   0.00000  Uiso   1.00
O720   O     0.32550   0.56726   0.89189   0.00000  Uiso   1.00
O721   O     0.20518   0.42858   0.75314   0.00000  Uiso   1.00
O722   O     0.22829   0.58086   0.75503   0.00000  Uiso   1.00
O723   O     0.10504   0.41914   0.74498   0.00000  Uiso   1.00
O724   O     0.08851   0.49263   0.80855   0.00000  Uiso   1.00
O725   O     0.24482   0.50737   0.69146   0.00000  Uiso   1.00
O726   O     0.18866   0.50207   0.81671   0.00000  Uiso   1.00
O727   O     0.14468   0.49793   0.68329   0.00000  Uiso   1.00
O728   O     0.01494   0.44409   0.60759   0.00000  Uiso   1.00
C729   C     0.51502   0.60002   0.75131   0.00000  Uiso   1.00
C730   C     0.53876   0.50458   0.66687   0.00000  Uiso   1.00
C731   C     0.43735   0.48737   0.88069   0.00000  Uiso   1.00
C732   C     0.56273   0.51403   0.61951   0.00000  Uiso   1.00
C733   C     0.36335   0.43948   0.94257   0.00000  Uiso   1.00
C734   C     0.63593   0.56413   0.55849   0.00000  Uiso   1.00
C735   C     0.38116   0.45094   0.89784   0.00000  Uiso   1.00
C736   C     0.61814   0.55161   0.60299   0.00000  Uiso   1.00
C737   C     0.47610   0.51075   0.90829   0.00000  Uiso   1.00
C738   C     0.52430   0.49102   0.59162   0.00000  Uiso   1.00
C739   C     0.46496   0.49251   0.95123   0.00000  Uiso   1.00
C740   C     0.48497   0.39998   0.74870   0.00000  Uiso   1.00
C741   C     0.53514   0.51047   0.54913   0.00000  Uiso   1.00
C742   C     0.40476   0.46028   0.96940   0.00000  Uiso   1.00
C743   C     0.59492   0.54340   0.53138   0.00000  Uiso   1.00
C744   C     0.51049   0.50672   0.97703   0.00000  Uiso   1.00
C745   C     0.48959   0.49682   0.52339   0.00000  Uiso   1.00
C746   C     0.39166   0.47942   0.58945   0.00000  Uiso   1.00
C747   C     0.60962   0.52592   0.91146   0.00000  Uiso   1.00
C748   C     0.42394   0.47424   0.54210   0.00000  Uiso   1.00
C749   C     0.57612   0.53003   0.95861   0.00000  Uiso   1.00
C750   C     0.38483   0.45182   0.51446   0.00000  Uiso   1.00
C751   C     0.61475   0.55272   0.98647   0.00000  Uiso   1.00
C752   C     0.52344   0.65602   0.75193   0.00000  Uiso   1.00
C753   C     0.47655   0.34398   0.74810   0.00000  Uiso   1.00
C754   C     0.46126   0.49572   0.83316   0.00000  Uiso   1.00
Cu755  Cu    0.44071   0.49441   0.74517   0.00000  Uiso   1.00
Cu756  Cu    0.55929   0.50559   0.75484   0.00000  Uiso   1.00
H757   H     0.33617   0.43178   0.52858   0.00000  Uiso   1.00
H758   H     0.43138   0.65348   0.74449   0.00000  Uiso   1.00
H759   H     0.33479   0.53902   0.78409   0.00000  Uiso   1.00
H760   H     0.66529   0.46111   0.71578   0.00000  Uiso   1.00
H761   H     0.38518   0.52391   0.64509   0.00000  Uiso   1.00
H762   H     0.34554   0.55950   0.85997   0.00000  Uiso   1.00
H763   H     0.66319   0.57344   0.97263   0.00000  Uiso   1.00
H764   H     0.48519   0.45866   0.60415   0.00000  Uiso   1.00
H765   H     0.51528   0.54281   0.89527   0.00000  Uiso   1.00
H766   H     0.64729   0.57136   0.62445   0.00000  Uiso   1.00
H767   H     0.35125   0.43148   0.87675   0.00000  Uiso   1.00
H768   H     0.65121   0.41358   0.95599   0.00000  Uiso   1.00
H769   H     0.34763   0.59084   0.54549   0.00000  Uiso   1.00
H770   H     0.56860   0.34651   0.75553   0.00000  Uiso   1.00
N771   N     0.64839   0.51401   0.76212   0.00000  Uiso   1.00
N772   N     0.35161   0.48599   0.73788   0.00000  Uiso   1.00
O773   O     0.46148   0.57142   0.74686   0.00000  Uiso   1.00
O774   O     0.40977   0.52544   0.61304   0.00000  Uiso   1.00
O775   O     0.59586   0.48575   0.89017   0.00000  Uiso   1.00
O776   O     0.65884   0.56726   0.89189   0.00000  Uiso   1.00
O777   O     0.53852   0.42858   0.75314   0.00000  Uiso   1.00
O778   O     0.56163   0.58086   0.75503   0.00000  Uiso   1.00
O779   O     0.43837   0.41914   0.74498   0.00000  Uiso   1.00
O780   O     0.42185   0.49263   0.80855   0.00000  Uiso   1.00
O781   O     0.57815   0.50737   0.69146   0.00000  Uiso   1.00
O782   O     0.52199   0.50207   0.81671   0.00000  Uiso   1.00
O783   O     0.47801   0.49793   0.68329   0.00000  Uiso   1.00
O784   O     0.34828   0.44409   0.60759   0.00000  Uiso   1.00
C785   C     0.84835   0.60002   0.75131   0.00000  Uiso   1.00
C786   C     0.87210   0.50458   0.66687   0.00000  Uiso   1.00
C787   C     0.77068   0.48737   0.88069   0.00000  Uiso   1.00
C788   C     0.89606   0.51403   0.61951   0.00000  Uiso   1.00
C789   C     0.69669   0.43948   0.94257   0.00000  Uiso   1.00
C790   C     0.96927   0.56413   0.55849   0.00000  Uiso   1.00
C791   C     0.71449   0.45094   0.89784   0.00000  Uiso   1.00
C792   C     0.95148   0.55161   0.60299   0.00000  Uiso   1.00
C793   C     0.80943   0.51075   0.90829   0.00000  Uiso   1.00
C794   C     0.85763   0.49102   0.59162   0.00000  Uiso   1.00
C795   C     0.79830   0.49251   0.95123   0.00000  Uiso   1.00
C796   C     0.81831   0.39998   0.74870   0.00000  Uiso   1.00
C797   C     0.86847   0.51047   0.54913   0.00000  Uiso   1.00
C798   C     0.73809   0.46028   0.96940   0.00000  Uiso   1.00
C799   C     0.92826   0.54340   0.53138   0.00000  Uiso   1.00
C800   C     0.84382   0.50672   0.97703   0.00000  Uiso   1.00
C801   C     0.82292   0.49682   0.52339   0.00000  Uiso   1.00
C802   C     0.72499   0.47942   0.58945   0.00000  Uiso   1.00
C803   C     0.94295   0.52592   0.91146   0.00000  Uiso   1.00
C804   C     0.75728   0.47424   0.54210   0.00000  Uiso   1.00
C805   C     0.90945   0.53003   0.95861   0.00000  Uiso   1.00
C806   C     0.71816   0.45182   0.51446   0.00000  Uiso   1.00
C807   C     0.94809   0.55272   0.98647   0.00000  Uiso   1.00
C808   C     0.85677   0.65602   0.75193   0.00000  Uiso   1.00
C809   C     0.80988   0.34398   0.74810   0.00000  Uiso   1.00
C810   C     0.79459   0.49572   0.83316   0.00000  Uiso   1.00
Cu811  Cu    0.77404   0.49441   0.74517   0.00000  Uiso   1.00
Cu812  Cu    0.89263   0.50559   0.75484   0.00000  Uiso   1.00
H813   H     0.66951   0.43178   0.52858   0.00000  Uiso   1.00
H814   H     0.76471   0.65348   0.74449   0.00000  Uiso   1.00
H815   H     0.66812   0.53902   0.78409   0.00000  Uiso   1.00
H816   H     0.99863   0.46111   0.71578   0.00000  Uiso   1.00
H817   H     0.71852   0.52391   0.64509   0.00000  Uiso   1.00
H818   H     0.67887   0.55950   0.85997   0.00000  Uiso   1.00
H819   H     0.99653   0.57344   0.97263   0.00000  Uiso   1.00
H820   H     0.81852   0.45866   0.60415   0.00000  Uiso   1.00
H821   H     0.84861   0.54281   0.89527   0.00000  Uiso   1.00
H822   H     0.98062   0.57136   0.62445   0.00000  Uiso   1.00
H823   H     0.68458   0.43148   0.87675   0.00000  Uiso   1.00
H824   H     0.98454   0.41358   0.95599   0.00000  Uiso   1.00
H825   H     0.68096   0.59084   0.54549   0.00000  Uiso   1.00
H826   H     0.90194   0.34651   0.75553   0.00000  Uiso   1.00
N827   N     0.98173   0.51401   0.76212   0.00000  Uiso   1.00
N828   N     0.68494   0.48599   0.73788   0.00000  Uiso   1.00
O829   O     0.79482   0.57142   0.74686   0.00000  Uiso   1.00
O830   O     0.74311   0.52544   0.61304   0.00000  Uiso   1.00
O831   O     0.92920   0.48575   0.89017   0.00000  Uiso   1.00
O832   O     0.99217   0.56726   0.89189   0.00000  Uiso   1.00
O833   O     0.87185   0.42858   0.75314   0.00000  Uiso   1.00
O834   O     0.89496   0.58086   0.75503   0.00000  Uiso   1.00
O835   O     0.77171   0.41914   0.74498   0.00000  Uiso   1.00
O836   O     0.75518   0.49263   0.80855   0.00000  Uiso   1.00
O837   O     0.91149   0.50737   0.69146   0.00000  Uiso   1.00
O838   O     0.85532   0.50207   0.81671   0.00000  Uiso   1.00
O839   O     0.81134   0.49793   0.68329   0.00000  Uiso   1.00
O840   O     0.68161   0.44409   0.60759   0.00000  Uiso   1.00
C841   C     0.18169   0.93336   0.75131   0.00000  Uiso   1.00
C842   C     0.20543   0.83792   0.66687   0.00000  Uiso   1.00
C843   C     0.10402   0.82071   0.88069   0.00000  Uiso   1.00
C844   C     0.22939   0.84736   0.61951   0.00000  Uiso   1.00
C845   C     0.03002   0.77282   0.94257   0.00000  Uiso   1.00
C846   C     0.30260   0.89746   0.55849   0.00000  Uiso   1.00
C847   C     0.04782   0.78428   0.89784   0.00000  Uiso   1.00
C848   C     0.28481   0.88495   0.60299   0.00000  Uiso   1.00
C849   C     0.14277   0.84409   0.90829   0.00000  Uiso   1.00
C850   C     0.19096   0.82436   0.59162   0.00000  Uiso   1.00
C851   C     0.13163   0.82585   0.95123   0.00000  Uiso   1.00
C852   C     0.15164   0.73331   0.74870   0.00000  Uiso   1.00
C853   C     0.20181   0.84380   0.54913   0.00000  Uiso   1.00
C854   C     0.07143   0.79361   0.96940   0.00000  Uiso   1.00
C855   C     0.26159   0.87674   0.53138   0.00000  Uiso   1.00
C856   C     0.17716   0.84005   0.97703   0.00000  Uiso   1.00
C857   C     0.15625   0.83016   0.52339   0.00000  Uiso   1.00
C858   C     0.05832   0.81275   0.58945   0.00000  Uiso   1.00
C859   C     0.27628   0.85925   0.91146   0.00000  Uiso   1.00
C860   C     0.09061   0.80757   0.54210   0.00000  Uiso   1.00
C861   C     0.24278   0.86337   0.95861   0.00000  Uiso   1.00
C862   C     0.05149   0.78515   0.51446   0.00000  Uiso   1.00
C863   C     0.28142   0.88605   0.98647   0.00000  Uiso   1.00
C864   C     0.19010   0.98935   0.75193   0.00000  Uiso   1.00
C865   C     0.14322   0.67731   0.74810   0.00000  Uiso   1.00
C866   C     0.12793   0.82905   0.83316   0.00000  Uiso   1.00
Cu867  Cu    0.10737   0.82775   0.74517   0.00000  Uiso   1.00
Cu868  Cu    0.22596   0.83892   0.75484   0.00000  Uiso   1.00
H869   H     0.00284   0.76512   0.52858   0.00000  Uiso   1.00
H870   H     0.09805   0.98682   0.74449   0.00000  Uiso   1.00
H871   H     0.00145   0.87235   0.78409   0.00000  Uiso   1.00
H872   H     0.33196   0.79444   0.71578   0.00000  Uiso   1.00
H873   H     0.05185   0.85725   0.64509   0.00000  Uiso   1.00
H874   H     0.01220   0.89284   0.85997   0.00000  Uiso   1.00
H875   H     0.32986   0.90678   0.97263   0.00000  Uiso   1.00
H876   H     0.15186   0.79200   0.60415   0.00000  Uiso   1.00
H877   H     0.18194   0.87615   0.89527   0.00000  Uiso   1.00
H878   H     0.31396   0.90470   0.62445   0.00000  Uiso   1.00
H879   H     0.01791   0.76481   0.87675   0.00000  Uiso   1.00
H880   H     0.31787   0.74691   0.95599   0.00000  Uiso   1.00
H881   H     0.01429   0.92418   0.54549   0.00000  Uiso   1.00
H882   H     0.23527   0.67984   0.75553   0.00000  Uiso   1.00
N883   N     0.31506   0.84735   0.76212   0.00000  Uiso   1.00
N884   N     0.01827   0.81932   0.73788   0.00000  Uiso   1.00
O885   O     0.12815   0.90476   0.74686   0.00000  Uiso   1.00
O886   O     0.07644   0.85877   0.61304   0.00000  Uiso   1.00
O887   O     0.26253   0.81909   0.89017   0.00000  Uiso   1.00
O888   O     0.32550   0.90059   0.89189   0.00000  Uiso   1.00
O889   O     0.20518   0.76191   0.75314   0.00000  Uiso   1.00
O890   O     0.22829   0.91420   0.75503   0.00000  Uiso   1.00
O891   O     0.10504   0.75247   0.74498   0.00000  Uiso   1.00
O892   O     0.08851   0.82597   0.80855   0.00000  Uiso   1.00
O893   O     0.24482   0.84070   0.69146   0.00000  Uiso   1.00
O894   O     0.18866   0.83540   0.81671   0.00000  Uiso   1.00
O895   O     0.14468   0.83126   0.68329   0.00000  Uiso   1.00
O896   O     0.01494   0.77742   0.60759   0.00000  Uiso   1.00
C897   C     0.51502   0.93336   0.75131   0.00000  Uiso   1.00
C898   C     0.53876   0.83792   0.66687   0.00000  Uiso   1.00
C899   C     0.43735   0.82071   0.88069   0.00000  Uiso   1.00
C900   C     0.56273   0.84736   0.61951   0.00000  Uiso   1.00
C901   C     0.36335   0.77282   0.94257   0.00000  Uiso   1.00
C902   C     0.63593   0.89746   0.55849   0.00000  Uiso   1.00
C903   C     0.38116   0.78428   0.89784   0.00000  Uiso   1.00
C904   C     0.61814   0.88495   0.60299   0.00000  Uiso   1.00
C905   C     0.47610   0.84409   0.90829   0.00000  Uiso   1.00
C906   C     0.52430   0.82436   0.59162   0.00000  Uiso   1.00
C907   C     0.46496   0.82585   0.95123   0.00000  Uiso   1.00
C908   C     0.48497   0.73331   0.74870   0.00000  Uiso   1.00
C909   C     0.53514   0.84380   0.54913   0.00000  Uiso   1.00
C910   C     0.40476   0.79361   0.96940   0.00000  Uiso   1.00
C911   C     0.59492   0.87674   0.53138   0.00000  Uiso   1.00
C912   C     0.51049   0.84005   0.97703   0.00000  Uiso   1.00
C913   C     0.48959   0.83016   0.52339   0.00000  Uiso   1.00
C914   C     0.39166   0.81275   0.58945   0.00000  Uiso   1.00
C915   C     0.60962   0.85925   0.91146   0.00000  Uiso   1.00
C916   C     0.42394   0.80757   0.54210   0.00000  Uiso   1.00
C917   C     0.57612   0.86337   0.95861   0.00000  Uiso   1.00
C918   C     0.38483   0.78515   0.51446   0.00000  Uiso   1.00
C919   C     0.61475   0.88605   0.98647   0.00000  Uiso   1.00
C920   C     0.52344   0.98935   0.75193   0.00000  Uiso   1.00
C921   C     0.47655   0.67731   0.74810   0.00000  Uiso   1.00
C922   C     0.46126   0.82905   0.83316   0.00000  Uiso   1.00
Cu923  Cu    0.44071   0.82775   0.74517   0.00000  Uiso   1.00
Cu924  Cu    0.55929   0.83892   0.75484   0.00000  Uiso   1.00
H925   H     0.33617   0.76512   0.52858   0.00000  Uiso   1.00
H926   H     0.43138   0.98682   0.74449   0.00000  Uiso   1.00
H927   H     0.33479   0.87235   0.78409   0.00000  Uiso   1.00
H928   H     0.66529   0.79444   0.71578   0.00000  Uiso   1.00
H929   H     0.38518   0.85725   0.64509   0.00000  Uiso   1.00
H930   H     0.34554   0.89284   0.85997   0.00000  Uiso   1.00
H931   H     0.66319   0.90678   0.97263   0.00000  Uiso   1.00
H932   H     0.48519   0.79200   0.60415   0.00000  Uiso   1.00
H933   H     0.51528   0.87615   0.89527   0.00000  Uiso   1.00
H934   H     0.64729   0.90470   0.62445   0.00000  Uiso   1.00
H935   H     0.35125   0.76481   0.87675   0.00000  Uiso   1.00
H936   H     0.65121   0.74691   0.95599   0.00000  Uiso   1.00
H937   H     0.34763   0.92418   0.54549   0.00000  Uiso   1.00
H938   H     0.56860   0.67984   0.75553   0.00000  Uiso   1.00
N939   N     0.64839   0.84735   0.76212   0.00000  Uiso   1.00
N940   N     0.35161   0.81932   0.73788   0.00000  Uiso   1.00
O941   O     0.46148   0.90476   0.74686   0.00000  Uiso   1.00
O942   O     0.40977   0.85877   0.61304   0.00000  Uiso   1.00
O943   O     0.59586   0.81909   0.89017   0.00000  Uiso   1.00
O944   O     0.65884   0.90059   0.89189   0.00000  Uiso   1.00
O945   O     0.53852   0.76191   0.75314   0.00000  Uiso   1.00
O946   O     0.56163   0.91420   0.75503   0.00000  Uiso   1.00
O947   O     0.43837   0.75247   0.74498   0.00000  Uiso   1.00
O948   O     0.42185   0.82597   0.80855   0.00000  Uiso   1.00
O949   O     0.57815   0.84070   0.69146   0.00000  Uiso   1.00
O950   O     0.52199   0.83540   0.81671   0.00000  Uiso   1.00
O951   O     0.47801   0.83126   0.68329   0.00000  Uiso   1.00
O952   O     0.34828   0.77742   0.60759   0.00000  Uiso   1.00
C953   C     0.84835   0.93336   0.75131   0.00000  Uiso   1.00
C954   C     0.87210   0.83792   0.66687   0.00000  Uiso   1.00
C955   C     0.77068   0.82071   0.88069   0.00000  Uiso   1.00
C956   C     0.89606   0.84736   0.61951   0.00000  Uiso   1.00
C957   C     0.69669   0.77282   0.94257   0.00000  Uiso   1.00
C958   C     0.96927   0.89746   0.55849   0.00000  Uiso   1.00
C959   C     0.71449   0.78428   0.89784   0.00000  Uiso   1.00
C960   C     0.95148   0.88495   0.60299   0.00000  Uiso   1.00
C961   C     0.80943   0.84409   0.90829   0.00000  Uiso   1.00
C962   C     0.85763   0.82436   0.59162   0.00000  Uiso   1.00
C963   C     0.79830   0.82585   0.95123   0.00000  Uiso   1.00
C964   C     0.81831   0.73331   0.74870   0.00000  Uiso   1.00
C965   C     0.86847   0.84380   0.54913   0.00000  Uiso   1.00
C966   C     0.73809   0.79361   0.96940   0.00000  Uiso   1.00
C967   C     0.92826   0.87674   0.53138   0.00000  Uiso   1.00
C968   C     0.84382   0.84005   0.97703   0.00000  Uiso   1.00
C969   C     0.82292   0.83016   0.52339   0.00000  Uiso   1.00
C970   C     0.72499   0.81275   0.58945   0.00000  Uiso   1.00
C971   C     0.94295   0.85925   0.91146   0.00000  Uiso   1.00
C972   C     0.75728   0.80757   0.54210   0.00000  Uiso   1.00
C973   C     0.90945   0.86337   0.95861   0.00000  Uiso   1.00
C974   C     0.71816   0.78515   0.51446   0.00000  Uiso   1.00
C975   C     0.94809   0.88605   0.98647   0.00000  Uiso   1.00
C976   C     0.85677   0.98935   0.75193   0.00000  Uiso   1.00
C977   C     0.80988   0.67731   0.74810   0.00000  Uiso   1.00
C978   C     0.79459   0.82905   0.83316   0.00000  Uiso   1.00
Cu979  Cu    0.77404   0.82775   0.74517   0.00000  Uiso   1.00
Cu980  Cu    0.89263   0.83892   0.75484   0.00000  Uiso   1.00
H981   H     0.66951   0.76512   0.52858   0.00000  Uiso   1.00
H982   H     0.76471   0.98682   0.74449   0.00000  Uiso   1.00
H983   H     0.66812   0.87235   0.78409   0.00000  Uiso   1.00
H984   H     0.99863   0.79444   0.71578   0.00000  Uiso   1.00
H985   H     0.71852   0.85725   0.64509   0.00000  Uiso   1.00
H986   H     0.67887   0.89284   0.85997   0.00000  Uiso   1.00
H987   H     0.99653   0.90678   0.97263   0.00000  Uiso   1.00
H988   H     0.81852   0.79200   0.60415   0.00000  Uiso   1.00
H989   H     0.84861   0.87615   0.89527   0.00000  Uiso   1.00
H990   H     0.98062   0.90470   0.62445   0.00000  Uiso   1.00
H991   H     0.68458   0.76481   0.87675   0.00000  Uiso   1.00
H992   H     0.98454   0.74691   0.95599   0.00000  Uiso   1.00
H993   H     0.68096   0.92418   0.54549   0.00000  Uiso   1.00
H994   H     0.90194   0.67984   0.75553   0.00000  Uiso   1.00
N995   N     0.98173   0.84735   0.76212   0.00000  Uiso   1.00
N996   N     0.68494   0.81932   0.73788   0.00000  Uiso   1.00
O997   O     0.79482   0.90476   0.74686   0.00000  Uiso   1.00
O998   O     0.74311   0.85877   0.61304   0.00000  Uiso   1.00
O999   O     0.92920   0.81909   0.89017   0.00000  Uiso   1.00
O1000  O     0.99217   0.90059   0.89189   0.00000  Uiso   1.00
O1001  O     0.87185   0.76191   0.75314   0.00000  Uiso   1.00
O1002  O     0.89496   0.91420   0.75503   0.00000  Uiso   1.00
O1003  O     0.77171   0.75247   0.74498   0.00000  Uiso   1.00
O1004  O     0.75518   0.82597   0.80855   0.00000  Uiso   1.00
O1005  O     0.91149   0.84070   0.69146   0.00000  Uiso   1.00
O1006  O     0.85532   0.83540   0.81671   0.00000  Uiso   1.00
O1007  O     0.81134   0.83126   0.68329   0.00000  Uiso   1.00
O1008  O     0.68161   0.77742   0.60759   0.00000  Uiso   1.00
loop_
_geom_bond_atom_site_label_1
_geom_bond_atom_site_label_2
_geom_bond_distance
_geom_bond_site_symmetry_2
_ccdc_geom_bond_type
C1     O50     1.289   .     A
C1     O45     1.294   .     A
C1     C24     1.428   .     S
C2     C4      1.464   .     S
C2     O55     1.298   .     A
C2     O53     1.303   .     A
C3     C9      1.396   .     A
C3     C7      1.397   .     A
C3     C26     1.465   .     S
C4     C8      1.397   .     A
C4     C10     1.396   .     A
C5     C14     1.405   .     A
C5     C7      1.393   .     A
C5     H152    1.084   1_455 S
C6     C8      1.393   .     A
C6     C15     1.405   .     A
C6     H97     1.084   .     S
C7     H39     1.083   .     S
C8     H38     1.082   .     S
C9     C11     1.406   .     A
C9     H37     1.079   .     S
C10    H36     1.079   .     S
C10    C13     1.406   .     A
C11    C16     1.431   .     A
C11    C14     1.415   .     A
C12    C25     1.428   .     S
C12    O49     1.294   .     A
C12    O51     1.289   .     A
C13    C15     1.413   .     A
C13    C17     1.429   .     A
C14    C526    1.388   .     S
C15    C527    1.387   1_554 S
C16    C21     1.436   .     A
C16    C521    1.434   .     S
C17    C20     1.434   .     A
C17    C520    1.434   1_554 S
C18    O56     1.224   .     D
C18    O46     1.399   .     S
C18    C20     1.487   .     S
C19    C21     1.485   .     S
C19    O47     1.223   .     D
C19    O48     1.399   .     S
C20    C22     1.397   .     A
C21    C23     1.396   .     A
C22    H29     1.085   .     S
C22    C518    1.388   1_554 S
C23    H35     1.085   .     S
C23    C519    1.387   .     S
C24    C193    1.329   .     S
C24    H210    1.088   .     S
C25    C360    1.329   1_545 S
C25    H366    1.088   1_545 S
C26    O52     1.303   .     A
C26    O54     1.298   .     A
Cu27   O45     1.955   .     S
Cu27   O52     1.928   .     S
Cu27   O55     1.907   .     S
Cu27   N44     2.027   .     S
Cu27   O51     1.951   .     S
Cu27   Cu28    2.697   .     S
Cu28   N43     2.027   .     S
Cu28   O53     1.928   .     S
Cu28   O49     1.955   .     S
Cu28   O54     1.907   .     S
Cu28   O50     1.951   .     S
H30    C193    1.088   .     S
H31    N155    1.029   1_455 S
H32    N100    1.029   .     S
H33    O46     1.014   .     S
H34    O160    1.013   1_455 S
H40    C61     1.084   .     S
H41    C118    1.084   1_455 S
H42    C360    1.088   1_545 S
N43    H87     1.029   .     S
N43    N100    1.284   .     S
N44    H144    1.029   1_455 S
N44    N155    1.284   1_455 S
O48    H90     1.013   .     S
C57    O106    1.289   .     A
C57    O101    1.294   .     A
C57    C80     1.428   .     S
C58    C60     1.464   .     S
C58    O111    1.298   .     A
C58    O109    1.303   .     A
C59    C65     1.396   .     A
C59    C63     1.397   .     A
C59    C82     1.465   .     S
C60    C64     1.397   .     A
C60    C66     1.396   .     A
C61    C70     1.405   .     A
C61    C63     1.393   .     A
C62    C64     1.393   .     A
C62    C71     1.405   .     A
C62    H153    1.084   .     S
C63    H95     1.083   .     S
C64    H94     1.082   .     S
C65    C67     1.406   .     A
C65    H93     1.079   .     S
C66    H92     1.079   .     S
C66    C69     1.406   .     A
C67    C72     1.431   .     A
C67    C70     1.415   .     A
C68    C81     1.428   .     S
C68    O105    1.294   .     A
C68    O107    1.289   .     A
C69    C71     1.413   .     A
C69    C73     1.429   .     A
C70    C582    1.388   .     S
C71    C583    1.387   1_554 S
C72    C77     1.436   .     A
C72    C577    1.434   .     S
C73    C76     1.434   .     A
C73    C576    1.434   1_554 S
C74    O112    1.224   .     D
C74    O102    1.399   .     S
C74    C76     1.487   .     S
C75    C77     1.485   .     S
C75    O103    1.223   .     D
C75    O104    1.399   .     S
C76    C78     1.397   .     A
C77    C79     1.396   .     A
C78    H85     1.085   .     S
C78    C574    1.388   1_554 S
C79    H91     1.085   .     S
C79    C575    1.387   .     S
C80    C249    1.329   .     S
C80    H266    1.088   .     S
C81    C416    1.329   1_545 S
C81    H422    1.088   1_545 S
C82    O108    1.303   .     A
C82    O110    1.298   .     A
Cu83   O101    1.955   .     S
Cu83   O108    1.928   .     S
Cu83   O111    1.907   .     S
Cu83   N100    2.027   .     S
Cu83   O107    1.951   .     S
Cu83   Cu84    2.697   .     S
Cu84   N99     2.027   .     S
Cu84   O109    1.928   .     S
Cu84   O105    1.955   .     S
Cu84   O110    1.907   .     S
Cu84   O106    1.951   .     S
H86    C249    1.088   .     S
H88    N156    1.029   .     S
H89    O102    1.014   .     S
H96    C117    1.084   .     S
H98    C416    1.088   1_545 S
N99    H143    1.029   .     S
N99    N156    1.284   .     S
O104   H146    1.013   .     S
C113   O162    1.289   .     A
C113   O157    1.294   .     A
C113   C136    1.428   .     S
C114   C116    1.464   .     S
C114   O167    1.298   .     A
C114   O165    1.303   .     A
C115   C121    1.396   .     A
C115   C119    1.397   .     A
C115   C138    1.465   .     S
C116   C120    1.397   .     A
C116   C122    1.396   .     A
C117   C126    1.405   .     A
C117   C119    1.393   .     A
C118   C120    1.393   .     A
C118   C127    1.405   .     A
C118   H41     1.084   1_655 S
C119   H151    1.083   .     S
C120   H150    1.082   .     S
C121   C123    1.406   .     A
C121   H149    1.079   .     S
C122   H148    1.079   .     S
C122   C125    1.406   .     A
C123   C128    1.431   .     A
C123   C126    1.415   .     A
C124   C137    1.428   .     S
C124   O161    1.294   .     A
C124   O163    1.289   .     A
C125   C127    1.413   .     A
C125   C129    1.429   .     A
C126   C638    1.388   .     S
C127   C639    1.387   1_554 S
C128   C133    1.436   .     A
C128   C633    1.434   .     S
C129   C132    1.434   .     A
C129   C632    1.434   1_554 S
C130   O168    1.224   .     D
C130   O158    1.399   .     S
C130   C132    1.487   .     S
C131   C133    1.485   .     S
C131   O159    1.223   .     D
C131   O160    1.399   .     S
C132   C134    1.397   .     A
C133   C135    1.396   .     A
C134   H141    1.085   .     S
C134   C630    1.388   1_554 S
C135   H147    1.085   .     S
C135   C631    1.387   .     S
C136   C305    1.329   .     S
C136   H322    1.088   .     S
C137   C472    1.329   1_545 S
C137   H478    1.088   1_545 S
C138   O164    1.303   .     A
C138   O166    1.298   .     A
Cu139  O157    1.955   .     S
Cu139  O164    1.928   .     S
Cu139  O167    1.907   .     S
Cu139  N156    2.027   .     S
Cu139  O163    1.951   .     S
Cu139  Cu140   2.697   .     S
Cu140  N155    2.027   .     S
Cu140  O165    1.928   .     S
Cu140  O161    1.955   .     S
Cu140  O166    1.907   .     S
Cu140  O162    1.951   .     S
H142   C305    1.088   .     S
H144   N44     1.029   1_655 S
H145   O158    1.014   .     S
H152   C5      1.084   1_655 S
H154   C472    1.088   1_545 S
N155   H31     1.029   1_655 S
N155   N44     1.284   1_655 S
O160   H34     1.013   1_655 S
C169   O218    1.289   .     A
C169   O213    1.294   .     A
C169   C192    1.428   .     S
C170   C172    1.464   .     S
C170   O223    1.298   .     A
C170   O221    1.303   .     A
C171   C177    1.396   .     A
C171   C175    1.397   .     A
C171   C194    1.465   .     S
C172   C176    1.397   .     A
C172   C178    1.396   .     A
C173   C182    1.405   .     A
C173   C175    1.393   .     A
C173   H320    1.084   1_455 S
C174   C176    1.393   .     A
C174   C183    1.405   .     A
C174   H265    1.084   .     S
C175   H207    1.083   .     S
C176   H206    1.082   .     S
C177   C179    1.406   .     A
C177   H205    1.079   .     S
C178   H204    1.079   .     S
C178   C181    1.406   .     A
C179   C184    1.431   .     A
C179   C182    1.415   .     A
C180   C193    1.428   .     S
C180   O217    1.294   .     A
C180   O219    1.289   .     A
C181   C183    1.413   .     A
C181   C185    1.429   .     A
C182   C694    1.388   .     S
C183   C695    1.387   1_554 S
C184   C189    1.436   .     A
C184   C689    1.434   .     S
C185   C188    1.434   .     A
C185   C688    1.434   1_554 S
C186   O224    1.224   .     D
C186   O214    1.399   .     S
C186   C188    1.487   .     S
C187   C189    1.485   .     S
C187   O215    1.223   .     D
C187   O216    1.399   .     S
C188   C190    1.397   .     A
C189   C191    1.396   .     A
C190   H197    1.085   .     S
C190   C686    1.388   1_554 S
C191   H203    1.085   .     S
C191   C687    1.387   .     S
C192   C361    1.329   .     S
C192   H378    1.088   .     S
C194   O220    1.303   .     A
C194   O222    1.298   .     A
Cu195  O213    1.955   .     S
Cu195  O220    1.928   .     S
Cu195  O223    1.907   .     S
Cu195  N212    2.027   .     S
Cu195  O219    1.951   .     S
Cu195  Cu196   2.697   .     S
Cu196  N211    2.027   .     S
Cu196  O221    1.928   .     S
Cu196  O217    1.955   .     S
Cu196  O222    1.907   .     S
Cu196  O218    1.951   .     S
H198   C361    1.088   .     S
H199   N323    1.029   1_455 S
H200   N268    1.029   .     S
H201   O214    1.014   .     S
H202   O328    1.013   1_455 S
H208   C229    1.084   .     S
H209   C286    1.084   1_455 S
N211   H255    1.029   .     S
N211   N268    1.284   .     S
N212   H312    1.029   1_455 S
N212   N323    1.284   1_455 S
O216   H258    1.013   .     S
C225   O274    1.289   .     A
C225   O269    1.294   .     A
C225   C248    1.428   .     S
C226   C228    1.464   .     S
C226   O279    1.298   .     A
C226   O277    1.303   .     A
C227   C233    1.396   .     A
C227   C231    1.397   .     A
C227   C250    1.465   .     S
C228   C232    1.397   .     A
C228   C234    1.396   .     A
C229   C238    1.405   .     A
C229   C231    1.393   .     A
C230   C232    1.393   .     A
C230   C239    1.405   .     A
C230   H321    1.084   .     S
C231   H263    1.083   .     S
C232   H262    1.082   .     S
C233   C235    1.406   .     A
C233   H261    1.079   .     S
C234   H260    1.079   .     S
C234   C237    1.406   .     A
C235   C240    1.431   .     A
C235   C238    1.415   .     A
C236   C249    1.428   .     S
C236   O273    1.294   .     A
C236   O275    1.289   .     A
C237   C239    1.413   .     A
C237   C241    1.429   .     A
C238   C750    1.388   .     S
C239   C751    1.387   1_554 S
C240   C245    1.436   .     A
C240   C745    1.434   .     S
C241   C244    1.434   .     A
C241   C744    1.434   1_554 S
C242   O280    1.224   .     D
C242   O270    1.399   .     S
C242   C244    1.487   .     S
C243   C245    1.485   .     S
C243   O271    1.223   .     D
C243   O272    1.399   .     S
C244   C246    1.397   .     A
C245   C247    1.396   .     A
C246   H253    1.085   .     S
C246   C742    1.388   1_554 S
C247   H259    1.085   .     S
C247   C743    1.387   .     S
C248   C417    1.329   .     S
C248   H434    1.088   .     S
C250   O276    1.303   .     A
C250   O278    1.298   .     A
Cu251  O269    1.955   .     S
Cu251  O276    1.928   .     S
Cu251  O279    1.907   .     S
Cu251  N268    2.027   .     S
Cu251  O275    1.951   .     S
Cu251  Cu252   2.697   .     S
Cu252  N267    2.027   .     S
Cu252  O277    1.928   .     S
Cu252  O273    1.955   .     S
Cu252  O278    1.907   .     S
Cu252  O274    1.951   .     S
H254   C417    1.088   .     S
H256   N324    1.029   .     S
H257   O270    1.014   .     S
H264   C285    1.084   .     S
N267   H311    1.029   .     S
N267   N324    1.284   .     S
O272   H314    1.013   .     S
C281   O330    1.289   .     A
C281   O325    1.294   .     A
C281   C304    1.428   .     S
C282   C284    1.464   .     S
C282   O335    1.298   .     A
C282   O333    1.303   .     A
C283   C289    1.396   .     A
C283   C287    1.397   .     A
C283   C306    1.465   .     S
C284   C288    1.397   .     A
C284   C290    1.396   .     A
C285   C294    1.405   .     A
C285   C287    1.393   .     A
C286   C288    1.393   .     A
C286   C295    1.405   .     A
C286   H209    1.084   1_655 S
C287   H319    1.083   .     S
C288   H318    1.082   .     S
C289   C291    1.406   .     A
C289   H317    1.079   .     S
C290   H316    1.079   .     S
C290   C293    1.406   .     A
C291   C296    1.431   .     A
C291   C294    1.415   .     A
C292   C305    1.428   .     S
C292   O329    1.294   .     A
C292   O331    1.289   .     A
C293   C295    1.413   .     A
C293   C297    1.429   .     A
C294   C806    1.388   .     S
C295   C807    1.387   1_554 S
C296   C301    1.436   .     A
C296   C801    1.434   .     S
C297   C300    1.434   .     A
C297   C800    1.434   1_554 S
C298   O336    1.224   .     D
C298   O326    1.399   .     S
C298   C300    1.487   .     S
C299   C301    1.485   .     S
C299   O327    1.223   .     D
C299   O328    1.399   .     S
C300   C302    1.397   .     A
C301   C303    1.396   .     A
C302   H309    1.085   .     S
C302   C798    1.388   1_554 S
C303   H315    1.085   .     S
C303   C799    1.387   .     S
C304   C473    1.329   .     S
C304   H490    1.088   .     S
C306   O332    1.303   .     A
C306   O334    1.298   .     A
Cu307  O325    1.955   .     S
Cu307  O332    1.928   .     S
Cu307  O335    1.907   .     S
Cu307  N324    2.027   .     S
Cu307  O331    1.951   .     S
Cu307  Cu308   2.697   .     S
Cu308  N323    2.027   .     S
Cu308  O333    1.928   .     S
Cu308  O329    1.955   .     S
Cu308  O334    1.907   .     S
Cu308  O330    1.951   .     S
H310   C473    1.088   .     S
H312   N212    1.029   1_655 S
H313   O326    1.014   .     S
H320   C173    1.084   1_655 S
N323   H199    1.029   1_655 S
N323   N212    1.284   1_655 S
O328   H202    1.013   1_655 S
C337   O386    1.289   .     A
C337   O381    1.294   .     A
C337   C360    1.428   .     S
C338   C340    1.464   .     S
C338   O391    1.298   .     A
C338   O389    1.303   .     A
C339   C345    1.396   .     A
C339   C343    1.397   .     A
C339   C362    1.465   .     S
C340   C344    1.397   .     A
C340   C346    1.396   .     A
C341   C350    1.405   .     A
C341   C343    1.393   .     A
C341   H488    1.084   1_455 S
C342   C344    1.393   .     A
C342   C351    1.405   .     A
C342   H433    1.084   .     S
C343   H375    1.083   .     S
C344   H374    1.082   .     S
C345   C347    1.406   .     A
C345   H373    1.079   .     S
C346   H372    1.079   .     S
C346   C349    1.406   .     A
C347   C352    1.431   .     A
C347   C350    1.415   .     A
C348   C361    1.428   .     S
C348   O385    1.294   .     A
C348   O387    1.289   .     A
C349   C351    1.413   .     A
C349   C353    1.429   .     A
C350   C862    1.388   .     S
C351   C863    1.387   1_554 S
C352   C357    1.436   .     A
C352   C857    1.434   .     S
C353   C356    1.434   .     A
C353   C856    1.434   1_554 S
C354   O392    1.224   .     D
C354   O382    1.399   .     S
C354   C356    1.487   .     S
C355   C357    1.485   .     S
C355   O383    1.223   .     D
C355   O384    1.399   .     S
C356   C358    1.397   .     A
C357   C359    1.396   .     A
C358   H365    1.085   .     S
C358   C854    1.388   1_554 S
C359   H371    1.085   .     S
C359   C855    1.387   .     S
C360   C25     1.329   1_565 S
C360   H42     1.088   1_565 S
C362   O388    1.303   .     A
C362   O390    1.298   .     A
Cu363  O381    1.955   .     S
Cu363  O388    1.928   .     S
Cu363  O391    1.907   .     S
Cu363  N380    2.027   .     S
Cu363  O387    1.951   .     S
Cu363  Cu364   2.697   .     S
Cu364  N379    2.027   .     S
Cu364  O389    1.928   .     S
Cu364  O385    1.955   .     S
Cu364  O390    1.907   .     S
Cu364  O386    1.951   .     S
H366   C25     1.088   1_565 S
H367   N491    1.029   1_455 S
H368   N436    1.029   .     S
H369   O382    1.014   .     S
H370   O496    1.013   1_455 S
H376   C397    1.084   .     S
H377   C454    1.084   1_455 S
N379   H423    1.029   .     S
N379   N436    1.284   .     S
N380   H480    1.029   1_455 S
N380   N491    1.284   1_455 S
O384   H426    1.013   .     S
C393   O442    1.289   .     A
C393   O437    1.294   .     A
C393   C416    1.428   .     S
C394   C396    1.464   .     S
C394   O447    1.298   .     A
C394   O445    1.303   .     A
C395   C401    1.396   .     A
C395   C399    1.397   .     A
C395   C418    1.465   .     S
C396   C400    1.397   .     A
C396   C402    1.396   .     A
C397   C406    1.405   .     A
C397   C399    1.393   .     A
C398   C400    1.393   .     A
C398   C407    1.405   .     A
C398   H489    1.084   .     S
C399   H431    1.083   .     S
C400   H430    1.082   .     S
C401   C403    1.406   .     A
C401   H429    1.079   .     S
C402   H428    1.079   .     S
C402   C405    1.406   .     A
C403   C408    1.431   .     A
C403   C406    1.415   .     A
C404   C417    1.428   .     S
C404   O441    1.294   .     A
C404   O443    1.289   .     A
C405   C407    1.413   .     A
C405   C409    1.429   .     A
C406   C918    1.388   .     S
C407   C919    1.387   1_554 S
C408   C413    1.436   .     A
C408   C913    1.434   .     S
C409   C412    1.434   .     A
C409   C912    1.434   1_554 S
C410   O448    1.224   .     D
C410   O438    1.399   .     S
C410   C412    1.487   .     S
C411   C413    1.485   .     S
C411   O439    1.223   .     D
C411   O440    1.399   .     S
C412   C414    1.397   .     A
C413   C415    1.396   .     A
C414   H421    1.085   .     S
C414   C910    1.388   1_554 S
C415   H427    1.085   .     S
C415   C911    1.387   .     S
C416   C81     1.329   1_565 S
C416   H98     1.088   1_565 S
C418   O444    1.303   .     A
C418   O446    1.298   .     A
Cu419  O437    1.955   .     S
Cu419  O444    1.928   .     S
Cu419  O447    1.907   .     S
Cu419  N436    2.027   .     S
Cu419  O443    1.951   .     S
Cu419  Cu420   2.697   .     S
Cu420  N435    2.027   .     S
Cu420  O445    1.928   .     S
Cu420  O441    1.955   .     S
Cu420  O446    1.907   .     S
Cu420  O442    1.951   .     S
H422   C81     1.088   1_565 S
H424   N492    1.029   .     S
H425   O438    1.014   .     S
H432   C453    1.084   .     S
N435   H479    1.029   .     S
N435   N492    1.284   .     S
O440   H482    1.013   .     S
C449   O498    1.289   .     A
C449   O493    1.294   .     A
C449   C472    1.428   .     S
C450   C452    1.464   .     S
C450   O503    1.298   .     A
C450   O501    1.303   .     A
C451   C457    1.396   .     A
C451   C455    1.397   .     A
C451   C474    1.465   .     S
C452   C456    1.397   .     A
C452   C458    1.396   .     A
C453   C462    1.405   .     A
C453   C455    1.393   .     A
C454   C456    1.393   .     A
C454   C463    1.405   .     A
C454   H377    1.084   1_655 S
C455   H487    1.083   .     S
C456   H486    1.082   .     S
C457   C459    1.406   .     A
C457   H485    1.079   .     S
C458   H484    1.079   .     S
C458   C461    1.406   .     A
C459   C464    1.431   .     A
C459   C462    1.415   .     A
C460   C473    1.428   .     S
C460   O497    1.294   .     A
C460   O499    1.289   .     A
C461   C463    1.413   .     A
C461   C465    1.429   .     A
C462   C974    1.388   .     S
C463   C975    1.387   1_554 S
C464   C469    1.436   .     A
C464   C969    1.434   .     S
C465   C468    1.434   .     A
C465   C968    1.434   1_554 S
C466   O504    1.224   .     D
C466   O494    1.399   .     S
C466   C468    1.487   .     S
C467   C469    1.485   .     S
C467   O495    1.223   .     D
C467   O496    1.399   .     S
C468   C470    1.397   .     A
C469   C471    1.396   .     A
C470   H477    1.085   .     S
C470   C966    1.388   1_554 S
C471   H483    1.085   .     S
C471   C967    1.387   .     S
C472   C137    1.329   1_565 S
C472   H154    1.088   1_565 S
C474   O500    1.303   .     A
C474   O502    1.298   .     A
Cu475  O493    1.955   .     S
Cu475  O500    1.928   .     S
Cu475  O503    1.907   .     S
Cu475  N492    2.027   .     S
Cu475  O499    1.951   .     S
Cu475  Cu476   2.697   .     S
Cu476  N491    2.027   .     S
Cu476  O501    1.928   .     S
Cu476  O497    1.955   .     S
Cu476  O502    1.907   .     S
Cu476  O498    1.951   .     S
H478   C137    1.088   1_565 S
H480   N380    1.029   1_655 S
H481   O494    1.014   .     S
H488   C341    1.084   1_655 S
N491   H367    1.029   1_655 S
N491   N380    1.284   1_655 S
O496   H370    1.013   1_655 S
C505   O554    1.289   .     A
C505   O549    1.294   .     A
C505   C528    1.428   .     S
C506   C508    1.464   .     S
C506   O559    1.298   .     A
C506   O557    1.303   .     A
C507   C513    1.396   .     A
C507   C511    1.397   .     A
C507   C530    1.465   .     S
C508   C512    1.397   .     A
C508   C514    1.396   .     A
C509   C518    1.405   .     A
C509   C511    1.393   .     A
C509   H656    1.084   1_455 S
C510   C512    1.393   .     A
C510   C519    1.405   .     A
C510   H601    1.084   .     S
C511   H543    1.083   .     S
C512   H542    1.082   .     S
C513   C515    1.406   .     A
C513   H541    1.079   .     S
C514   H540    1.079   .     S
C514   C517    1.406   .     A
C515   C520    1.431   .     A
C515   C518    1.415   .     A
C516   C529    1.428   .     S
C516   O553    1.294   .     A
C516   O555    1.289   .     A
C517   C519    1.413   .     A
C517   C521    1.429   .     A
C518   C22     1.388   1_556 S
C520   C525    1.436   .     A
C520   C17     1.434   1_556 S
C521   C524    1.434   .     A
C522   O560    1.224   .     D
C522   O550    1.399   .     S
C522   C524    1.487   .     S
C523   C525    1.485   .     S
C523   O551    1.223   .     D
C523   O552    1.399   .     S
C524   C526    1.397   .     A
C525   C527    1.396   .     A
C526   H533    1.085   .     S
C527   H539    1.085   .     S
C527   C15     1.387   1_556 S
C528   C697    1.329   .     S
C528   H714    1.088   .     S
C529   C864    1.329   1_545 S
C529   H870    1.088   1_545 S
C530   O556    1.303   .     A
C530   O558    1.298   .     A
Cu531  O549    1.955   .     S
Cu531  O556    1.928   .     S
Cu531  O559    1.907   .     S
Cu531  N548    2.027   .     S
Cu531  O555    1.951   .     S
Cu531  Cu532   2.697   .     S
Cu532  N547    2.027   .     S
Cu532  O557    1.928   .     S
Cu532  O553    1.955   .     S
Cu532  O558    1.907   .     S
Cu532  O554    1.951   .     S
H534   C697    1.088   .     S
H535   N659    1.029   1_455 S
H536   N604    1.029   .     S
H537   O550    1.014   .     S
H538   O664    1.013   1_455 S
H544   C565    1.084   .     S
H545   C622    1.084   1_455 S
H546   C864    1.088   1_545 S
N547   H591    1.029   .     S
N547   N604    1.284   .     S
N548   H648    1.029   1_455 S
N548   N659    1.284   1_455 S
O552   H594    1.013   .     S
C561   O610    1.289   .     A
C561   O605    1.294   .     A
C561   C584    1.428   .     S
C562   C564    1.464   .     S
C562   O615    1.298   .     A
C562   O613    1.303   .     A
C563   C569    1.396   .     A
C563   C567    1.397   .     A
C563   C586    1.465   .     S
C564   C568    1.397   .     A
C564   C570    1.396   .     A
C565   C574    1.405   .     A
C565   C567    1.393   .     A
C566   C568    1.393   .     A
C566   C575    1.405   .     A
C566   H657    1.084   .     S
C567   H599    1.083   .     S
C568   H598    1.082   .     S
C569   C571    1.406   .     A
C569   H597    1.079   .     S
C570   H596    1.079   .     S
C570   C573    1.406   .     A
C571   C576    1.431   .     A
C571   C574    1.415   .     A
C572   C585    1.428   .     S
C572   O609    1.294   .     A
C572   O611    1.289   .     A
C573   C575    1.413   .     A
C573   C577    1.429   .     A
C574   C78     1.388   1_556 S
C576   C581    1.436   .     A
C576   C73     1.434   1_556 S
C577   C580    1.434   .     A
C578   O616    1.224   .     D
C578   O606    1.399   .     S
C578   C580    1.487   .     S
C579   C581    1.485   .     S
C579   O607    1.223   .     D
C579   O608    1.399   .     S
C580   C582    1.397   .     A
C581   C583    1.396   .     A
C582   H589    1.085   .     S
C583   H595    1.085   .     S
C583   C71     1.387   1_556 S
C584   C753    1.329   .     S
C584   H770    1.088   .     S
C585   C920    1.329   1_545 S
C585   H926    1.088   1_545 S
C586   O612    1.303   .     A
C586   O614    1.298   .     A
Cu587  O605    1.955   .     S
Cu587  O612    1.928   .     S
Cu587  O615    1.907   .     S
Cu587  N604    2.027   .     S
Cu587  O611    1.951   .     S
Cu587  Cu588   2.697   .     S
Cu588  N603    2.027   .     S
Cu588  O613    1.928   .     S
Cu588  O609    1.955   .     S
Cu588  O614    1.907   .     S
Cu588  O610    1.951   .     S
H590   C753    1.088   .     S
H592   N660    1.029   .     S
H593   O606    1.014   .     S
H600   C621    1.084   .     S
H602   C920    1.088   1_545 S
N603   H647    1.029   .     S
N603   N660    1.284   .     S
O608   H650    1.013   .     S
C617   O666    1.289   .     A
C617   O661    1.294   .     A
C617   C640    1.428   .     S
C618   C620    1.464   .     S
C618   O671    1.298   .     A
C618   O669    1.303   .     A
C619   C625    1.396   .     A
C619   C623    1.397   .     A
C619   C642    1.465   .     S
C620   C624    1.397   .     A
C620   C626    1.396   .     A
C621   C630    1.405   .     A
C621   C623    1.393   .     A
C622   C624    1.393   .     A
C622   C631    1.405   .     A
C622   H545    1.084   1_655 S
C623   H655    1.083   .     S
C624   H654    1.082   .     S
C625   C627    1.406   .     A
C625   H653    1.079   .     S
C626   H652    1.079   .     S
C626   C629    1.406   .     A
C627   C632    1.431   .     A
C627   C630    1.415   .     A
C628   C641    1.428   .     S
C628   O665    1.294   .     A
C628   O667    1.289   .     A
C629   C631    1.413   .     A
C629   C633    1.429   .     A
C630   C134    1.388   1_556 S
C632   C637    1.436   .     A
C632   C129    1.434   1_556 S
C633   C636    1.434   .     A
C634   O672    1.224   .     D
C634   O662    1.399   .     S
C634   C636    1.487   .     S
C635   C637    1.485   .     S
C635   O663    1.223   .     D
C635   O664    1.399   .     S
C636   C638    1.397   .     A
C637   C639    1.396   .     A
C638   H645    1.085   .     S
C639   H651    1.085   .     S
C639   C127    1.387   1_556 S
C640   C809    1.329   .     S
C640   H826    1.088   .     S
C641   C976    1.329   1_545 S
C641   H982    1.088   1_545 S
C642   O668    1.303   .     A
C642   O670    1.298   .     A
Cu643  O661    1.955   .     S
Cu643  O668    1.928   .     S
Cu643  O671    1.907   .     S
Cu643  N660    2.027   .     S
Cu643  O667    1.951   .     S
Cu643  Cu644   2.697   .     S
Cu644  N659    2.027   .     S
Cu644  O669    1.928   .     S
Cu644  O665    1.955   .     S
Cu644  O670    1.907   .     S
Cu644  O666    1.951   .     S
H646   C809    1.088   .     S
H648   N548    1.029   1_655 S
H649   O662    1.014   .     S
H656   C509    1.084   1_655 S
H658   C976    1.088   1_545 S
N659   H535    1.029   1_655 S
N659   N548    1.284   1_655 S
O664   H538    1.013   1_655 S
C673   O722    1.289   .     A
C673   O717    1.294   .     A
C673   C696    1.428   .     S
C674   C676    1.464   .     S
C674   O727    1.298   .     A
C674   O725    1.303   .     A
C675   C681    1.396   .     A
C675   C679    1.397   .     A
C675   C698    1.465   .     S
C676   C680    1.397   .     A
C676   C682    1.396   .     A
C677   C686    1.405   .     A
C677   C679    1.393   .     A
C677   H824    1.084   1_455 S
C678   C680    1.393   .     A
C678   C687    1.405   .     A
C678   H769    1.084   .     S
C679   H711    1.083   .     S
C680   H710    1.082   .     S
C681   C683    1.406   .     A
C681   H709    1.079   .     S
C682   H708    1.079   .     S
C682   C685    1.406   .     A
C683   C688    1.431   .     A
C683   C686    1.415   .     A
C684   C697    1.428   .     S
C684   O721    1.294   .     A
C684   O723    1.289   .     A
C685   C687    1.413   .     A
C685   C689    1.429   .     A
C686   C190    1.388   1_556 S
C688   C693    1.436   .     A
C688   C185    1.434   1_556 S
C689   C692    1.434   .     A
C690   O728    1.224   .     D
C690   O718    1.399   .     S
C690   C692    1.487   .     S
C691   C693    1.485   .     S
C691   O719    1.223   .     D
C691   O720    1.399   .     S
C692   C694    1.397   .     A
C693   C695    1.396   .     A
C694   H701    1.085   .     S
C695   H707    1.085   .     S
C695   C183    1.387   1_556 S
C696   C865    1.329   .     S
C696   H882    1.088   .     S
C698   O724    1.303   .     A
C698   O726    1.298   .     A
Cu699  O717    1.955   .     S
Cu699  O724    1.928   .     S
Cu699  O727    1.907   .     S
Cu699  N716    2.027   .     S
Cu699  O723    1.951   .     S
Cu699  Cu700   2.697   .     S
Cu700  N715    2.027   .     S
Cu700  O725    1.928   .     S
Cu700  O721    1.955   .     S
Cu700  O726    1.907   .     S
Cu700  O722    1.951   .     S
H702   C865    1.088   .     S
H703   N827    1.029   1_455 S
H704   N772    1.029   .     S
H705   O718    1.014   .     S
H706   O832    1.013   1_455 S
H712   C733    1.084   .     S
H713   C790    1.084   1_455 S
N715   H759    1.029   .     S
N715   N772    1.284   .     S
N716   H816    1.029   1_455 S
N716   N827    1.284   1_455 S
O720   H762    1.013   .     S
C729   O778    1.289   .     A
C729   O773    1.294   .     A
C729   C752    1.428   .     S
C730   C732    1.464   .     S
C730   O783    1.298   .     A
C730   O781    1.303   .     A
C731   C737    1.396   .     A
C731   C735    1.397   .     A
C731   C754    1.465   .     S
C732   C736    1.397   .     A
C732   C738    1.396   .     A
C733   C742    1.405   .     A
C733   C735    1.393   .     A
C734   C736    1.393   .     A
C734   C743    1.405   .     A
C734   H825    1.084   .     S
C735   H767    1.083   .     S
C736   H766    1.082   .     S
C737   C739    1.406   .     A
C737   H765    1.079   .     S
C738   H764    1.079   .     S
C738   C741    1.406   .     A
C739   C744    1.431   .     A
C739   C742    1.415   .     A
C740   C753    1.428   .     S
C740   O777    1.294   .     A
C740   O779    1.289   .     A
C741   C743    1.413   .     A
C741   C745    1.429   .     A
C742   C246    1.388   1_556 S
C744   C749    1.436   .     A
C744   C241    1.434   1_556 S
C745   C748    1.434   .     A
C746   O784    1.224   .     D
C746   O774    1.399   .     S
C746   C748    1.487   .     S
C747   C749    1.485   .     S
C747   O775    1.223   .     D
C747   O776    1.399   .     S
C748   C750    1.397   .     A
C749   C751    1.396   .     A
C750   H757    1.085   .     S
C751   H763    1.085   .     S
C751   C239    1.387   1_556 S
C752   C921    1.329   .     S
C752   H938    1.088   .     S
C754   O780    1.303   .     A
C754   O782    1.298   .     A
Cu755  O773    1.955   .     S
Cu755  O780    1.928   .     S
Cu755  O783    1.907   .     S
Cu755  N772    2.027   .     S
Cu755  O779    1.951   .     S
Cu755  Cu756   2.697   .     S
Cu756  N771    2.027   .     S
Cu756  O781    1.928   .     S
Cu756  O777    1.955   .     S
Cu756  O782    1.907   .     S
Cu756  O778    1.951   .     S
H758   C921    1.088   .     S
H760   N828    1.029   .     S
H761   O774    1.014   .     S
H768   C789    1.084   .     S
N771   H815    1.029   .     S
N771   N828    1.284   .     S
O776   H818    1.013   .     S
C785   O834    1.289   .     A
C785   O829    1.294   .     A
C785   C808    1.428   .     S
C786   C788    1.464   .     S
C786   O839    1.298   .     A
C786   O837    1.303   .     A
C787   C793    1.396   .     A
C787   C791    1.397   .     A
C787   C810    1.465   .     S
C788   C792    1.397   .     A
C788   C794    1.396   .     A
C789   C798    1.405   .     A
C789   C791    1.393   .     A
C790   C792    1.393   .     A
C790   C799    1.405   .     A
C790   H713    1.084   1_655 S
C791   H823    1.083   .     S
C792   H822    1.082   .     S
C793   C795    1.406   .     A
C793   H821    1.079   .     S
C794   H820    1.079   .     S
C794   C797    1.406   .     A
C795   C800    1.431   .     A
C795   C798    1.415   .     A
C796   C809    1.428   .     S
C796   O833    1.294   .     A
C796   O835    1.289   .     A
C797   C799    1.413   .     A
C797   C801    1.429   .     A
C798   C302    1.388   1_556 S
C800   C805    1.436   .     A
C800   C297    1.434   1_556 S
C801   C804    1.434   .     A
C802   O840    1.224   .     D
C802   O830    1.399   .     S
C802   C804    1.487   .     S
C803   C805    1.485   .     S
C803   O831    1.223   .     D
C803   O832    1.399   .     S
C804   C806    1.397   .     A
C805   C807    1.396   .     A
C806   H813    1.085   .     S
C807   H819    1.085   .     S
C807   C295    1.387   1_556 S
C808   C977    1.329   .     S
C808   H994    1.088   .     S
C810   O836    1.303   .     A
C810   O838    1.298   .     A
Cu811  O829    1.955   .     S
Cu811  O836    1.928   .     S
Cu811  O839    1.907   .     S
Cu811  N828    2.027   .     S
Cu811  O835    1.951   .     S
Cu811  Cu812   2.697   .     S
Cu812  N827    2.027   .     S
Cu812  O837    1.928   .     S
Cu812  O833    1.955   .     S
Cu812  O838    1.907   .     S
Cu812  O834    1.951   .     S
H814   C977    1.088   .     S
H816   N716    1.029   1_655 S
H817   O830    1.014   .     S
H824   C677    1.084   1_655 S
N827   H703    1.029   1_655 S
N827   N716    1.284   1_655 S
O832   H706    1.013   1_655 S
C841   O890    1.289   .     A
C841   O885    1.294   .     A
C841   C864    1.428   .     S
C842   C844    1.464   .     S
C842   O895    1.298   .     A
C842   O893    1.303   .     A
C843   C849    1.396   .     A
C843   C847    1.397   .     A
C843   C866    1.465   .     S
C844   C848    1.397   .     A
C844   C850    1.396   .     A
C845   C854    1.405   .     A
C845   C847    1.393   .     A
C845   H992    1.084   1_455 S
C846   C848    1.393   .     A
C846   C855    1.405   .     A
C846   H937    1.084   .     S
C847   H879    1.083   .     S
C848   H878    1.082   .     S
C849   C851    1.406   .     A
C849   H877    1.079   .     S
C850   H876    1.079   .     S
C850   C853    1.406   .     A
C851   C856    1.431   .     A
C851   C854    1.415   .     A
C852   C865    1.428   .     S
C852   O889    1.294   .     A
C852   O891    1.289   .     A
C853   C855    1.413   .     A
C853   C857    1.429   .     A
C854   C358    1.388   1_556 S
C856   C861    1.436   .     A
C856   C353    1.434   1_556 S
C857   C860    1.434   .     A
C858   O896    1.224   .     D
C858   O886    1.399   .     S
C858   C860    1.487   .     S
C859   C861    1.485   .     S
C859   O887    1.223   .     D
C859   O888    1.399   .     S
C860   C862    1.397   .     A
C861   C863    1.396   .     A
C862   H869    1.085   .     S
C863   H875    1.085   .     S
C863   C351    1.387   1_556 S
C864   C529    1.329   1_565 S
C864   H546    1.088   1_565 S
C866   O892    1.303   .     A
C866   O894    1.298   .     A
Cu867  O885    1.955   .     S
Cu867  O892    1.928   .     S
Cu867  O895    1.907   .     S
Cu867  N884    2.027   .     S
Cu867  O891    1.951   .     S
Cu867  Cu868   2.697   .     S
Cu868  N883    2.027   .     S
Cu868  O893    1.928   .     S
Cu868  O889    1.955   .     S
Cu868  O894    1.907   .     S
Cu868  O890    1.951   .     S
H870   C529    1.088   1_565 S
H871   N995    1.029   1_455 S
H872   N940    1.029   .     S
H873   O886    1.014   .     S
H874   O1000   1.013   1_455 S
H880   C901    1.084   .     S
H881   C958    1.084   1_455 S
N883   H927    1.029   .     S
N883   N940    1.284   .     S
N884   H984    1.029   1_455 S
N884   N995    1.284   1_455 S
O888   H930    1.013   .     S
C897   O946    1.289   .     A
C897   O941    1.294   .     A
C897   C920    1.428   .     S
C898   C900    1.464   .     S
C898   O951    1.298   .     A
C898   O949    1.303   .     A
C899   C905    1.396   .     A
C899   C903    1.397   .     A
C899   C922    1.465   .     S
C900   C904    1.397   .     A
C900   C906    1.396   .     A
C901   C910    1.405   .     A
C901   C903    1.393   .     A
C902   C904    1.393   .     A
C902   C911    1.405   .     A
C902   H993    1.084   .     S
C903   H935    1.083   .     S
C904   H934    1.082   .     S
C905   C907    1.406   .     A
C905   H933    1.079   .     S
C906   H932    1.079   .     S
C906   C909    1.406   .     A
C907   C912    1.431   .     A
C907   C910    1.415   .     A
C908   C921    1.428   .     S
C908   O945    1.294   .     A
C908   O947    1.289   .     A
C909   C911    1.413   .     A
C909   C913    1.429   .     A
C910   C414    1.388   1_556 S
C912   C917    1.436   .     A
C912   C409    1.434   1_556 S
C913   C916    1.434   .     A
C914   O952    1.224   .     D
C914   O942    1.399   .     S
C914   C916    1.487   .     S
C915   C917    1.485   .     S
C915   O943    1.223   .     D
C915   O944    1.399   .     S
C916   C918    1.397   .     A
C917   C919    1.396   .     A
C918   H925    1.085   .     S
C919   H931    1.085   .     S
C919   C407    1.387   1_556 S
C920   C585    1.329   1_565 S
C920   H602    1.088   1_565 S
C922   O948    1.303   .     A
C922   O950    1.298   .     A
Cu923  O941    1.955   .     S
Cu923  O948    1.928   .     S
Cu923  O951    1.907   .     S
Cu923  N940    2.027   .     S
Cu923  O947    1.951   .     S
Cu923  Cu924   2.697   .     S
Cu924  N939    2.027   .     S
Cu924  O949    1.928   .     S
Cu924  O945    1.955   .     S
Cu924  O950    1.907   .     S
Cu924  O946    1.951   .     S
H926   C585    1.088   1_565 S
H928   N996    1.029   .     S
H929   O942    1.014   .     S
H936   C957    1.084   .     S
N939   H983    1.029   .     S
N939   N996    1.284   .     S
O944   H986    1.013   .     S
C953   O1002   1.289   .     A
C953   O997    1.294   .     A
C953   C976    1.428   .     S
C954   C956    1.464   .     S
C954   O1007   1.298   .     A
C954   O1005   1.303   .     A
C955   C961    1.396   .     A
C955   C959    1.397   .     A
C955   C978    1.465   .     S
C956   C960    1.397   .     A
C956   C962    1.396   .     A
C957   C966    1.405   .     A
C957   C959    1.393   .     A
C958   C960    1.393   .     A
C958   C967    1.405   .     A
C958   H881    1.084   1_655 S
C959   H991    1.083   .     S
C960   H990    1.082   .     S
C961   C963    1.406   .     A
C961   H989    1.079   .     S
C962   H988    1.079   .     S
C962   C965    1.406   .     A
C963   C968    1.431   .     A
C963   C966    1.415   .     A
C964   C977    1.428   .     S
C964   O1001   1.294   .     A
C964   O1003   1.289   .     A
C965   C967    1.413   .     A
C965   C969    1.429   .     A
C966   C470    1.388   1_556 S
C968   C973    1.436   .     A
C968   C465    1.434   1_556 S
C969   C972    1.434   .     A
C970   O1008   1.224   .     D
C970   O998    1.399   .     S
C970   C972    1.487   .     S
C971   C973    1.485   .     S
C971   O999    1.223   .     D
C971   O1000   1.399   .     S
C972   C974    1.397   .     A
C973   C975    1.396   .     A
C974   H981    1.085   .     S
C975   H987    1.085   .     S
C975   C463    1.387   1_556 S
C976   C641    1.329   1_565 S
C976   H658    1.088   1_565 S
C978   O1004   1.303   .     A
C978   O1006   1.298   .     A
Cu979  O997    1.955   .     S
Cu979  O1004   1.928   .     S
Cu979  O1007   1.907   .     S
Cu979  N996    2.027   .     S
Cu979  O1003   1.951   .     S
Cu979  Cu980   2.697   .     S
Cu980  N995    2.027   .     S
Cu980  O1005   1.928   .     S
Cu980  O1001   1.955   .     S
Cu980  O1006   1.907   .     S
Cu980  O1002   1.951   .     S
H982   C641    1.088   1_565 S
H984   N884    1.029   1_655 S
H985   O998    1.014   .     S
H992   C845    1.084   1_655 S
N995   H871    1.029   1_655 S
N995   N884    1.284   1_655 S
O1000  H874    1.013   1_655 S
