data_str_m2_o1_o16_pcu_sym.20
_audit_creation_date              2020-01-03
_audit_creation_method            'Materials Studio'
_symmetry_space_group_name_H-M    'P1'
_symmetry_Int_Tables_number       1
_symmetry_cell_setting            triclinic
loop_
_symmetry_equiv_pos_as_xyz
  x,y,z
_cell_length_a                    28.6560
_cell_length_b                    32.4888
_cell_length_c                    26.8617
_cell_angle_alpha                 90.0867
_cell_angle_beta                  72.8738
_cell_angle_gamma                 90.2170
loop_
_atom_site_label
_atom_site_type_symbol
_atom_site_fract_x
_atom_site_fract_y
_atom_site_fract_z
_atom_site_U_iso_or_equiv
_atom_site_adp_type
_atom_site_occupancy
C1     C     0.16690   0.24594   0.24935   0.00000  Uiso   1.00
C2     C     0.12596   0.18148   0.40602   0.00000  Uiso   1.00
C3     C     0.20940   0.31220   0.24893   0.00000  Uiso   1.00
C4     C     0.14085   0.17134   0.34963   0.00000  Uiso   1.00
C5     C     0.20923   0.02144   0.24931   0.00000  Uiso   1.00
C6     C     0.16670   0.04275   0.24965   0.00000  Uiso   1.00
C7     C     0.12435   0.02112   0.24955   0.00000  Uiso   1.00
C8     C     0.12449   0.31188   0.24924   0.00000  Uiso   1.00
C9     C     0.16699   0.29057   0.24902   0.00000  Uiso   1.00
C10    C     0.31856   0.19098   0.21597   0.00000  Uiso   1.00
C11    C     0.03453   0.19084   0.21618   0.00000  Uiso   1.00
C12    C     0.14553   0.18306   0.48873   0.00000  Uiso   1.00
C13    C     0.01528   0.14241   0.28385   0.00000  Uiso   1.00
C14    C     0.29911   0.14232   0.28375   0.00000  Uiso   1.00
C15    C     0.16662   0.08739   0.24996   0.00000  Uiso   1.00
C16    C     0.19261   0.16593   0.14996   0.00000  Uiso   1.00
C17    C     0.26680   0.16231   0.00831   0.00000  Uiso   1.00
C18    C     0.20668   0.16595   0.09285   0.00000  Uiso   1.00
C19    C     0.07615   0.18451   0.43336   0.00000  Uiso   1.00
C20    C     0.06146   0.18949   0.48721   0.00000  Uiso   1.00
C21    C     0.09515   0.18641   0.01504   0.00000  Uiso   1.00
C22    C     0.16076   0.18696   0.43385   0.00000  Uiso   1.00
C23    C     0.18166   0.17647   0.01446   0.00000  Uiso   1.00
C24    C     0.23129   0.17327   0.48453   0.00000  Uiso   1.00
C25    C     0.24533   0.18509   0.43231   0.00000  Uiso   1.00
C26    C     0.21001   0.19763   0.40946   0.00000  Uiso   1.00
C27    C     0.17026   0.17267   0.06861   0.00000  Uiso   1.00
C28    C     0.25488   0.15939   0.06241   0.00000  Uiso   1.00
Cl29   Cl    0.30333   0.22411   0.17165   0.00000  Uiso   1.00
Cu30   Cu    0.11978   0.16666   0.25000   0.00000  Uiso   1.00
Cu31   Cu    0.21355   0.16667   0.25000   0.00000  Uiso   1.00
H32    H     0.28322   0.15251   0.08033   0.00000  Uiso   1.00
H33    H     0.13327   0.17593   0.09293   0.00000  Uiso   1.00
H34    H     0.04857   0.18341   0.41315   0.00000  Uiso   1.00
H35    H     0.08048   0.18761   0.05681   0.00000  Uiso   1.00
H36    H     0.02363   0.19456   0.00821   0.00000  Uiso   1.00
H37    H     0.24260   0.29632   0.24880   0.00000  Uiso   1.00
H38    H     0.29961   0.23366   0.32946   0.00000  Uiso   1.00
H39    H     0.24237   0.03756   0.24938   0.00000  Uiso   1.00
H40    H     0.09111   0.03701   0.24978   0.00000  Uiso   1.00
H41    H     0.09133   0.29575   0.24928   0.00000  Uiso   1.00
H42    H     0.06097   0.21033   0.18932   0.00000  Uiso   1.00
H43    H     0.02627   0.12296   0.31104   0.00000  Uiso   1.00
H44    H     0.27295   0.12285   0.31090   0.00000  Uiso   1.00
H45    H     0.28364   0.19017   0.41200   0.00000  Uiso   1.00
H46    H     0.30379   0.15662   0.48469   0.00000  Uiso   1.00
N47    N     0.04931   0.16666   0.24999   0.00000  Uiso   1.00
N48    N     0.28402   0.16669   0.25000   0.00000  Uiso   1.00
O49    O     0.12708   0.22678   0.25001   0.00000  Uiso   1.00
O50    O     0.23829   0.27601   0.40336   0.00000  Uiso   1.00
O51    O     0.27016   0.23548   0.31742   0.00000  Uiso   1.00
O52    O     0.20627   0.22679   0.25001   0.00000  Uiso   1.00
O53    O     0.10775   0.16665   0.32549   0.00000  Uiso   1.00
O54    O     0.18694   0.16666   0.32549   0.00000  Uiso   1.00
O55    O     0.12706   0.10654   0.25000   0.00000  Uiso   1.00
O56    O     0.20625   0.10655   0.25000   0.00000  Uiso   1.00
O57    O     0.14640   0.16667   0.17451   0.00000  Uiso   1.00
O58    O     0.22559   0.16668   0.17451   0.00000  Uiso   1.00
O59    O     0.17963   0.25783   0.35728   0.00000  Uiso   1.00
S60    S     0.22360   0.24305   0.37154   0.00000  Uiso   1.00
C61    C     0.50023   0.24594   0.24935   0.00000  Uiso   1.00
C62    C     0.45929   0.18148   0.40602   0.00000  Uiso   1.00
C63    C     0.54273   0.31220   0.24893   0.00000  Uiso   1.00
C64    C     0.47418   0.17134   0.34963   0.00000  Uiso   1.00
C65    C     0.54257   0.02144   0.24931   0.00000  Uiso   1.00
C66    C     0.50003   0.04275   0.24965   0.00000  Uiso   1.00
C67    C     0.45768   0.02112   0.24955   0.00000  Uiso   1.00
C68    C     0.45783   0.31188   0.24924   0.00000  Uiso   1.00
C69    C     0.50033   0.29057   0.24902   0.00000  Uiso   1.00
C70    C     0.65189   0.19098   0.21597   0.00000  Uiso   1.00
C71    C     0.36787   0.19084   0.21618   0.00000  Uiso   1.00
C72    C     0.47886   0.18306   0.48873   0.00000  Uiso   1.00
C73    C     0.34862   0.14241   0.28385   0.00000  Uiso   1.00
C74    C     0.63244   0.14232   0.28375   0.00000  Uiso   1.00
C75    C     0.49995   0.08739   0.24996   0.00000  Uiso   1.00
C76    C     0.52594   0.16593   0.14996   0.00000  Uiso   1.00
C77    C     0.60014   0.16231   0.00831   0.00000  Uiso   1.00
C78    C     0.54001   0.16595   0.09285   0.00000  Uiso   1.00
C79    C     0.40948   0.18451   0.43336   0.00000  Uiso   1.00
C80    C     0.39479   0.18949   0.48721   0.00000  Uiso   1.00
C81    C     0.42848   0.18641   0.01504   0.00000  Uiso   1.00
C82    C     0.49409   0.18696   0.43385   0.00000  Uiso   1.00
C83    C     0.51499   0.17647   0.01446   0.00000  Uiso   1.00
C84    C     0.56463   0.17327   0.48453   0.00000  Uiso   1.00
C85    C     0.57867   0.18509   0.43231   0.00000  Uiso   1.00
C86    C     0.54335   0.19763   0.40946   0.00000  Uiso   1.00
C87    C     0.50360   0.17267   0.06861   0.00000  Uiso   1.00
C88    C     0.58821   0.15939   0.06241   0.00000  Uiso   1.00
Cl89   Cl    0.63666   0.22411   0.17165   0.00000  Uiso   1.00
Cu90   Cu    0.45311   0.16666   0.25000   0.00000  Uiso   1.00
Cu91   Cu    0.54689   0.16667   0.25000   0.00000  Uiso   1.00
H92    H     0.61655   0.15251   0.08033   0.00000  Uiso   1.00
H93    H     0.46661   0.17593   0.09293   0.00000  Uiso   1.00
H94    H     0.38191   0.18341   0.41315   0.00000  Uiso   1.00
H95    H     0.41381   0.18761   0.05681   0.00000  Uiso   1.00
H96    H     0.35696   0.19456   0.00821   0.00000  Uiso   1.00
H97    H     0.57594   0.29632   0.24880   0.00000  Uiso   1.00
H98    H     0.63294   0.23366   0.32946   0.00000  Uiso   1.00
H99    H     0.57571   0.03756   0.24938   0.00000  Uiso   1.00
H100   H     0.42445   0.03701   0.24978   0.00000  Uiso   1.00
H101   H     0.42466   0.29575   0.24928   0.00000  Uiso   1.00
H102   H     0.39430   0.21033   0.18932   0.00000  Uiso   1.00
H103   H     0.35961   0.12296   0.31104   0.00000  Uiso   1.00
H104   H     0.60628   0.12285   0.31090   0.00000  Uiso   1.00
H105   H     0.61697   0.19017   0.41200   0.00000  Uiso   1.00
H106   H     0.63712   0.15662   0.48469   0.00000  Uiso   1.00
N107   N     0.38265   0.16666   0.24999   0.00000  Uiso   1.00
N108   N     0.61735   0.16669   0.25000   0.00000  Uiso   1.00
O109   O     0.46042   0.22678   0.25001   0.00000  Uiso   1.00
O110   O     0.57162   0.27601   0.40336   0.00000  Uiso   1.00
O111   O     0.60350   0.23548   0.31742   0.00000  Uiso   1.00
O112   O     0.53961   0.22679   0.25001   0.00000  Uiso   1.00
O113   O     0.44108   0.16665   0.32549   0.00000  Uiso   1.00
O114   O     0.52027   0.16666   0.32549   0.00000  Uiso   1.00
O115   O     0.46039   0.10654   0.25000   0.00000  Uiso   1.00
O116   O     0.53958   0.10655   0.25000   0.00000  Uiso   1.00
O117   O     0.47973   0.16667   0.17451   0.00000  Uiso   1.00
O118   O     0.55892   0.16668   0.17451   0.00000  Uiso   1.00
O119   O     0.51296   0.25783   0.35728   0.00000  Uiso   1.00
S120   S     0.55694   0.24305   0.37154   0.00000  Uiso   1.00
C121   C     0.83356   0.24594   0.24935   0.00000  Uiso   1.00
C122   C     0.79263   0.18148   0.40602   0.00000  Uiso   1.00
C123   C     0.87606   0.31220   0.24893   0.00000  Uiso   1.00
C124   C     0.80752   0.17134   0.34963   0.00000  Uiso   1.00
C125   C     0.87590   0.02144   0.24931   0.00000  Uiso   1.00
C126   C     0.83337   0.04275   0.24965   0.00000  Uiso   1.00
C127   C     0.79101   0.02112   0.24955   0.00000  Uiso   1.00
C128   C     0.79116   0.31188   0.24924   0.00000  Uiso   1.00
C129   C     0.83366   0.29057   0.24902   0.00000  Uiso   1.00
C130   C     0.98522   0.19098   0.21597   0.00000  Uiso   1.00
C131   C     0.70120   0.19084   0.21618   0.00000  Uiso   1.00
C132   C     0.81220   0.18306   0.48873   0.00000  Uiso   1.00
C133   C     0.68195   0.14241   0.28385   0.00000  Uiso   1.00
C134   C     0.96578   0.14232   0.28375   0.00000  Uiso   1.00
C135   C     0.83328   0.08739   0.24996   0.00000  Uiso   1.00
C136   C     0.85928   0.16593   0.14996   0.00000  Uiso   1.00
C137   C     0.93347   0.16231   0.00831   0.00000  Uiso   1.00
C138   C     0.87334   0.16595   0.09285   0.00000  Uiso   1.00
C139   C     0.74282   0.18451   0.43336   0.00000  Uiso   1.00
C140   C     0.72812   0.18949   0.48721   0.00000  Uiso   1.00
C141   C     0.76181   0.18641   0.01504   0.00000  Uiso   1.00
C142   C     0.82742   0.18696   0.43385   0.00000  Uiso   1.00
C143   C     0.84833   0.17647   0.01446   0.00000  Uiso   1.00
C144   C     0.89796   0.17327   0.48453   0.00000  Uiso   1.00
C145   C     0.91200   0.18509   0.43231   0.00000  Uiso   1.00
C146   C     0.87668   0.19763   0.40946   0.00000  Uiso   1.00
C147   C     0.83693   0.17267   0.06861   0.00000  Uiso   1.00
C148   C     0.92155   0.15939   0.06241   0.00000  Uiso   1.00
Cl149  Cl    0.96999   0.22411   0.17165   0.00000  Uiso   1.00
Cu150  Cu    0.78645   0.16666   0.25000   0.00000  Uiso   1.00
Cu151  Cu    0.88022   0.16667   0.25000   0.00000  Uiso   1.00
H152   H     0.94988   0.15251   0.08033   0.00000  Uiso   1.00
H153   H     0.79994   0.17593   0.09293   0.00000  Uiso   1.00
H154   H     0.71524   0.18341   0.41315   0.00000  Uiso   1.00
H155   H     0.74714   0.18761   0.05681   0.00000  Uiso   1.00
H156   H     0.69030   0.19456   0.00821   0.00000  Uiso   1.00
H157   H     0.90927   0.29632   0.24880   0.00000  Uiso   1.00
H158   H     0.96628   0.23366   0.32946   0.00000  Uiso   1.00
H159   H     0.90904   0.03756   0.24938   0.00000  Uiso   1.00
H160   H     0.75778   0.03701   0.24978   0.00000  Uiso   1.00
H161   H     0.75799   0.29575   0.24928   0.00000  Uiso   1.00
H162   H     0.72763   0.21033   0.18932   0.00000  Uiso   1.00
H163   H     0.69294   0.12296   0.31104   0.00000  Uiso   1.00
H164   H     0.93962   0.12285   0.31090   0.00000  Uiso   1.00
H165   H     0.95031   0.19017   0.41200   0.00000  Uiso   1.00
H166   H     0.97045   0.15662   0.48469   0.00000  Uiso   1.00
N167   N     0.71598   0.16666   0.24999   0.00000  Uiso   1.00
N168   N     0.95069   0.16669   0.25000   0.00000  Uiso   1.00
O169   O     0.79375   0.22678   0.25001   0.00000  Uiso   1.00
O170   O     0.90496   0.27601   0.40336   0.00000  Uiso   1.00
O171   O     0.93683   0.23548   0.31742   0.00000  Uiso   1.00
O172   O     0.87294   0.22679   0.25001   0.00000  Uiso   1.00
O173   O     0.77441   0.16665   0.32549   0.00000  Uiso   1.00
O174   O     0.85360   0.16666   0.32549   0.00000  Uiso   1.00
O175   O     0.79373   0.10654   0.25000   0.00000  Uiso   1.00
O176   O     0.87292   0.10655   0.25000   0.00000  Uiso   1.00
O177   O     0.81306   0.16667   0.17451   0.00000  Uiso   1.00
O178   O     0.89225   0.16668   0.17451   0.00000  Uiso   1.00
O179   O     0.84629   0.25783   0.35728   0.00000  Uiso   1.00
S180   S     0.89027   0.24305   0.37154   0.00000  Uiso   1.00
C181   C     0.16690   0.57927   0.24935   0.00000  Uiso   1.00
C182   C     0.12596   0.51481   0.40602   0.00000  Uiso   1.00
C183   C     0.20940   0.64553   0.24893   0.00000  Uiso   1.00
C184   C     0.14085   0.50468   0.34963   0.00000  Uiso   1.00
C185   C     0.20923   0.35477   0.24931   0.00000  Uiso   1.00
C186   C     0.16670   0.37608   0.24965   0.00000  Uiso   1.00
C187   C     0.12435   0.35446   0.24955   0.00000  Uiso   1.00
C188   C     0.12449   0.64521   0.24924   0.00000  Uiso   1.00
C189   C     0.16699   0.62391   0.24902   0.00000  Uiso   1.00
C190   C     0.31856   0.52431   0.21597   0.00000  Uiso   1.00
C191   C     0.03453   0.52417   0.21618   0.00000  Uiso   1.00
C192   C     0.14553   0.51639   0.48873   0.00000  Uiso   1.00
C193   C     0.01528   0.47574   0.28385   0.00000  Uiso   1.00
C194   C     0.29911   0.47566   0.28375   0.00000  Uiso   1.00
C195   C     0.16662   0.42072   0.24996   0.00000  Uiso   1.00
C196   C     0.19261   0.49926   0.14996   0.00000  Uiso   1.00
C197   C     0.26680   0.49564   0.00831   0.00000  Uiso   1.00
C198   C     0.20668   0.49928   0.09285   0.00000  Uiso   1.00
C199   C     0.07615   0.51784   0.43336   0.00000  Uiso   1.00
C200   C     0.06146   0.52283   0.48721   0.00000  Uiso   1.00
C201   C     0.09515   0.51974   0.01504   0.00000  Uiso   1.00
C202   C     0.16076   0.52029   0.43385   0.00000  Uiso   1.00
C203   C     0.18166   0.50981   0.01446   0.00000  Uiso   1.00
C204   C     0.23129   0.50660   0.48453   0.00000  Uiso   1.00
C205   C     0.24533   0.51842   0.43231   0.00000  Uiso   1.00
C206   C     0.21001   0.53096   0.40946   0.00000  Uiso   1.00
C207   C     0.17026   0.50601   0.06861   0.00000  Uiso   1.00
C208   C     0.25488   0.49273   0.06241   0.00000  Uiso   1.00
Cl209  Cl    0.30333   0.55745   0.17165   0.00000  Uiso   1.00
Cu210  Cu    0.11978   0.49999   0.25000   0.00000  Uiso   1.00
Cu211  Cu    0.21355   0.50001   0.25000   0.00000  Uiso   1.00
H212   H     0.28322   0.48584   0.08033   0.00000  Uiso   1.00
H213   H     0.13327   0.50926   0.09293   0.00000  Uiso   1.00
H214   H     0.04857   0.51674   0.41315   0.00000  Uiso   1.00
H215   H     0.08048   0.52095   0.05681   0.00000  Uiso   1.00
H216   H     0.02363   0.52789   0.00821   0.00000  Uiso   1.00
H217   H     0.24260   0.62966   0.24880   0.00000  Uiso   1.00
H218   H     0.29961   0.56699   0.32946   0.00000  Uiso   1.00
H219   H     0.24237   0.37089   0.24938   0.00000  Uiso   1.00
H220   H     0.09111   0.37034   0.24978   0.00000  Uiso   1.00
H221   H     0.09133   0.62908   0.24928   0.00000  Uiso   1.00
H222   H     0.06097   0.54366   0.18932   0.00000  Uiso   1.00
H223   H     0.02627   0.45629   0.31104   0.00000  Uiso   1.00
H224   H     0.27295   0.45618   0.31090   0.00000  Uiso   1.00
H225   H     0.28364   0.52350   0.41200   0.00000  Uiso   1.00
H226   H     0.30379   0.48996   0.48469   0.00000  Uiso   1.00
N227   N     0.04931   0.49999   0.24999   0.00000  Uiso   1.00
N228   N     0.28402   0.50002   0.25000   0.00000  Uiso   1.00
O229   O     0.12708   0.56011   0.25001   0.00000  Uiso   1.00
O230   O     0.23829   0.60934   0.40336   0.00000  Uiso   1.00
O231   O     0.27016   0.56881   0.31742   0.00000  Uiso   1.00
O232   O     0.20627   0.56012   0.25001   0.00000  Uiso   1.00
O233   O     0.10775   0.49998   0.32549   0.00000  Uiso   1.00
O234   O     0.18694   0.49999   0.32549   0.00000  Uiso   1.00
O235   O     0.12706   0.43988   0.25000   0.00000  Uiso   1.00
O236   O     0.20625   0.43989   0.25000   0.00000  Uiso   1.00
O237   O     0.14640   0.50001   0.17451   0.00000  Uiso   1.00
O238   O     0.22559   0.50002   0.17451   0.00000  Uiso   1.00
O239   O     0.17963   0.59116   0.35728   0.00000  Uiso   1.00
S240   S     0.22360   0.57639   0.37154   0.00000  Uiso   1.00
C241   C     0.50023   0.57927   0.24935   0.00000  Uiso   1.00
C242   C     0.45929   0.51481   0.40602   0.00000  Uiso   1.00
C243   C     0.54273   0.64553   0.24893   0.00000  Uiso   1.00
C244   C     0.47418   0.50468   0.34963   0.00000  Uiso   1.00
C245   C     0.54257   0.35477   0.24931   0.00000  Uiso   1.00
C246   C     0.50003   0.37608   0.24965   0.00000  Uiso   1.00
C247   C     0.45768   0.35446   0.24955   0.00000  Uiso   1.00
C248   C     0.45783   0.64521   0.24924   0.00000  Uiso   1.00
C249   C     0.50033   0.62391   0.24902   0.00000  Uiso   1.00
C250   C     0.65189   0.52431   0.21597   0.00000  Uiso   1.00
C251   C     0.36787   0.52417   0.21618   0.00000  Uiso   1.00
C252   C     0.47886   0.51639   0.48873   0.00000  Uiso   1.00
C253   C     0.34862   0.47574   0.28385   0.00000  Uiso   1.00
C254   C     0.63244   0.47566   0.28375   0.00000  Uiso   1.00
C255   C     0.49995   0.42072   0.24996   0.00000  Uiso   1.00
C256   C     0.52594   0.49926   0.14996   0.00000  Uiso   1.00
C257   C     0.60014   0.49564   0.00831   0.00000  Uiso   1.00
C258   C     0.54001   0.49928   0.09285   0.00000  Uiso   1.00
C259   C     0.40948   0.51784   0.43336   0.00000  Uiso   1.00
C260   C     0.39479   0.52283   0.48721   0.00000  Uiso   1.00
C261   C     0.42848   0.51974   0.01504   0.00000  Uiso   1.00
C262   C     0.49409   0.52029   0.43385   0.00000  Uiso   1.00
C263   C     0.51499   0.50981   0.01446   0.00000  Uiso   1.00
C264   C     0.56463   0.50660   0.48453   0.00000  Uiso   1.00
C265   C     0.57867   0.51842   0.43231   0.00000  Uiso   1.00
C266   C     0.54335   0.53096   0.40946   0.00000  Uiso   1.00
C267   C     0.50360   0.50601   0.06861   0.00000  Uiso   1.00
C268   C     0.58821   0.49273   0.06241   0.00000  Uiso   1.00
Cl269  Cl    0.63666   0.55745   0.17165   0.00000  Uiso   1.00
Cu270  Cu    0.45311   0.49999   0.25000   0.00000  Uiso   1.00
Cu271  Cu    0.54689   0.50001   0.25000   0.00000  Uiso   1.00
H272   H     0.61655   0.48584   0.08033   0.00000  Uiso   1.00
H273   H     0.46661   0.50926   0.09293   0.00000  Uiso   1.00
H274   H     0.38191   0.51674   0.41315   0.00000  Uiso   1.00
H275   H     0.41381   0.52095   0.05681   0.00000  Uiso   1.00
H276   H     0.35696   0.52789   0.00821   0.00000  Uiso   1.00
H277   H     0.57594   0.62966   0.24880   0.00000  Uiso   1.00
H278   H     0.63294   0.56699   0.32946   0.00000  Uiso   1.00
H279   H     0.57571   0.37089   0.24938   0.00000  Uiso   1.00
H280   H     0.42445   0.37034   0.24978   0.00000  Uiso   1.00
H281   H     0.42466   0.62908   0.24928   0.00000  Uiso   1.00
H282   H     0.39430   0.54366   0.18932   0.00000  Uiso   1.00
H283   H     0.35961   0.45629   0.31104   0.00000  Uiso   1.00
H284   H     0.60628   0.45618   0.31090   0.00000  Uiso   1.00
H285   H     0.61697   0.52350   0.41200   0.00000  Uiso   1.00
H286   H     0.63712   0.48996   0.48469   0.00000  Uiso   1.00
N287   N     0.38265   0.49999   0.24999   0.00000  Uiso   1.00
N288   N     0.61735   0.50002   0.25000   0.00000  Uiso   1.00
O289   O     0.46042   0.56011   0.25001   0.00000  Uiso   1.00
O290   O     0.57162   0.60934   0.40336   0.00000  Uiso   1.00
O291   O     0.60350   0.56881   0.31742   0.00000  Uiso   1.00
O292   O     0.53961   0.56012   0.25001   0.00000  Uiso   1.00
O293   O     0.44108   0.49998   0.32549   0.00000  Uiso   1.00
O294   O     0.52027   0.49999   0.32549   0.00000  Uiso   1.00
O295   O     0.46039   0.43988   0.25000   0.00000  Uiso   1.00
O296   O     0.53958   0.43989   0.25000   0.00000  Uiso   1.00
O297   O     0.47973   0.50001   0.17451   0.00000  Uiso   1.00
O298   O     0.55892   0.50002   0.17451   0.00000  Uiso   1.00
O299   O     0.51296   0.59116   0.35728   0.00000  Uiso   1.00
S300   S     0.55694   0.57639   0.37154   0.00000  Uiso   1.00
C301   C     0.83356   0.57927   0.24935   0.00000  Uiso   1.00
C302   C     0.79263   0.51481   0.40602   0.00000  Uiso   1.00
C303   C     0.87606   0.64553   0.24893   0.00000  Uiso   1.00
C304   C     0.80752   0.50468   0.34963   0.00000  Uiso   1.00
C305   C     0.87590   0.35477   0.24931   0.00000  Uiso   1.00
C306   C     0.83337   0.37608   0.24965   0.00000  Uiso   1.00
C307   C     0.79101   0.35446   0.24955   0.00000  Uiso   1.00
C308   C     0.79116   0.64521   0.24924   0.00000  Uiso   1.00
C309   C     0.83366   0.62391   0.24902   0.00000  Uiso   1.00
C310   C     0.98522   0.52431   0.21597   0.00000  Uiso   1.00
C311   C     0.70120   0.52417   0.21618   0.00000  Uiso   1.00
C312   C     0.81220   0.51639   0.48873   0.00000  Uiso   1.00
C313   C     0.68195   0.47574   0.28385   0.00000  Uiso   1.00
C314   C     0.96578   0.47566   0.28375   0.00000  Uiso   1.00
C315   C     0.83328   0.42072   0.24996   0.00000  Uiso   1.00
C316   C     0.85928   0.49926   0.14996   0.00000  Uiso   1.00
C317   C     0.93347   0.49564   0.00831   0.00000  Uiso   1.00
C318   C     0.87334   0.49928   0.09285   0.00000  Uiso   1.00
C319   C     0.74282   0.51784   0.43336   0.00000  Uiso   1.00
C320   C     0.72812   0.52283   0.48721   0.00000  Uiso   1.00
C321   C     0.76181   0.51974   0.01504   0.00000  Uiso   1.00
C322   C     0.82742   0.52029   0.43385   0.00000  Uiso   1.00
C323   C     0.84833   0.50981   0.01446   0.00000  Uiso   1.00
C324   C     0.89796   0.50660   0.48453   0.00000  Uiso   1.00
C325   C     0.91200   0.51842   0.43231   0.00000  Uiso   1.00
C326   C     0.87668   0.53096   0.40946   0.00000  Uiso   1.00
C327   C     0.83693   0.50601   0.06861   0.00000  Uiso   1.00
C328   C     0.92155   0.49273   0.06241   0.00000  Uiso   1.00
Cl329  Cl    0.96999   0.55745   0.17165   0.00000  Uiso   1.00
Cu330  Cu    0.78645   0.49999   0.25000   0.00000  Uiso   1.00
Cu331  Cu    0.88022   0.50001   0.25000   0.00000  Uiso   1.00
H332   H     0.94988   0.48584   0.08033   0.00000  Uiso   1.00
H333   H     0.79994   0.50926   0.09293   0.00000  Uiso   1.00
H334   H     0.71524   0.51674   0.41315   0.00000  Uiso   1.00
H335   H     0.74714   0.52095   0.05681   0.00000  Uiso   1.00
H336   H     0.69030   0.52789   0.00821   0.00000  Uiso   1.00
H337   H     0.90927   0.62966   0.24880   0.00000  Uiso   1.00
H338   H     0.96628   0.56699   0.32946   0.00000  Uiso   1.00
H339   H     0.90904   0.37089   0.24938   0.00000  Uiso   1.00
H340   H     0.75778   0.37034   0.24978   0.00000  Uiso   1.00
H341   H     0.75799   0.62908   0.24928   0.00000  Uiso   1.00
H342   H     0.72763   0.54366   0.18932   0.00000  Uiso   1.00
H343   H     0.69294   0.45629   0.31104   0.00000  Uiso   1.00
H344   H     0.93962   0.45618   0.31090   0.00000  Uiso   1.00
H345   H     0.95031   0.52350   0.41200   0.00000  Uiso   1.00
H346   H     0.97045   0.48996   0.48469   0.00000  Uiso   1.00
N347   N     0.71598   0.49999   0.24999   0.00000  Uiso   1.00
N348   N     0.95069   0.50002   0.25000   0.00000  Uiso   1.00
O349   O     0.79375   0.56011   0.25001   0.00000  Uiso   1.00
O350   O     0.90496   0.60934   0.40336   0.00000  Uiso   1.00
O351   O     0.93683   0.56881   0.31742   0.00000  Uiso   1.00
O352   O     0.87294   0.56012   0.25001   0.00000  Uiso   1.00
O353   O     0.77441   0.49998   0.32549   0.00000  Uiso   1.00
O354   O     0.85360   0.49999   0.32549   0.00000  Uiso   1.00
O355   O     0.79373   0.43988   0.25000   0.00000  Uiso   1.00
O356   O     0.87292   0.43989   0.25000   0.00000  Uiso   1.00
O357   O     0.81306   0.50001   0.17451   0.00000  Uiso   1.00
O358   O     0.89225   0.50002   0.17451   0.00000  Uiso   1.00
O359   O     0.84629   0.59116   0.35728   0.00000  Uiso   1.00
S360   S     0.89027   0.57639   0.37154   0.00000  Uiso   1.00
C361   C     0.16690   0.91260   0.24935   0.00000  Uiso   1.00
C362   C     0.12596   0.84814   0.40602   0.00000  Uiso   1.00
C363   C     0.20940   0.97886   0.24893   0.00000  Uiso   1.00
C364   C     0.14085   0.83801   0.34963   0.00000  Uiso   1.00
C365   C     0.20923   0.68810   0.24931   0.00000  Uiso   1.00
C366   C     0.16670   0.70942   0.24965   0.00000  Uiso   1.00
C367   C     0.12435   0.68779   0.24955   0.00000  Uiso   1.00
C368   C     0.12449   0.97854   0.24924   0.00000  Uiso   1.00
C369   C     0.16699   0.95724   0.24902   0.00000  Uiso   1.00
C370   C     0.31856   0.85765   0.21597   0.00000  Uiso   1.00
C371   C     0.03453   0.85751   0.21618   0.00000  Uiso   1.00
C372   C     0.14553   0.84972   0.48873   0.00000  Uiso   1.00
C373   C     0.01528   0.80908   0.28385   0.00000  Uiso   1.00
C374   C     0.29911   0.80899   0.28375   0.00000  Uiso   1.00
C375   C     0.16662   0.75406   0.24996   0.00000  Uiso   1.00
C376   C     0.19261   0.83259   0.14996   0.00000  Uiso   1.00
C377   C     0.26680   0.82897   0.00831   0.00000  Uiso   1.00
C378   C     0.20668   0.83262   0.09285   0.00000  Uiso   1.00
C379   C     0.07615   0.85118   0.43336   0.00000  Uiso   1.00
C380   C     0.06146   0.85616   0.48721   0.00000  Uiso   1.00
C381   C     0.09515   0.85307   0.01504   0.00000  Uiso   1.00
C382   C     0.16076   0.85362   0.43385   0.00000  Uiso   1.00
C383   C     0.18166   0.84314   0.01446   0.00000  Uiso   1.00
C384   C     0.23129   0.83993   0.48453   0.00000  Uiso   1.00
C385   C     0.24533   0.85176   0.43231   0.00000  Uiso   1.00
C386   C     0.21001   0.86429   0.40946   0.00000  Uiso   1.00
C387   C     0.17026   0.83934   0.06861   0.00000  Uiso   1.00
C388   C     0.25488   0.82606   0.06241   0.00000  Uiso   1.00
Cl389  Cl    0.30333   0.89078   0.17165   0.00000  Uiso   1.00
Cu390  Cu    0.11978   0.83333   0.25000   0.00000  Uiso   1.00
Cu391  Cu    0.21355   0.83334   0.25000   0.00000  Uiso   1.00
H392   H     0.28322   0.81917   0.08033   0.00000  Uiso   1.00
H393   H     0.13327   0.84259   0.09293   0.00000  Uiso   1.00
H394   H     0.04857   0.85008   0.41315   0.00000  Uiso   1.00
H395   H     0.08048   0.85428   0.05681   0.00000  Uiso   1.00
H396   H     0.02363   0.86123   0.00821   0.00000  Uiso   1.00
H397   H     0.24260   0.96299   0.24880   0.00000  Uiso   1.00
H398   H     0.29961   0.90033   0.32946   0.00000  Uiso   1.00
H399   H     0.24237   0.70423   0.24938   0.00000  Uiso   1.00
H400   H     0.09111   0.70367   0.24978   0.00000  Uiso   1.00
H401   H     0.09133   0.96241   0.24928   0.00000  Uiso   1.00
H402   H     0.06097   0.87700   0.18932   0.00000  Uiso   1.00
H403   H     0.02627   0.78963   0.31104   0.00000  Uiso   1.00
H404   H     0.27295   0.78952   0.31090   0.00000  Uiso   1.00
H405   H     0.28364   0.85683   0.41200   0.00000  Uiso   1.00
H406   H     0.30379   0.82329   0.48469   0.00000  Uiso   1.00
N407   N     0.04931   0.83332   0.24999   0.00000  Uiso   1.00
N408   N     0.28402   0.83335   0.25000   0.00000  Uiso   1.00
O409   O     0.12708   0.89345   0.25001   0.00000  Uiso   1.00
O410   O     0.23829   0.94268   0.40336   0.00000  Uiso   1.00
O411   O     0.27016   0.90215   0.31742   0.00000  Uiso   1.00
O412   O     0.20627   0.89346   0.25001   0.00000  Uiso   1.00
O413   O     0.10775   0.83332   0.32549   0.00000  Uiso   1.00
O414   O     0.18694   0.83333   0.32549   0.00000  Uiso   1.00
O415   O     0.12706   0.77321   0.25000   0.00000  Uiso   1.00
O416   O     0.20625   0.77322   0.25000   0.00000  Uiso   1.00
O417   O     0.14640   0.83334   0.17451   0.00000  Uiso   1.00
O418   O     0.22559   0.83335   0.17451   0.00000  Uiso   1.00
O419   O     0.17963   0.92450   0.35728   0.00000  Uiso   1.00
S420   S     0.22360   0.90972   0.37154   0.00000  Uiso   1.00
C421   C     0.50023   0.91260   0.24935   0.00000  Uiso   1.00
C422   C     0.45929   0.84814   0.40602   0.00000  Uiso   1.00
C423   C     0.54273   0.97886   0.24893   0.00000  Uiso   1.00
C424   C     0.47418   0.83801   0.34963   0.00000  Uiso   1.00
C425   C     0.54257   0.68810   0.24931   0.00000  Uiso   1.00
C426   C     0.50003   0.70942   0.24965   0.00000  Uiso   1.00
C427   C     0.45768   0.68779   0.24955   0.00000  Uiso   1.00
C428   C     0.45783   0.97854   0.24924   0.00000  Uiso   1.00
C429   C     0.50033   0.95724   0.24902   0.00000  Uiso   1.00
C430   C     0.65189   0.85765   0.21597   0.00000  Uiso   1.00
C431   C     0.36787   0.85751   0.21618   0.00000  Uiso   1.00
C432   C     0.47886   0.84972   0.48873   0.00000  Uiso   1.00
C433   C     0.34862   0.80908   0.28385   0.00000  Uiso   1.00
C434   C     0.63244   0.80899   0.28375   0.00000  Uiso   1.00
C435   C     0.49995   0.75406   0.24996   0.00000  Uiso   1.00
C436   C     0.52594   0.83259   0.14996   0.00000  Uiso   1.00
C437   C     0.60014   0.82897   0.00831   0.00000  Uiso   1.00
C438   C     0.54001   0.83262   0.09285   0.00000  Uiso   1.00
C439   C     0.40948   0.85118   0.43336   0.00000  Uiso   1.00
C440   C     0.39479   0.85616   0.48721   0.00000  Uiso   1.00
C441   C     0.42848   0.85307   0.01504   0.00000  Uiso   1.00
C442   C     0.49409   0.85362   0.43385   0.00000  Uiso   1.00
C443   C     0.51499   0.84314   0.01446   0.00000  Uiso   1.00
C444   C     0.56463   0.83993   0.48453   0.00000  Uiso   1.00
C445   C     0.57867   0.85176   0.43231   0.00000  Uiso   1.00
C446   C     0.54335   0.86429   0.40946   0.00000  Uiso   1.00
C447   C     0.50360   0.83934   0.06861   0.00000  Uiso   1.00
C448   C     0.58821   0.82606   0.06241   0.00000  Uiso   1.00
Cl449  Cl    0.63666   0.89078   0.17165   0.00000  Uiso   1.00
Cu450  Cu    0.45311   0.83333   0.25000   0.00000  Uiso   1.00
Cu451  Cu    0.54689   0.83334   0.25000   0.00000  Uiso   1.00
H452   H     0.61655   0.81917   0.08033   0.00000  Uiso   1.00
H453   H     0.46661   0.84259   0.09293   0.00000  Uiso   1.00
H454   H     0.38191   0.85008   0.41315   0.00000  Uiso   1.00
H455   H     0.41381   0.85428   0.05681   0.00000  Uiso   1.00
H456   H     0.35696   0.86123   0.00821   0.00000  Uiso   1.00
H457   H     0.57594   0.96299   0.24880   0.00000  Uiso   1.00
H458   H     0.63294   0.90033   0.32946   0.00000  Uiso   1.00
H459   H     0.57571   0.70423   0.24938   0.00000  Uiso   1.00
H460   H     0.42445   0.70367   0.24978   0.00000  Uiso   1.00
H461   H     0.42466   0.96241   0.24928   0.00000  Uiso   1.00
H462   H     0.39430   0.87700   0.18932   0.00000  Uiso   1.00
H463   H     0.35961   0.78963   0.31104   0.00000  Uiso   1.00
H464   H     0.60628   0.78952   0.31090   0.00000  Uiso   1.00
H465   H     0.61697   0.85683   0.41200   0.00000  Uiso   1.00
H466   H     0.63712   0.82329   0.48469   0.00000  Uiso   1.00
N467   N     0.38265   0.83332   0.24999   0.00000  Uiso   1.00
N468   N     0.61735   0.83335   0.25000   0.00000  Uiso   1.00
O469   O     0.46042   0.89345   0.25001   0.00000  Uiso   1.00
O470   O     0.57162   0.94268   0.40336   0.00000  Uiso   1.00
O471   O     0.60350   0.90215   0.31742   0.00000  Uiso   1.00
O472   O     0.53961   0.89346   0.25001   0.00000  Uiso   1.00
O473   O     0.44108   0.83332   0.32549   0.00000  Uiso   1.00
O474   O     0.52027   0.83333   0.32549   0.00000  Uiso   1.00
O475   O     0.46039   0.77321   0.25000   0.00000  Uiso   1.00
O476   O     0.53958   0.77322   0.25000   0.00000  Uiso   1.00
O477   O     0.47973   0.83334   0.17451   0.00000  Uiso   1.00
O478   O     0.55892   0.83335   0.17451   0.00000  Uiso   1.00
O479   O     0.51296   0.92450   0.35728   0.00000  Uiso   1.00
S480   S     0.55694   0.90972   0.37154   0.00000  Uiso   1.00
C481   C     0.83356   0.91260   0.24935   0.00000  Uiso   1.00
C482   C     0.79263   0.84814   0.40602   0.00000  Uiso   1.00
C483   C     0.87606   0.97886   0.24893   0.00000  Uiso   1.00
C484   C     0.80752   0.83801   0.34963   0.00000  Uiso   1.00
C485   C     0.87590   0.68810   0.24931   0.00000  Uiso   1.00
C486   C     0.83337   0.70942   0.24965   0.00000  Uiso   1.00
C487   C     0.79101   0.68779   0.24955   0.00000  Uiso   1.00
C488   C     0.79116   0.97854   0.24924   0.00000  Uiso   1.00
C489   C     0.83366   0.95724   0.24902   0.00000  Uiso   1.00
C490   C     0.98522   0.85765   0.21597   0.00000  Uiso   1.00
C491   C     0.70120   0.85751   0.21618   0.00000  Uiso   1.00
C492   C     0.81220   0.84972   0.48873   0.00000  Uiso   1.00
C493   C     0.68195   0.80908   0.28385   0.00000  Uiso   1.00
C494   C     0.96578   0.80899   0.28375   0.00000  Uiso   1.00
C495   C     0.83328   0.75406   0.24996   0.00000  Uiso   1.00
C496   C     0.85928   0.83259   0.14996   0.00000  Uiso   1.00
C497   C     0.93347   0.82897   0.00831   0.00000  Uiso   1.00
C498   C     0.87334   0.83262   0.09285   0.00000  Uiso   1.00
C499   C     0.74282   0.85118   0.43336   0.00000  Uiso   1.00
C500   C     0.72812   0.85616   0.48721   0.00000  Uiso   1.00
C501   C     0.76181   0.85307   0.01504   0.00000  Uiso   1.00
C502   C     0.82742   0.85362   0.43385   0.00000  Uiso   1.00
C503   C     0.84833   0.84314   0.01446   0.00000  Uiso   1.00
C504   C     0.89796   0.83993   0.48453   0.00000  Uiso   1.00
C505   C     0.91200   0.85176   0.43231   0.00000  Uiso   1.00
C506   C     0.87668   0.86429   0.40946   0.00000  Uiso   1.00
C507   C     0.83693   0.83934   0.06861   0.00000  Uiso   1.00
C508   C     0.92155   0.82606   0.06241   0.00000  Uiso   1.00
Cl509  Cl    0.96999   0.89078   0.17165   0.00000  Uiso   1.00
Cu510  Cu    0.78645   0.83333   0.25000   0.00000  Uiso   1.00
Cu511  Cu    0.88022   0.83334   0.25000   0.00000  Uiso   1.00
H512   H     0.94988   0.81917   0.08033   0.00000  Uiso   1.00
H513   H     0.79994   0.84259   0.09293   0.00000  Uiso   1.00
H514   H     0.71524   0.85008   0.41315   0.00000  Uiso   1.00
H515   H     0.74714   0.85428   0.05681   0.00000  Uiso   1.00
H516   H     0.69030   0.86123   0.00821   0.00000  Uiso   1.00
H517   H     0.90927   0.96299   0.24880   0.00000  Uiso   1.00
H518   H     0.96628   0.90033   0.32946   0.00000  Uiso   1.00
H519   H     0.90904   0.70423   0.24938   0.00000  Uiso   1.00
H520   H     0.75778   0.70367   0.24978   0.00000  Uiso   1.00
H521   H     0.75799   0.96241   0.24928   0.00000  Uiso   1.00
H522   H     0.72763   0.87700   0.18932   0.00000  Uiso   1.00
H523   H     0.69294   0.78963   0.31104   0.00000  Uiso   1.00
H524   H     0.93962   0.78952   0.31090   0.00000  Uiso   1.00
H525   H     0.95031   0.85683   0.41200   0.00000  Uiso   1.00
H526   H     0.97045   0.82329   0.48469   0.00000  Uiso   1.00
N527   N     0.71598   0.83332   0.24999   0.00000  Uiso   1.00
N528   N     0.95069   0.83335   0.25000   0.00000  Uiso   1.00
O529   O     0.79375   0.89345   0.25001   0.00000  Uiso   1.00
O530   O     0.90496   0.94268   0.40336   0.00000  Uiso   1.00
O531   O     0.93683   0.90215   0.31742   0.00000  Uiso   1.00
O532   O     0.87294   0.89346   0.25001   0.00000  Uiso   1.00
O533   O     0.77441   0.83332   0.32549   0.00000  Uiso   1.00
O534   O     0.85360   0.83333   0.32549   0.00000  Uiso   1.00
O535   O     0.79373   0.77321   0.25000   0.00000  Uiso   1.00
O536   O     0.87292   0.77322   0.25000   0.00000  Uiso   1.00
O537   O     0.81306   0.83334   0.17451   0.00000  Uiso   1.00
O538   O     0.89225   0.83335   0.17451   0.00000  Uiso   1.00
O539   O     0.84629   0.92450   0.35728   0.00000  Uiso   1.00
S540   S     0.89027   0.90972   0.37154   0.00000  Uiso   1.00
C541   C     0.16690   0.24594   0.74935   0.00000  Uiso   1.00
C542   C     0.12596   0.18148   0.90602   0.00000  Uiso   1.00
C543   C     0.20940   0.31220   0.74893   0.00000  Uiso   1.00
C544   C     0.14085   0.17134   0.84963   0.00000  Uiso   1.00
C545   C     0.20923   0.02144   0.74931   0.00000  Uiso   1.00
C546   C     0.16670   0.04275   0.74965   0.00000  Uiso   1.00
C547   C     0.12435   0.02112   0.74955   0.00000  Uiso   1.00
C548   C     0.12449   0.31188   0.74924   0.00000  Uiso   1.00
C549   C     0.16699   0.29057   0.74902   0.00000  Uiso   1.00
C550   C     0.31856   0.19098   0.71597   0.00000  Uiso   1.00
C551   C     0.03453   0.19084   0.71618   0.00000  Uiso   1.00
C552   C     0.14553   0.18306   0.98873   0.00000  Uiso   1.00
C553   C     0.01528   0.14241   0.78385   0.00000  Uiso   1.00
C554   C     0.29911   0.14232   0.78375   0.00000  Uiso   1.00
C555   C     0.16662   0.08739   0.74996   0.00000  Uiso   1.00
C556   C     0.19261   0.16593   0.64996   0.00000  Uiso   1.00
C557   C     0.26680   0.16231   0.50831   0.00000  Uiso   1.00
C558   C     0.20668   0.16595   0.59285   0.00000  Uiso   1.00
C559   C     0.07615   0.18451   0.93336   0.00000  Uiso   1.00
C560   C     0.06146   0.18949   0.98721   0.00000  Uiso   1.00
C561   C     0.09515   0.18641   0.51504   0.00000  Uiso   1.00
C562   C     0.16076   0.18696   0.93385   0.00000  Uiso   1.00
C563   C     0.18166   0.17647   0.51446   0.00000  Uiso   1.00
C564   C     0.23129   0.17327   0.98453   0.00000  Uiso   1.00
C565   C     0.24533   0.18509   0.93231   0.00000  Uiso   1.00
C566   C     0.21001   0.19763   0.90946   0.00000  Uiso   1.00
C567   C     0.17026   0.17267   0.56861   0.00000  Uiso   1.00
C568   C     0.25488   0.15939   0.56241   0.00000  Uiso   1.00
Cl569  Cl    0.30333   0.22411   0.67165   0.00000  Uiso   1.00
Cu570  Cu    0.11978   0.16666   0.75000   0.00000  Uiso   1.00
Cu571  Cu    0.21355   0.16667   0.75000   0.00000  Uiso   1.00
H572   H     0.28322   0.15251   0.58033   0.00000  Uiso   1.00
H573   H     0.13327   0.17593   0.59293   0.00000  Uiso   1.00
H574   H     0.04857   0.18341   0.91315   0.00000  Uiso   1.00
H575   H     0.08048   0.18761   0.55681   0.00000  Uiso   1.00
H576   H     0.02363   0.19456   0.50821   0.00000  Uiso   1.00
H577   H     0.24260   0.29632   0.74880   0.00000  Uiso   1.00
H578   H     0.29961   0.23366   0.82946   0.00000  Uiso   1.00
H579   H     0.24237   0.03756   0.74938   0.00000  Uiso   1.00
H580   H     0.09111   0.03701   0.74978   0.00000  Uiso   1.00
H581   H     0.09133   0.29575   0.74928   0.00000  Uiso   1.00
H582   H     0.06097   0.21033   0.68932   0.00000  Uiso   1.00
H583   H     0.02627   0.12296   0.81104   0.00000  Uiso   1.00
H584   H     0.27295   0.12285   0.81090   0.00000  Uiso   1.00
H585   H     0.28364   0.19017   0.91200   0.00000  Uiso   1.00
H586   H     0.30379   0.15662   0.98469   0.00000  Uiso   1.00
N587   N     0.04931   0.16666   0.74999   0.00000  Uiso   1.00
N588   N     0.28402   0.16669   0.75000   0.00000  Uiso   1.00
O589   O     0.12708   0.22678   0.75001   0.00000  Uiso   1.00
O590   O     0.23829   0.27601   0.90336   0.00000  Uiso   1.00
O591   O     0.27016   0.23548   0.81742   0.00000  Uiso   1.00
O592   O     0.20627   0.22679   0.75001   0.00000  Uiso   1.00
O593   O     0.10775   0.16665   0.82549   0.00000  Uiso   1.00
O594   O     0.18694   0.16666   0.82549   0.00000  Uiso   1.00
O595   O     0.12706   0.10654   0.75000   0.00000  Uiso   1.00
O596   O     0.20625   0.10655   0.75000   0.00000  Uiso   1.00
O597   O     0.14640   0.16667   0.67451   0.00000  Uiso   1.00
O598   O     0.22559   0.16668   0.67451   0.00000  Uiso   1.00
O599   O     0.17963   0.25783   0.85728   0.00000  Uiso   1.00
S600   S     0.22360   0.24305   0.87154   0.00000  Uiso   1.00
C601   C     0.50023   0.24594   0.74935   0.00000  Uiso   1.00
C602   C     0.45929   0.18148   0.90602   0.00000  Uiso   1.00
C603   C     0.54273   0.31220   0.74893   0.00000  Uiso   1.00
C604   C     0.47418   0.17134   0.84963   0.00000  Uiso   1.00
C605   C     0.54257   0.02144   0.74931   0.00000  Uiso   1.00
C606   C     0.50003   0.04275   0.74965   0.00000  Uiso   1.00
C607   C     0.45768   0.02112   0.74955   0.00000  Uiso   1.00
C608   C     0.45783   0.31188   0.74924   0.00000  Uiso   1.00
C609   C     0.50033   0.29057   0.74902   0.00000  Uiso   1.00
C610   C     0.65189   0.19098   0.71597   0.00000  Uiso   1.00
C611   C     0.36787   0.19084   0.71618   0.00000  Uiso   1.00
C612   C     0.47886   0.18306   0.98873   0.00000  Uiso   1.00
C613   C     0.34862   0.14241   0.78385   0.00000  Uiso   1.00
C614   C     0.63244   0.14232   0.78375   0.00000  Uiso   1.00
C615   C     0.49995   0.08739   0.74996   0.00000  Uiso   1.00
C616   C     0.52594   0.16593   0.64996   0.00000  Uiso   1.00
C617   C     0.60014   0.16231   0.50831   0.00000  Uiso   1.00
C618   C     0.54001   0.16595   0.59285   0.00000  Uiso   1.00
C619   C     0.40948   0.18451   0.93336   0.00000  Uiso   1.00
C620   C     0.39479   0.18949   0.98721   0.00000  Uiso   1.00
C621   C     0.42848   0.18641   0.51504   0.00000  Uiso   1.00
C622   C     0.49409   0.18696   0.93385   0.00000  Uiso   1.00
C623   C     0.51499   0.17647   0.51446   0.00000  Uiso   1.00
C624   C     0.56463   0.17327   0.98453   0.00000  Uiso   1.00
C625   C     0.57867   0.18509   0.93231   0.00000  Uiso   1.00
C626   C     0.54335   0.19763   0.90946   0.00000  Uiso   1.00
C627   C     0.50360   0.17267   0.56861   0.00000  Uiso   1.00
C628   C     0.58821   0.15939   0.56241   0.00000  Uiso   1.00
Cl629  Cl    0.63666   0.22411   0.67165   0.00000  Uiso   1.00
Cu630  Cu    0.45311   0.16666   0.75000   0.00000  Uiso   1.00
Cu631  Cu    0.54689   0.16667   0.75000   0.00000  Uiso   1.00
H632   H     0.61655   0.15251   0.58033   0.00000  Uiso   1.00
H633   H     0.46661   0.17593   0.59293   0.00000  Uiso   1.00
H634   H     0.38191   0.18341   0.91315   0.00000  Uiso   1.00
H635   H     0.41381   0.18761   0.55681   0.00000  Uiso   1.00
H636   H     0.35696   0.19456   0.50821   0.00000  Uiso   1.00
H637   H     0.57594   0.29632   0.74880   0.00000  Uiso   1.00
H638   H     0.63294   0.23366   0.82946   0.00000  Uiso   1.00
H639   H     0.57571   0.03756   0.74938   0.00000  Uiso   1.00
H640   H     0.42445   0.03701   0.74978   0.00000  Uiso   1.00
H641   H     0.42466   0.29575   0.74928   0.00000  Uiso   1.00
H642   H     0.39430   0.21033   0.68932   0.00000  Uiso   1.00
H643   H     0.35961   0.12296   0.81104   0.00000  Uiso   1.00
H644   H     0.60628   0.12285   0.81090   0.00000  Uiso   1.00
H645   H     0.61697   0.19017   0.91200   0.00000  Uiso   1.00
H646   H     0.63712   0.15662   0.98469   0.00000  Uiso   1.00
N647   N     0.38265   0.16666   0.74999   0.00000  Uiso   1.00
N648   N     0.61735   0.16669   0.75000   0.00000  Uiso   1.00
O649   O     0.46042   0.22678   0.75001   0.00000  Uiso   1.00
O650   O     0.57162   0.27601   0.90336   0.00000  Uiso   1.00
O651   O     0.60350   0.23548   0.81742   0.00000  Uiso   1.00
O652   O     0.53961   0.22679   0.75001   0.00000  Uiso   1.00
O653   O     0.44108   0.16665   0.82549   0.00000  Uiso   1.00
O654   O     0.52027   0.16666   0.82549   0.00000  Uiso   1.00
O655   O     0.46039   0.10654   0.75000   0.00000  Uiso   1.00
O656   O     0.53958   0.10655   0.75000   0.00000  Uiso   1.00
O657   O     0.47973   0.16667   0.67451   0.00000  Uiso   1.00
O658   O     0.55892   0.16668   0.67451   0.00000  Uiso   1.00
O659   O     0.51296   0.25783   0.85728   0.00000  Uiso   1.00
S660   S     0.55694   0.24305   0.87154   0.00000  Uiso   1.00
C661   C     0.83356   0.24594   0.74935   0.00000  Uiso   1.00
C662   C     0.79263   0.18148   0.90602   0.00000  Uiso   1.00
C663   C     0.87606   0.31220   0.74893   0.00000  Uiso   1.00
C664   C     0.80752   0.17134   0.84963   0.00000  Uiso   1.00
C665   C     0.87590   0.02144   0.74931   0.00000  Uiso   1.00
C666   C     0.83337   0.04275   0.74965   0.00000  Uiso   1.00
C667   C     0.79101   0.02112   0.74955   0.00000  Uiso   1.00
C668   C     0.79116   0.31188   0.74924   0.00000  Uiso   1.00
C669   C     0.83366   0.29057   0.74902   0.00000  Uiso   1.00
C670   C     0.98522   0.19098   0.71597   0.00000  Uiso   1.00
C671   C     0.70120   0.19084   0.71618   0.00000  Uiso   1.00
C672   C     0.81220   0.18306   0.98873   0.00000  Uiso   1.00
C673   C     0.68195   0.14241   0.78385   0.00000  Uiso   1.00
C674   C     0.96578   0.14232   0.78375   0.00000  Uiso   1.00
C675   C     0.83328   0.08739   0.74996   0.00000  Uiso   1.00
C676   C     0.85928   0.16593   0.64996   0.00000  Uiso   1.00
C677   C     0.93347   0.16231   0.50831   0.00000  Uiso   1.00
C678   C     0.87334   0.16595   0.59285   0.00000  Uiso   1.00
C679   C     0.74282   0.18451   0.93336   0.00000  Uiso   1.00
C680   C     0.72812   0.18949   0.98721   0.00000  Uiso   1.00
C681   C     0.76181   0.18641   0.51504   0.00000  Uiso   1.00
C682   C     0.82742   0.18696   0.93385   0.00000  Uiso   1.00
C683   C     0.84833   0.17647   0.51446   0.00000  Uiso   1.00
C684   C     0.89796   0.17327   0.98453   0.00000  Uiso   1.00
C685   C     0.91200   0.18509   0.93231   0.00000  Uiso   1.00
C686   C     0.87668   0.19763   0.90946   0.00000  Uiso   1.00
C687   C     0.83693   0.17267   0.56861   0.00000  Uiso   1.00
C688   C     0.92155   0.15939   0.56241   0.00000  Uiso   1.00
Cl689  Cl    0.96999   0.22411   0.67165   0.00000  Uiso   1.00
Cu690  Cu    0.78645   0.16666   0.75000   0.00000  Uiso   1.00
Cu691  Cu    0.88022   0.16667   0.75000   0.00000  Uiso   1.00
H692   H     0.94988   0.15251   0.58033   0.00000  Uiso   1.00
H693   H     0.79994   0.17593   0.59293   0.00000  Uiso   1.00
H694   H     0.71524   0.18341   0.91315   0.00000  Uiso   1.00
H695   H     0.74714   0.18761   0.55681   0.00000  Uiso   1.00
H696   H     0.69030   0.19456   0.50821   0.00000  Uiso   1.00
H697   H     0.90927   0.29632   0.74880   0.00000  Uiso   1.00
H698   H     0.96628   0.23366   0.82946   0.00000  Uiso   1.00
H699   H     0.90904   0.03756   0.74938   0.00000  Uiso   1.00
H700   H     0.75778   0.03701   0.74978   0.00000  Uiso   1.00
H701   H     0.75799   0.29575   0.74928   0.00000  Uiso   1.00
H702   H     0.72763   0.21033   0.68932   0.00000  Uiso   1.00
H703   H     0.69294   0.12296   0.81104   0.00000  Uiso   1.00
H704   H     0.93962   0.12285   0.81090   0.00000  Uiso   1.00
H705   H     0.95031   0.19017   0.91200   0.00000  Uiso   1.00
H706   H     0.97045   0.15662   0.98469   0.00000  Uiso   1.00
N707   N     0.71598   0.16666   0.74999   0.00000  Uiso   1.00
N708   N     0.95069   0.16669   0.75000   0.00000  Uiso   1.00
O709   O     0.79375   0.22678   0.75001   0.00000  Uiso   1.00
O710   O     0.90496   0.27601   0.90336   0.00000  Uiso   1.00
O711   O     0.93683   0.23548   0.81742   0.00000  Uiso   1.00
O712   O     0.87294   0.22679   0.75001   0.00000  Uiso   1.00
O713   O     0.77441   0.16665   0.82549   0.00000  Uiso   1.00
O714   O     0.85360   0.16666   0.82549   0.00000  Uiso   1.00
O715   O     0.79373   0.10654   0.75000   0.00000  Uiso   1.00
O716   O     0.87292   0.10655   0.75000   0.00000  Uiso   1.00
O717   O     0.81306   0.16667   0.67451   0.00000  Uiso   1.00
O718   O     0.89225   0.16668   0.67451   0.00000  Uiso   1.00
O719   O     0.84629   0.25783   0.85728   0.00000  Uiso   1.00
S720   S     0.89027   0.24305   0.87154   0.00000  Uiso   1.00
C721   C     0.16690   0.57927   0.74935   0.00000  Uiso   1.00
C722   C     0.12596   0.51481   0.90602   0.00000  Uiso   1.00
C723   C     0.20940   0.64553   0.74893   0.00000  Uiso   1.00
C724   C     0.14085   0.50468   0.84963   0.00000  Uiso   1.00
C725   C     0.20923   0.35477   0.74931   0.00000  Uiso   1.00
C726   C     0.16670   0.37608   0.74965   0.00000  Uiso   1.00
C727   C     0.12435   0.35446   0.74955   0.00000  Uiso   1.00
C728   C     0.12449   0.64521   0.74924   0.00000  Uiso   1.00
C729   C     0.16699   0.62391   0.74902   0.00000  Uiso   1.00
C730   C     0.31856   0.52431   0.71597   0.00000  Uiso   1.00
C731   C     0.03453   0.52417   0.71618   0.00000  Uiso   1.00
C732   C     0.14553   0.51639   0.98873   0.00000  Uiso   1.00
C733   C     0.01528   0.47574   0.78385   0.00000  Uiso   1.00
C734   C     0.29911   0.47566   0.78375   0.00000  Uiso   1.00
C735   C     0.16662   0.42072   0.74996   0.00000  Uiso   1.00
C736   C     0.19261   0.49926   0.64996   0.00000  Uiso   1.00
C737   C     0.26680   0.49564   0.50831   0.00000  Uiso   1.00
C738   C     0.20668   0.49928   0.59285   0.00000  Uiso   1.00
C739   C     0.07615   0.51784   0.93336   0.00000  Uiso   1.00
C740   C     0.06146   0.52283   0.98721   0.00000  Uiso   1.00
C741   C     0.09515   0.51974   0.51504   0.00000  Uiso   1.00
C742   C     0.16076   0.52029   0.93385   0.00000  Uiso   1.00
C743   C     0.18166   0.50981   0.51446   0.00000  Uiso   1.00
C744   C     0.23129   0.50660   0.98453   0.00000  Uiso   1.00
C745   C     0.24533   0.51842   0.93231   0.00000  Uiso   1.00
C746   C     0.21001   0.53096   0.90946   0.00000  Uiso   1.00
C747   C     0.17026   0.50601   0.56861   0.00000  Uiso   1.00
C748   C     0.25488   0.49273   0.56241   0.00000  Uiso   1.00
Cl749  Cl    0.30333   0.55745   0.67165   0.00000  Uiso   1.00
Cu750  Cu    0.11978   0.49999   0.75000   0.00000  Uiso   1.00
Cu751  Cu    0.21355   0.50001   0.75000   0.00000  Uiso   1.00
H752   H     0.28322   0.48584   0.58033   0.00000  Uiso   1.00
H753   H     0.13327   0.50926   0.59293   0.00000  Uiso   1.00
H754   H     0.04857   0.51674   0.91315   0.00000  Uiso   1.00
H755   H     0.08048   0.52095   0.55681   0.00000  Uiso   1.00
H756   H     0.02363   0.52789   0.50821   0.00000  Uiso   1.00
H757   H     0.24260   0.62966   0.74880   0.00000  Uiso   1.00
H758   H     0.29961   0.56699   0.82946   0.00000  Uiso   1.00
H759   H     0.24237   0.37089   0.74938   0.00000  Uiso   1.00
H760   H     0.09111   0.37034   0.74978   0.00000  Uiso   1.00
H761   H     0.09133   0.62908   0.74928   0.00000  Uiso   1.00
H762   H     0.06097   0.54366   0.68932   0.00000  Uiso   1.00
H763   H     0.02627   0.45629   0.81104   0.00000  Uiso   1.00
H764   H     0.27295   0.45618   0.81090   0.00000  Uiso   1.00
H765   H     0.28364   0.52350   0.91200   0.00000  Uiso   1.00
H766   H     0.30379   0.48996   0.98469   0.00000  Uiso   1.00
N767   N     0.04931   0.49999   0.74999   0.00000  Uiso   1.00
N768   N     0.28402   0.50002   0.75000   0.00000  Uiso   1.00
O769   O     0.12708   0.56011   0.75001   0.00000  Uiso   1.00
O770   O     0.23829   0.60934   0.90336   0.00000  Uiso   1.00
O771   O     0.27016   0.56881   0.81742   0.00000  Uiso   1.00
O772   O     0.20627   0.56012   0.75001   0.00000  Uiso   1.00
O773   O     0.10775   0.49998   0.82549   0.00000  Uiso   1.00
O774   O     0.18694   0.49999   0.82549   0.00000  Uiso   1.00
O775   O     0.12706   0.43988   0.75000   0.00000  Uiso   1.00
O776   O     0.20625   0.43989   0.75000   0.00000  Uiso   1.00
O777   O     0.14640   0.50001   0.67451   0.00000  Uiso   1.00
O778   O     0.22559   0.50002   0.67451   0.00000  Uiso   1.00
O779   O     0.17963   0.59116   0.85728   0.00000  Uiso   1.00
S780   S     0.22360   0.57639   0.87154   0.00000  Uiso   1.00
C781   C     0.50023   0.57927   0.74935   0.00000  Uiso   1.00
C782   C     0.45929   0.51481   0.90602   0.00000  Uiso   1.00
C783   C     0.54273   0.64553   0.74893   0.00000  Uiso   1.00
C784   C     0.47418   0.50468   0.84963   0.00000  Uiso   1.00
C785   C     0.54257   0.35477   0.74931   0.00000  Uiso   1.00
C786   C     0.50003   0.37608   0.74965   0.00000  Uiso   1.00
C787   C     0.45768   0.35446   0.74955   0.00000  Uiso   1.00
C788   C     0.45783   0.64521   0.74924   0.00000  Uiso   1.00
C789   C     0.50033   0.62391   0.74902   0.00000  Uiso   1.00
C790   C     0.65189   0.52431   0.71597   0.00000  Uiso   1.00
C791   C     0.36787   0.52417   0.71618   0.00000  Uiso   1.00
C792   C     0.47886   0.51639   0.98873   0.00000  Uiso   1.00
C793   C     0.34862   0.47574   0.78385   0.00000  Uiso   1.00
C794   C     0.63244   0.47566   0.78375   0.00000  Uiso   1.00
C795   C     0.49995   0.42072   0.74996   0.00000  Uiso   1.00
C796   C     0.52594   0.49926   0.64996   0.00000  Uiso   1.00
C797   C     0.60014   0.49564   0.50831   0.00000  Uiso   1.00
C798   C     0.54001   0.49928   0.59285   0.00000  Uiso   1.00
C799   C     0.40948   0.51784   0.93336   0.00000  Uiso   1.00
C800   C     0.39479   0.52283   0.98721   0.00000  Uiso   1.00
C801   C     0.42848   0.51974   0.51504   0.00000  Uiso   1.00
C802   C     0.49409   0.52029   0.93385   0.00000  Uiso   1.00
C803   C     0.51499   0.50981   0.51446   0.00000  Uiso   1.00
C804   C     0.56463   0.50660   0.98453   0.00000  Uiso   1.00
C805   C     0.57867   0.51842   0.93231   0.00000  Uiso   1.00
C806   C     0.54335   0.53096   0.90946   0.00000  Uiso   1.00
C807   C     0.50360   0.50601   0.56861   0.00000  Uiso   1.00
C808   C     0.58821   0.49273   0.56241   0.00000  Uiso   1.00
Cl809  Cl    0.63666   0.55745   0.67165   0.00000  Uiso   1.00
Cu810  Cu    0.45311   0.49999   0.75000   0.00000  Uiso   1.00
Cu811  Cu    0.54689   0.50001   0.75000   0.00000  Uiso   1.00
H812   H     0.61655   0.48584   0.58033   0.00000  Uiso   1.00
H813   H     0.46661   0.50926   0.59293   0.00000  Uiso   1.00
H814   H     0.38191   0.51674   0.91315   0.00000  Uiso   1.00
H815   H     0.41381   0.52095   0.55681   0.00000  Uiso   1.00
H816   H     0.35696   0.52789   0.50821   0.00000  Uiso   1.00
H817   H     0.57594   0.62966   0.74880   0.00000  Uiso   1.00
H818   H     0.63294   0.56699   0.82946   0.00000  Uiso   1.00
H819   H     0.57571   0.37089   0.74938   0.00000  Uiso   1.00
H820   H     0.42445   0.37034   0.74978   0.00000  Uiso   1.00
H821   H     0.42466   0.62908   0.74928   0.00000  Uiso   1.00
H822   H     0.39430   0.54366   0.68932   0.00000  Uiso   1.00
H823   H     0.35961   0.45629   0.81104   0.00000  Uiso   1.00
H824   H     0.60628   0.45618   0.81090   0.00000  Uiso   1.00
H825   H     0.61697   0.52350   0.91200   0.00000  Uiso   1.00
H826   H     0.63712   0.48996   0.98469   0.00000  Uiso   1.00
N827   N     0.38265   0.49999   0.74999   0.00000  Uiso   1.00
N828   N     0.61735   0.50002   0.75000   0.00000  Uiso   1.00
O829   O     0.46042   0.56011   0.75001   0.00000  Uiso   1.00
O830   O     0.57162   0.60934   0.90336   0.00000  Uiso   1.00
O831   O     0.60350   0.56881   0.81742   0.00000  Uiso   1.00
O832   O     0.53961   0.56012   0.75001   0.00000  Uiso   1.00
O833   O     0.44108   0.49998   0.82549   0.00000  Uiso   1.00
O834   O     0.52027   0.49999   0.82549   0.00000  Uiso   1.00
O835   O     0.46039   0.43988   0.75000   0.00000  Uiso   1.00
O836   O     0.53958   0.43989   0.75000   0.00000  Uiso   1.00
O837   O     0.47973   0.50001   0.67451   0.00000  Uiso   1.00
O838   O     0.55892   0.50002   0.67451   0.00000  Uiso   1.00
O839   O     0.51296   0.59116   0.85728   0.00000  Uiso   1.00
S840   S     0.55694   0.57639   0.87154   0.00000  Uiso   1.00
C841   C     0.83356   0.57927   0.74935   0.00000  Uiso   1.00
C842   C     0.79263   0.51481   0.90602   0.00000  Uiso   1.00
C843   C     0.87606   0.64553   0.74893   0.00000  Uiso   1.00
C844   C     0.80752   0.50468   0.84963   0.00000  Uiso   1.00
C845   C     0.87590   0.35477   0.74931   0.00000  Uiso   1.00
C846   C     0.83337   0.37608   0.74965   0.00000  Uiso   1.00
C847   C     0.79101   0.35446   0.74955   0.00000  Uiso   1.00
C848   C     0.79116   0.64521   0.74924   0.00000  Uiso   1.00
C849   C     0.83366   0.62391   0.74902   0.00000  Uiso   1.00
C850   C     0.98522   0.52431   0.71597   0.00000  Uiso   1.00
C851   C     0.70120   0.52417   0.71618   0.00000  Uiso   1.00
C852   C     0.81220   0.51639   0.98873   0.00000  Uiso   1.00
C853   C     0.68195   0.47574   0.78385   0.00000  Uiso   1.00
C854   C     0.96578   0.47566   0.78375   0.00000  Uiso   1.00
C855   C     0.83328   0.42072   0.74996   0.00000  Uiso   1.00
C856   C     0.85928   0.49926   0.64996   0.00000  Uiso   1.00
C857   C     0.93347   0.49564   0.50831   0.00000  Uiso   1.00
C858   C     0.87334   0.49928   0.59285   0.00000  Uiso   1.00
C859   C     0.74282   0.51784   0.93336   0.00000  Uiso   1.00
C860   C     0.72812   0.52283   0.98721   0.00000  Uiso   1.00
C861   C     0.76181   0.51974   0.51504   0.00000  Uiso   1.00
C862   C     0.82742   0.52029   0.93385   0.00000  Uiso   1.00
C863   C     0.84833   0.50981   0.51446   0.00000  Uiso   1.00
C864   C     0.89796   0.50660   0.98453   0.00000  Uiso   1.00
C865   C     0.91200   0.51842   0.93231   0.00000  Uiso   1.00
C866   C     0.87668   0.53096   0.90946   0.00000  Uiso   1.00
C867   C     0.83693   0.50601   0.56861   0.00000  Uiso   1.00
C868   C     0.92155   0.49273   0.56241   0.00000  Uiso   1.00
Cl869  Cl    0.96999   0.55745   0.67165   0.00000  Uiso   1.00
Cu870  Cu    0.78645   0.49999   0.75000   0.00000  Uiso   1.00
Cu871  Cu    0.88022   0.50001   0.75000   0.00000  Uiso   1.00
H872   H     0.94988   0.48584   0.58033   0.00000  Uiso   1.00
H873   H     0.79994   0.50926   0.59293   0.00000  Uiso   1.00
H874   H     0.71524   0.51674   0.91315   0.00000  Uiso   1.00
H875   H     0.74714   0.52095   0.55681   0.00000  Uiso   1.00
H876   H     0.69030   0.52789   0.50821   0.00000  Uiso   1.00
H877   H     0.90927   0.62966   0.74880   0.00000  Uiso   1.00
H878   H     0.96628   0.56699   0.82946   0.00000  Uiso   1.00
H879   H     0.90904   0.37089   0.74938   0.00000  Uiso   1.00
H880   H     0.75778   0.37034   0.74978   0.00000  Uiso   1.00
H881   H     0.75799   0.62908   0.74928   0.00000  Uiso   1.00
H882   H     0.72763   0.54366   0.68932   0.00000  Uiso   1.00
H883   H     0.69294   0.45629   0.81104   0.00000  Uiso   1.00
H884   H     0.93962   0.45618   0.81090   0.00000  Uiso   1.00
H885   H     0.95031   0.52350   0.91200   0.00000  Uiso   1.00
H886   H     0.97045   0.48996   0.98469   0.00000  Uiso   1.00
N887   N     0.71598   0.49999   0.74999   0.00000  Uiso   1.00
N888   N     0.95069   0.50002   0.75000   0.00000  Uiso   1.00
O889   O     0.79375   0.56011   0.75001   0.00000  Uiso   1.00
O890   O     0.90496   0.60934   0.90336   0.00000  Uiso   1.00
O891   O     0.93683   0.56881   0.81742   0.00000  Uiso   1.00
O892   O     0.87294   0.56012   0.75001   0.00000  Uiso   1.00
O893   O     0.77441   0.49998   0.82549   0.00000  Uiso   1.00
O894   O     0.85360   0.49999   0.82549   0.00000  Uiso   1.00
O895   O     0.79373   0.43988   0.75000   0.00000  Uiso   1.00
O896   O     0.87292   0.43989   0.75000   0.00000  Uiso   1.00
O897   O     0.81306   0.50001   0.67451   0.00000  Uiso   1.00
O898   O     0.89225   0.50002   0.67451   0.00000  Uiso   1.00
O899   O     0.84629   0.59116   0.85728   0.00000  Uiso   1.00
S900   S     0.89027   0.57639   0.87154   0.00000  Uiso   1.00
C901   C     0.16690   0.91260   0.74935   0.00000  Uiso   1.00
C902   C     0.12596   0.84814   0.90602   0.00000  Uiso   1.00
C903   C     0.20940   0.97886   0.74893   0.00000  Uiso   1.00
C904   C     0.14085   0.83801   0.84963   0.00000  Uiso   1.00
C905   C     0.20923   0.68810   0.74931   0.00000  Uiso   1.00
C906   C     0.16670   0.70942   0.74965   0.00000  Uiso   1.00
C907   C     0.12435   0.68779   0.74955   0.00000  Uiso   1.00
C908   C     0.12449   0.97854   0.74924   0.00000  Uiso   1.00
C909   C     0.16699   0.95724   0.74902   0.00000  Uiso   1.00
C910   C     0.31856   0.85765   0.71597   0.00000  Uiso   1.00
C911   C     0.03453   0.85751   0.71618   0.00000  Uiso   1.00
C912   C     0.14553   0.84972   0.98873   0.00000  Uiso   1.00
C913   C     0.01528   0.80908   0.78385   0.00000  Uiso   1.00
C914   C     0.29911   0.80899   0.78375   0.00000  Uiso   1.00
C915   C     0.16662   0.75406   0.74996   0.00000  Uiso   1.00
C916   C     0.19261   0.83259   0.64996   0.00000  Uiso   1.00
C917   C     0.26680   0.82897   0.50831   0.00000  Uiso   1.00
C918   C     0.20668   0.83262   0.59285   0.00000  Uiso   1.00
C919   C     0.07615   0.85118   0.93336   0.00000  Uiso   1.00
C920   C     0.06146   0.85616   0.98721   0.00000  Uiso   1.00
C921   C     0.09515   0.85307   0.51504   0.00000  Uiso   1.00
C922   C     0.16076   0.85362   0.93385   0.00000  Uiso   1.00
C923   C     0.18166   0.84314   0.51446   0.00000  Uiso   1.00
C924   C     0.23129   0.83993   0.98453   0.00000  Uiso   1.00
C925   C     0.24533   0.85176   0.93231   0.00000  Uiso   1.00
C926   C     0.21001   0.86429   0.90946   0.00000  Uiso   1.00
C927   C     0.17026   0.83934   0.56861   0.00000  Uiso   1.00
C928   C     0.25488   0.82606   0.56241   0.00000  Uiso   1.00
Cl929  Cl    0.30333   0.89078   0.67165   0.00000  Uiso   1.00
Cu930  Cu    0.11978   0.83333   0.75000   0.00000  Uiso   1.00
Cu931  Cu    0.21355   0.83334   0.75000   0.00000  Uiso   1.00
H932   H     0.28322   0.81917   0.58033   0.00000  Uiso   1.00
H933   H     0.13327   0.84259   0.59293   0.00000  Uiso   1.00
H934   H     0.04857   0.85008   0.91315   0.00000  Uiso   1.00
H935   H     0.08048   0.85428   0.55681   0.00000  Uiso   1.00
H936   H     0.02363   0.86123   0.50821   0.00000  Uiso   1.00
H937   H     0.24260   0.96299   0.74880   0.00000  Uiso   1.00
H938   H     0.29961   0.90033   0.82946   0.00000  Uiso   1.00
H939   H     0.24237   0.70423   0.74938   0.00000  Uiso   1.00
H940   H     0.09111   0.70367   0.74978   0.00000  Uiso   1.00
H941   H     0.09133   0.96241   0.74928   0.00000  Uiso   1.00
H942   H     0.06097   0.87700   0.68932   0.00000  Uiso   1.00
H943   H     0.02627   0.78963   0.81104   0.00000  Uiso   1.00
H944   H     0.27295   0.78952   0.81090   0.00000  Uiso   1.00
H945   H     0.28364   0.85683   0.91200   0.00000  Uiso   1.00
H946   H     0.30379   0.82329   0.98469   0.00000  Uiso   1.00
N947   N     0.04931   0.83332   0.74999   0.00000  Uiso   1.00
N948   N     0.28402   0.83335   0.75000   0.00000  Uiso   1.00
O949   O     0.12708   0.89345   0.75001   0.00000  Uiso   1.00
O950   O     0.23829   0.94268   0.90336   0.00000  Uiso   1.00
O951   O     0.27016   0.90215   0.81742   0.00000  Uiso   1.00
O952   O     0.20627   0.89346   0.75001   0.00000  Uiso   1.00
O953   O     0.10775   0.83332   0.82549   0.00000  Uiso   1.00
O954   O     0.18694   0.83333   0.82549   0.00000  Uiso   1.00
O955   O     0.12706   0.77321   0.75000   0.00000  Uiso   1.00
O956   O     0.20625   0.77322   0.75000   0.00000  Uiso   1.00
O957   O     0.14640   0.83334   0.67451   0.00000  Uiso   1.00
O958   O     0.22559   0.83335   0.67451   0.00000  Uiso   1.00
O959   O     0.17963   0.92450   0.85728   0.00000  Uiso   1.00
S960   S     0.22360   0.90972   0.87154   0.00000  Uiso   1.00
C961   C     0.50023   0.91260   0.74935   0.00000  Uiso   1.00
C962   C     0.45929   0.84814   0.90602   0.00000  Uiso   1.00
C963   C     0.54273   0.97886   0.74893   0.00000  Uiso   1.00
C964   C     0.47418   0.83801   0.84963   0.00000  Uiso   1.00
C965   C     0.54257   0.68810   0.74931   0.00000  Uiso   1.00
C966   C     0.50003   0.70942   0.74965   0.00000  Uiso   1.00
C967   C     0.45768   0.68779   0.74955   0.00000  Uiso   1.00
C968   C     0.45783   0.97854   0.74924   0.00000  Uiso   1.00
C969   C     0.50033   0.95724   0.74902   0.00000  Uiso   1.00
C970   C     0.65189   0.85765   0.71597   0.00000  Uiso   1.00
C971   C     0.36787   0.85751   0.71618   0.00000  Uiso   1.00
C972   C     0.47886   0.84972   0.98873   0.00000  Uiso   1.00
C973   C     0.34862   0.80908   0.78385   0.00000  Uiso   1.00
C974   C     0.63244   0.80899   0.78375   0.00000  Uiso   1.00
C975   C     0.49995   0.75406   0.74996   0.00000  Uiso   1.00
C976   C     0.52594   0.83259   0.64996   0.00000  Uiso   1.00
C977   C     0.60014   0.82897   0.50831   0.00000  Uiso   1.00
C978   C     0.54001   0.83262   0.59285   0.00000  Uiso   1.00
C979   C     0.40948   0.85118   0.93336   0.00000  Uiso   1.00
C980   C     0.39479   0.85616   0.98721   0.00000  Uiso   1.00
C981   C     0.42848   0.85307   0.51504   0.00000  Uiso   1.00
C982   C     0.49409   0.85362   0.93385   0.00000  Uiso   1.00
C983   C     0.51499   0.84314   0.51446   0.00000  Uiso   1.00
C984   C     0.56463   0.83993   0.98453   0.00000  Uiso   1.00
C985   C     0.57867   0.85176   0.93231   0.00000  Uiso   1.00
C986   C     0.54335   0.86429   0.90946   0.00000  Uiso   1.00
C987   C     0.50360   0.83934   0.56861   0.00000  Uiso   1.00
C988   C     0.58821   0.82606   0.56241   0.00000  Uiso   1.00
Cl989  Cl    0.63666   0.89078   0.67165   0.00000  Uiso   1.00
Cu990  Cu    0.45311   0.83333   0.75000   0.00000  Uiso   1.00
Cu991  Cu    0.54689   0.83334   0.75000   0.00000  Uiso   1.00
H992   H     0.61655   0.81917   0.58033   0.00000  Uiso   1.00
H993   H     0.46661   0.84259   0.59293   0.00000  Uiso   1.00
H994   H     0.38191   0.85008   0.91315   0.00000  Uiso   1.00
H995   H     0.41381   0.85428   0.55681   0.00000  Uiso   1.00
H996   H     0.35696   0.86123   0.50821   0.00000  Uiso   1.00
H997   H     0.57594   0.96299   0.74880   0.00000  Uiso   1.00
H998   H     0.63294   0.90033   0.82946   0.00000  Uiso   1.00
H999   H     0.57571   0.70423   0.74938   0.00000  Uiso   1.00
H1000  H     0.42445   0.70367   0.74978   0.00000  Uiso   1.00
H1001  H     0.42466   0.96241   0.74928   0.00000  Uiso   1.00
H1002  H     0.39430   0.87700   0.68932   0.00000  Uiso   1.00
H1003  H     0.35961   0.78963   0.81104   0.00000  Uiso   1.00
H1004  H     0.60628   0.78952   0.81090   0.00000  Uiso   1.00
H1005  H     0.61697   0.85683   0.91200   0.00000  Uiso   1.00
H1006  H     0.63712   0.82329   0.98469   0.00000  Uiso   1.00
N1007  N     0.38265   0.83332   0.74999   0.00000  Uiso   1.00
N1008  N     0.61735   0.83335   0.75000   0.00000  Uiso   1.00
O1009  O     0.46042   0.89345   0.75001   0.00000  Uiso   1.00
O1010  O     0.57162   0.94268   0.90336   0.00000  Uiso   1.00
O1011  O     0.60350   0.90215   0.81742   0.00000  Uiso   1.00
O1012  O     0.53961   0.89346   0.75001   0.00000  Uiso   1.00
O1013  O     0.44108   0.83332   0.82549   0.00000  Uiso   1.00
O1014  O     0.52027   0.83333   0.82549   0.00000  Uiso   1.00
O1015  O     0.46039   0.77321   0.75000   0.00000  Uiso   1.00
O1016  O     0.53958   0.77322   0.75000   0.00000  Uiso   1.00
O1017  O     0.47973   0.83334   0.67451   0.00000  Uiso   1.00
O1018  O     0.55892   0.83335   0.67451   0.00000  Uiso   1.00
O1019  O     0.51296   0.92450   0.85728   0.00000  Uiso   1.00
S1020  S     0.55694   0.90972   0.87154   0.00000  Uiso   1.00
C1021  C     0.83356   0.91260   0.74935   0.00000  Uiso   1.00
C1022  C     0.79263   0.84814   0.90602   0.00000  Uiso   1.00
C1023  C     0.87606   0.97886   0.74893   0.00000  Uiso   1.00
C1024  C     0.80752   0.83801   0.84963   0.00000  Uiso   1.00
C1025  C     0.87590   0.68810   0.74931   0.00000  Uiso   1.00
C1026  C     0.83337   0.70942   0.74965   0.00000  Uiso   1.00
C1027  C     0.79101   0.68779   0.74955   0.00000  Uiso   1.00
C1028  C     0.79116   0.97854   0.74924   0.00000  Uiso   1.00
C1029  C     0.83366   0.95724   0.74902   0.00000  Uiso   1.00
C1030  C     0.98522   0.85765   0.71597   0.00000  Uiso   1.00
C1031  C     0.70120   0.85751   0.71618   0.00000  Uiso   1.00
C1032  C     0.81220   0.84972   0.98873   0.00000  Uiso   1.00
C1033  C     0.68195   0.80908   0.78385   0.00000  Uiso   1.00
C1034  C     0.96578   0.80899   0.78375   0.00000  Uiso   1.00
C1035  C     0.83328   0.75406   0.74996   0.00000  Uiso   1.00
C1036  C     0.85928   0.83259   0.64996   0.00000  Uiso   1.00
C1037  C     0.93347   0.82897   0.50831   0.00000  Uiso   1.00
C1038  C     0.87334   0.83262   0.59285   0.00000  Uiso   1.00
C1039  C     0.74282   0.85118   0.93336   0.00000  Uiso   1.00
C1040  C     0.72812   0.85616   0.98721   0.00000  Uiso   1.00
C1041  C     0.76181   0.85307   0.51504   0.00000  Uiso   1.00
C1042  C     0.82742   0.85362   0.93385   0.00000  Uiso   1.00
C1043  C     0.84833   0.84314   0.51446   0.00000  Uiso   1.00
C1044  C     0.89796   0.83993   0.98453   0.00000  Uiso   1.00
C1045  C     0.91200   0.85176   0.93231   0.00000  Uiso   1.00
C1046  C     0.87668   0.86429   0.90946   0.00000  Uiso   1.00
C1047  C     0.83693   0.83934   0.56861   0.00000  Uiso   1.00
C1048  C     0.92155   0.82606   0.56241   0.00000  Uiso   1.00
Cl1049 Cl    0.96999   0.89078   0.67165   0.00000  Uiso   1.00
Cu1050 Cu    0.78645   0.83333   0.75000   0.00000  Uiso   1.00
Cu1051 Cu    0.88022   0.83334   0.75000   0.00000  Uiso   1.00
H1052  H     0.94988   0.81917   0.58033   0.00000  Uiso   1.00
H1053  H     0.79994   0.84259   0.59293   0.00000  Uiso   1.00
H1054  H     0.71524   0.85008   0.91315   0.00000  Uiso   1.00
H1055  H     0.74714   0.85428   0.55681   0.00000  Uiso   1.00
H1056  H     0.69030   0.86123   0.50821   0.00000  Uiso   1.00
H1057  H     0.90927   0.96299   0.74880   0.00000  Uiso   1.00
H1058  H     0.96628   0.90033   0.82946   0.00000  Uiso   1.00
H1059  H     0.90904   0.70423   0.74938   0.00000  Uiso   1.00
H1060  H     0.75778   0.70367   0.74978   0.00000  Uiso   1.00
H1061  H     0.75799   0.96241   0.74928   0.00000  Uiso   1.00
H1062  H     0.72763   0.87700   0.68932   0.00000  Uiso   1.00
H1063  H     0.69294   0.78963   0.81104   0.00000  Uiso   1.00
H1064  H     0.93962   0.78952   0.81090   0.00000  Uiso   1.00
H1065  H     0.95031   0.85683   0.91200   0.00000  Uiso   1.00
H1066  H     0.97045   0.82329   0.98469   0.00000  Uiso   1.00
N1067  N     0.71598   0.83332   0.74999   0.00000  Uiso   1.00
N1068  N     0.95069   0.83335   0.75000   0.00000  Uiso   1.00
O1069  O     0.79375   0.89345   0.75001   0.00000  Uiso   1.00
O1070  O     0.90496   0.94268   0.90336   0.00000  Uiso   1.00
O1071  O     0.93683   0.90215   0.81742   0.00000  Uiso   1.00
O1072  O     0.87294   0.89346   0.75001   0.00000  Uiso   1.00
O1073  O     0.77441   0.83332   0.82549   0.00000  Uiso   1.00
O1074  O     0.85360   0.83333   0.82549   0.00000  Uiso   1.00
O1075  O     0.79373   0.77321   0.75000   0.00000  Uiso   1.00
O1076  O     0.87292   0.77322   0.75000   0.00000  Uiso   1.00
O1077  O     0.81306   0.83334   0.67451   0.00000  Uiso   1.00
O1078  O     0.89225   0.83335   0.67451   0.00000  Uiso   1.00
O1079  O     0.84629   0.92450   0.85728   0.00000  Uiso   1.00
S1080  S     0.89027   0.90972   0.87154   0.00000  Uiso   1.00
loop_
_geom_bond_atom_site_label_1
_geom_bond_atom_site_label_2
_geom_bond_distance
_geom_bond_site_symmetry_2
_ccdc_geom_bond_type
C1     C9      1.450   .     S
C1     O52     1.295   .     A
C1     O49     1.293   .     A
C2     C22     1.422   .     A
C2     C4      1.485   .     S
C2     C19     1.403   .     A
C3     C9      1.401   .     A
C3     H37     1.083   .     S
C3     C185    1.383   .     S
C4     O53     1.305   .     A
C4     O54     1.298   .     A
C5     C6      1.402   .     A
C5     H39     1.083   .     S
C5     C363    1.383   1_545 S
C6     C7      1.401   .     A
C6     C15     1.450   .     S
C7     H40     1.083   .     S
C7     C368    1.383   1_545 S
C8     H41     1.083   .     S
C8     C9      1.402   .     A
C8     C187    1.383   .     S
C10    Cl29    1.755   .     S
C10    N48     1.379   .     A
C10    C71     1.415   .     S
C11    N47     1.361   .     A
C11    H42     1.082   .     S
C11    C130    1.415   1_455 S
C12    C22     1.415   .     A
C12    C561    1.413   .     S
C12    C563    1.421   .     S
C13    H43     1.082   .     S
C13    N47     1.368   .     A
C13    C134    1.419   1_455 S
C14    H44     1.082   .     S
C14    N48     1.368   .     A
C14    C73     1.419   .     S
C15    O56     1.293   .     A
C15    O55     1.295   .     A
C16    O58     1.302   .     A
C16    O57     1.294   .     A
C16    C18     1.467   .     S
C17    C28     1.395   .     A
C17    C564    1.399   1_554 S
C17    H586    1.079   1_554 S
C18    C28     1.399   .     A
C18    C27     1.401   .     A
C19    C20     1.392   .     A
C19    H34     1.083   .     S
C20    C561    1.388   .     S
C20    H576    1.078   .     S
C21    H35     1.077   .     S
C21    C560    1.388   1_554 S
C21    C552    1.413   1_554 S
C22    C26     1.412   .     A
C23    C27     1.399   .     A
C23    C552    1.421   1_554 S
C23    C564    1.417   1_554 S
C24    C25     1.395   .     A
C24    C563    1.417   .     S
C24    C557    1.399   .     S
C25    C26     1.392   .     A
C25    H45     1.084   .     S
C26    S60     1.770   .     S
C27    H33     1.074   .     S
C28    H32     1.083   .     S
Cu30   O55     1.965   .     S
Cu30   O53     1.954   .     S
Cu30   O49     1.964   .     S
Cu30   Cu31    2.687   .     S
Cu30   O57     1.945   .     S
Cu30   N47     2.019   .     S
Cu31   O52     1.965   .     S
Cu31   N48     2.019   .     S
Cu31   O58     1.954   .     S
Cu31   O54     1.945   .     S
Cu31   O56     1.964   .     S
H36    C560    1.078   1_554 S
H38    O51     0.991   .     S
H46    C557    1.079   .     S
O50    S60     1.503   .     D
O51    S60     1.677   .     S
O59    S60     1.502   .     D
C61    C69     1.450   .     S
C61    O112    1.295   .     A
C61    O109    1.293   .     A
C62    C82     1.422   .     A
C62    C64     1.485   .     S
C62    C79     1.403   .     A
C63    C69     1.401   .     A
C63    H97     1.083   .     S
C63    C245    1.383   .     S
C64    O113    1.305   .     A
C64    O114    1.298   .     A
C65    C66     1.402   .     A
C65    H99     1.083   .     S
C65    C423    1.383   1_545 S
C66    C67     1.401   .     A
C66    C75     1.450   .     S
C67    H100    1.083   .     S
C67    C428    1.383   1_545 S
C68    H101    1.083   .     S
C68    C69     1.402   .     A
C68    C247    1.383   .     S
C70    Cl89    1.755   .     S
C70    N108    1.379   .     A
C70    C131    1.415   .     S
C71    N107    1.361   .     A
C71    H102    1.082   .     S
C72    C82     1.415   .     A
C72    C621    1.413   .     S
C72    C623    1.421   .     S
C73    H103    1.082   .     S
C73    N107    1.368   .     A
C74    H104    1.082   .     S
C74    N108    1.368   .     A
C74    C133    1.419   .     S
C75    O116    1.293   .     A
C75    O115    1.295   .     A
C76    O118    1.302   .     A
C76    O117    1.294   .     A
C76    C78     1.467   .     S
C77    C88     1.395   .     A
C77    C624    1.399   1_554 S
C77    H646    1.079   1_554 S
C78    C88     1.399   .     A
C78    C87     1.401   .     A
C79    C80     1.392   .     A
C79    H94     1.083   .     S
C80    C621    1.388   .     S
C80    H636    1.078   .     S
C81    H95     1.077   .     S
C81    C620    1.388   1_554 S
C81    C612    1.413   1_554 S
C82    C86     1.412   .     A
C83    C87     1.399   .     A
C83    C612    1.421   1_554 S
C83    C624    1.417   1_554 S
C84    C85     1.395   .     A
C84    C623    1.417   .     S
C84    C617    1.399   .     S
C85    C86     1.392   .     A
C85    H105    1.084   .     S
C86    S120    1.770   .     S
C87    H93     1.074   .     S
C88    H92     1.083   .     S
Cu90   O115    1.965   .     S
Cu90   O113    1.954   .     S
Cu90   O109    1.964   .     S
Cu90   Cu91    2.687   .     S
Cu90   O117    1.945   .     S
Cu90   N107    2.019   .     S
Cu91   O112    1.965   .     S
Cu91   N108    2.019   .     S
Cu91   O118    1.954   .     S
Cu91   O114    1.945   .     S
Cu91   O116    1.964   .     S
H96    C620    1.078   1_554 S
H98    O111    0.991   .     S
H106   C617    1.079   .     S
O110   S120    1.503   .     D
O111   S120    1.677   .     S
O119   S120    1.502   .     D
C121   C129    1.450   .     S
C121   O172    1.295   .     A
C121   O169    1.293   .     A
C122   C142    1.422   .     A
C122   C124    1.485   .     S
C122   C139    1.403   .     A
C123   C129    1.401   .     A
C123   H157    1.083   .     S
C123   C305    1.383   .     S
C124   O173    1.305   .     A
C124   O174    1.298   .     A
C125   C126    1.402   .     A
C125   H159    1.083   .     S
C125   C483    1.383   1_545 S
C126   C127    1.401   .     A
C126   C135    1.450   .     S
C127   H160    1.083   .     S
C127   C488    1.383   1_545 S
C128   H161    1.083   .     S
C128   C129    1.402   .     A
C128   C307    1.383   .     S
C130   Cl149   1.755   .     S
C130   N168    1.379   .     A
C130   C11     1.415   1_655 S
C131   N167    1.361   .     A
C131   H162    1.082   .     S
C132   C142    1.415   .     A
C132   C681    1.413   .     S
C132   C683    1.421   .     S
C133   H163    1.082   .     S
C133   N167    1.368   .     A
C134   H164    1.082   .     S
C134   N168    1.368   .     A
C134   C13     1.419   1_655 S
C135   O176    1.293   .     A
C135   O175    1.295   .     A
C136   O178    1.302   .     A
C136   O177    1.294   .     A
C136   C138    1.467   .     S
C137   C148    1.395   .     A
C137   C684    1.399   1_554 S
C137   H706    1.079   1_554 S
C138   C148    1.399   .     A
C138   C147    1.401   .     A
C139   C140    1.392   .     A
C139   H154    1.083   .     S
C140   C681    1.388   .     S
C140   H696    1.078   .     S
C141   H155    1.077   .     S
C141   C680    1.388   1_554 S
C141   C672    1.413   1_554 S
C142   C146    1.412   .     A
C143   C147    1.399   .     A
C143   C672    1.421   1_554 S
C143   C684    1.417   1_554 S
C144   C145    1.395   .     A
C144   C683    1.417   .     S
C144   C677    1.399   .     S
C145   C146    1.392   .     A
C145   H165    1.084   .     S
C146   S180    1.770   .     S
C147   H153    1.074   .     S
C148   H152    1.083   .     S
Cu150  O175    1.965   .     S
Cu150  O173    1.954   .     S
Cu150  O169    1.964   .     S
Cu150  Cu151   2.687   .     S
Cu150  O177    1.945   .     S
Cu150  N167    2.019   .     S
Cu151  O172    1.965   .     S
Cu151  N168    2.019   .     S
Cu151  O178    1.954   .     S
Cu151  O174    1.945   .     S
Cu151  O176    1.964   .     S
H156   C680    1.078   1_554 S
H158   O171    0.991   .     S
H166   C677    1.079   .     S
O170   S180    1.503   .     D
O171   S180    1.677   .     S
O179   S180    1.502   .     D
C181   C189    1.450   .     S
C181   O232    1.295   .     A
C181   O229    1.293   .     A
C182   C202    1.422   .     A
C182   C184    1.485   .     S
C182   C199    1.403   .     A
C183   C189    1.401   .     A
C183   H217    1.083   .     S
C183   C365    1.383   .     S
C184   O233    1.305   .     A
C184   O234    1.298   .     A
C185   C186    1.402   .     A
C185   H219    1.083   .     S
C186   C187    1.401   .     A
C186   C195    1.450   .     S
C187   H220    1.083   .     S
C188   H221    1.083   .     S
C188   C189    1.402   .     A
C188   C367    1.383   .     S
C190   Cl209   1.755   .     S
C190   N228    1.379   .     A
C190   C251    1.415   .     S
C191   N227    1.361   .     A
C191   H222    1.082   .     S
C191   C310    1.415   1_455 S
C192   C202    1.415   .     A
C192   C741    1.413   .     S
C192   C743    1.421   .     S
C193   H223    1.082   .     S
C193   N227    1.368   .     A
C193   C314    1.419   1_455 S
C194   H224    1.082   .     S
C194   N228    1.368   .     A
C194   C253    1.419   .     S
C195   O236    1.293   .     A
C195   O235    1.295   .     A
C196   O238    1.302   .     A
C196   O237    1.294   .     A
C196   C198    1.467   .     S
C197   C208    1.395   .     A
C197   C744    1.399   1_554 S
C197   H766    1.079   1_554 S
C198   C208    1.399   .     A
C198   C207    1.401   .     A
C199   C200    1.392   .     A
C199   H214    1.083   .     S
C200   C741    1.388   .     S
C200   H756    1.078   .     S
C201   H215    1.077   .     S
C201   C740    1.388   1_554 S
C201   C732    1.413   1_554 S
C202   C206    1.412   .     A
C203   C207    1.399   .     A
C203   C732    1.421   1_554 S
C203   C744    1.417   1_554 S
C204   C205    1.395   .     A
C204   C743    1.417   .     S
C204   C737    1.399   .     S
C205   C206    1.392   .     A
C205   H225    1.084   .     S
C206   S240    1.770   .     S
C207   H213    1.074   .     S
C208   H212    1.083   .     S
Cu210  O235    1.965   .     S
Cu210  O233    1.954   .     S
Cu210  O229    1.964   .     S
Cu210  Cu211   2.687   .     S
Cu210  O237    1.945   .     S
Cu210  N227    2.019   .     S
Cu211  O232    1.965   .     S
Cu211  N228    2.019   .     S
Cu211  O238    1.954   .     S
Cu211  O234    1.945   .     S
Cu211  O236    1.964   .     S
H216   C740    1.078   1_554 S
H218   O231    0.991   .     S
H226   C737    1.079   .     S
O230   S240    1.503   .     D
O231   S240    1.677   .     S
O239   S240    1.502   .     D
C241   C249    1.450   .     S
C241   O292    1.295   .     A
C241   O289    1.293   .     A
C242   C262    1.422   .     A
C242   C244    1.485   .     S
C242   C259    1.403   .     A
C243   C249    1.401   .     A
C243   H277    1.083   .     S
C243   C425    1.383   .     S
C244   O293    1.305   .     A
C244   O294    1.298   .     A
C245   C246    1.402   .     A
C245   H279    1.083   .     S
C246   C247    1.401   .     A
C246   C255    1.450   .     S
C247   H280    1.083   .     S
C248   H281    1.083   .     S
C248   C249    1.402   .     A
C248   C427    1.383   .     S
C250   Cl269   1.755   .     S
C250   N288    1.379   .     A
C250   C311    1.415   .     S
C251   N287    1.361   .     A
C251   H282    1.082   .     S
C252   C262    1.415   .     A
C252   C801    1.413   .     S
C252   C803    1.421   .     S
C253   H283    1.082   .     S
C253   N287    1.368   .     A
C254   H284    1.082   .     S
C254   N288    1.368   .     A
C254   C313    1.419   .     S
C255   O296    1.293   .     A
C255   O295    1.295   .     A
C256   O298    1.302   .     A
C256   O297    1.294   .     A
C256   C258    1.467   .     S
C257   C268    1.395   .     A
C257   C804    1.399   1_554 S
C257   H826    1.079   1_554 S
C258   C268    1.399   .     A
C258   C267    1.401   .     A
C259   C260    1.392   .     A
C259   H274    1.083   .     S
C260   C801    1.388   .     S
C260   H816    1.078   .     S
C261   H275    1.077   .     S
C261   C800    1.388   1_554 S
C261   C792    1.413   1_554 S
C262   C266    1.412   .     A
C263   C267    1.399   .     A
C263   C792    1.421   1_554 S
C263   C804    1.417   1_554 S
C264   C265    1.395   .     A
C264   C803    1.417   .     S
C264   C797    1.399   .     S
C265   C266    1.392   .     A
C265   H285    1.084   .     S
C266   S300    1.770   .     S
C267   H273    1.074   .     S
C268   H272    1.083   .     S
Cu270  O295    1.965   .     S
Cu270  O293    1.954   .     S
Cu270  O289    1.964   .     S
Cu270  Cu271   2.687   .     S
Cu270  O297    1.945   .     S
Cu270  N287    2.019   .     S
Cu271  O292    1.965   .     S
Cu271  N288    2.019   .     S
Cu271  O298    1.954   .     S
Cu271  O294    1.945   .     S
Cu271  O296    1.964   .     S
H276   C800    1.078   1_554 S
H278   O291    0.991   .     S
H286   C797    1.079   .     S
O290   S300    1.503   .     D
O291   S300    1.677   .     S
O299   S300    1.502   .     D
C301   C309    1.450   .     S
C301   O352    1.295   .     A
C301   O349    1.293   .     A
C302   C322    1.422   .     A
C302   C304    1.485   .     S
C302   C319    1.403   .     A
C303   C309    1.401   .     A
C303   H337    1.083   .     S
C303   C485    1.383   .     S
C304   O353    1.305   .     A
C304   O354    1.298   .     A
C305   C306    1.402   .     A
C305   H339    1.083   .     S
C306   C307    1.401   .     A
C306   C315    1.450   .     S
C307   H340    1.083   .     S
C308   H341    1.083   .     S
C308   C309    1.402   .     A
C308   C487    1.383   .     S
C310   Cl329   1.755   .     S
C310   N348    1.379   .     A
C310   C191    1.415   1_655 S
C311   N347    1.361   .     A
C311   H342    1.082   .     S
C312   C322    1.415   .     A
C312   C861    1.413   .     S
C312   C863    1.421   .     S
C313   H343    1.082   .     S
C313   N347    1.368   .     A
C314   H344    1.082   .     S
C314   N348    1.368   .     A
C314   C193    1.419   1_655 S
C315   O356    1.293   .     A
C315   O355    1.295   .     A
C316   O358    1.302   .     A
C316   O357    1.294   .     A
C316   C318    1.467   .     S
C317   C328    1.395   .     A
C317   C864    1.399   1_554 S
C317   H886    1.079   1_554 S
C318   C328    1.399   .     A
C318   C327    1.401   .     A
C319   C320    1.392   .     A
C319   H334    1.083   .     S
C320   C861    1.388   .     S
C320   H876    1.078   .     S
C321   H335    1.077   .     S
C321   C860    1.388   1_554 S
C321   C852    1.413   1_554 S
C322   C326    1.412   .     A
C323   C327    1.399   .     A
C323   C852    1.421   1_554 S
C323   C864    1.417   1_554 S
C324   C325    1.395   .     A
C324   C863    1.417   .     S
C324   C857    1.399   .     S
C325   C326    1.392   .     A
C325   H345    1.084   .     S
C326   S360    1.770   .     S
C327   H333    1.074   .     S
C328   H332    1.083   .     S
Cu330  O355    1.965   .     S
Cu330  O353    1.954   .     S
Cu330  O349    1.964   .     S
Cu330  Cu331   2.687   .     S
Cu330  O357    1.945   .     S
Cu330  N347    2.019   .     S
Cu331  O352    1.965   .     S
Cu331  N348    2.019   .     S
Cu331  O358    1.954   .     S
Cu331  O354    1.945   .     S
Cu331  O356    1.964   .     S
H336   C860    1.078   1_554 S
H338   O351    0.991   .     S
H346   C857    1.079   .     S
O350   S360    1.503   .     D
O351   S360    1.677   .     S
O359   S360    1.502   .     D
C361   C369    1.450   .     S
C361   O412    1.295   .     A
C361   O409    1.293   .     A
C362   C382    1.422   .     A
C362   C364    1.485   .     S
C362   C379    1.403   .     A
C363   C369    1.401   .     A
C363   H397    1.083   .     S
C363   C5      1.383   1_565 S
C364   O413    1.305   .     A
C364   O414    1.298   .     A
C365   C366    1.402   .     A
C365   H399    1.083   .     S
C366   C367    1.401   .     A
C366   C375    1.450   .     S
C367   H400    1.083   .     S
C368   H401    1.083   .     S
C368   C369    1.402   .     A
C368   C7      1.383   1_565 S
C370   Cl389   1.755   .     S
C370   N408    1.379   .     A
C370   C431    1.415   .     S
C371   N407    1.361   .     A
C371   H402    1.082   .     S
C371   C490    1.415   1_455 S
C372   C382    1.415   .     A
C372   C921    1.413   .     S
C372   C923    1.421   .     S
C373   H403    1.082   .     S
C373   N407    1.368   .     A
C373   C494    1.419   1_455 S
C374   H404    1.082   .     S
C374   N408    1.368   .     A
C374   C433    1.419   .     S
C375   O416    1.293   .     A
C375   O415    1.295   .     A
C376   O418    1.302   .     A
C376   O417    1.294   .     A
C376   C378    1.467   .     S
C377   C388    1.395   .     A
C377   C924    1.399   1_554 S
C377   H946    1.079   1_554 S
C378   C388    1.399   .     A
C378   C387    1.401   .     A
C379   C380    1.392   .     A
C379   H394    1.083   .     S
C380   C921    1.388   .     S
C380   H936    1.078   .     S
C381   H395    1.077   .     S
C381   C920    1.388   1_554 S
C381   C912    1.413   1_554 S
C382   C386    1.412   .     A
C383   C387    1.399   .     A
C383   C912    1.421   1_554 S
C383   C924    1.417   1_554 S
C384   C385    1.395   .     A
C384   C923    1.417   .     S
C384   C917    1.399   .     S
C385   C386    1.392   .     A
C385   H405    1.084   .     S
C386   S420    1.770   .     S
C387   H393    1.074   .     S
C388   H392    1.083   .     S
Cu390  O415    1.965   .     S
Cu390  O413    1.954   .     S
Cu390  O409    1.964   .     S
Cu390  Cu391   2.687   .     S
Cu390  O417    1.945   .     S
Cu390  N407    2.019   .     S
Cu391  O412    1.965   .     S
Cu391  N408    2.019   .     S
Cu391  O418    1.954   .     S
Cu391  O414    1.945   .     S
Cu391  O416    1.964   .     S
H396   C920    1.078   1_554 S
H398   O411    0.991   .     S
H406   C917    1.079   .     S
O410   S420    1.503   .     D
O411   S420    1.677   .     S
O419   S420    1.502   .     D
C421   C429    1.450   .     S
C421   O472    1.295   .     A
C421   O469    1.293   .     A
C422   C442    1.422   .     A
C422   C424    1.485   .     S
C422   C439    1.403   .     A
C423   C429    1.401   .     A
C423   H457    1.083   .     S
C423   C65     1.383   1_565 S
C424   O473    1.305   .     A
C424   O474    1.298   .     A
C425   C426    1.402   .     A
C425   H459    1.083   .     S
C426   C427    1.401   .     A
C426   C435    1.450   .     S
C427   H460    1.083   .     S
C428   H461    1.083   .     S
C428   C429    1.402   .     A
C428   C67     1.383   1_565 S
C430   Cl449   1.755   .     S
C430   N468    1.379   .     A
C430   C491    1.415   .     S
C431   N467    1.361   .     A
C431   H462    1.082   .     S
C432   C442    1.415   .     A
C432   C981    1.413   .     S
C432   C983    1.421   .     S
C433   H463    1.082   .     S
C433   N467    1.368   .     A
C434   H464    1.082   .     S
C434   N468    1.368   .     A
C434   C493    1.419   .     S
C435   O476    1.293   .     A
C435   O475    1.295   .     A
C436   O478    1.302   .     A
C436   O477    1.294   .     A
C436   C438    1.467   .     S
C437   C448    1.395   .     A
C437   C984    1.399   1_554 S
C437   H1006   1.079   1_554 S
C438   C448    1.399   .     A
C438   C447    1.401   .     A
C439   C440    1.392   .     A
C439   H454    1.083   .     S
C440   C981    1.388   .     S
C440   H996    1.078   .     S
C441   H455    1.077   .     S
C441   C980    1.388   1_554 S
C441   C972    1.413   1_554 S
C442   C446    1.412   .     A
C443   C447    1.399   .     A
C443   C972    1.421   1_554 S
C443   C984    1.417   1_554 S
C444   C445    1.395   .     A
C444   C983    1.417   .     S
C444   C977    1.399   .     S
C445   C446    1.392   .     A
C445   H465    1.084   .     S
C446   S480    1.770   .     S
C447   H453    1.074   .     S
C448   H452    1.083   .     S
Cu450  O475    1.965   .     S
Cu450  O473    1.954   .     S
Cu450  O469    1.964   .     S
Cu450  Cu451   2.687   .     S
Cu450  O477    1.945   .     S
Cu450  N467    2.019   .     S
Cu451  O472    1.965   .     S
Cu451  N468    2.019   .     S
Cu451  O478    1.954   .     S
Cu451  O474    1.945   .     S
Cu451  O476    1.964   .     S
H456   C980    1.078   1_554 S
H458   O471    0.991   .     S
H466   C977    1.079   .     S
O470   S480    1.503   .     D
O471   S480    1.677   .     S
O479   S480    1.502   .     D
C481   C489    1.450   .     S
C481   O532    1.295   .     A
C481   O529    1.293   .     A
C482   C502    1.422   .     A
C482   C484    1.485   .     S
C482   C499    1.403   .     A
C483   C489    1.401   .     A
C483   H517    1.083   .     S
C483   C125    1.383   1_565 S
C484   O533    1.305   .     A
C484   O534    1.298   .     A
C485   C486    1.402   .     A
C485   H519    1.083   .     S
C486   C487    1.401   .     A
C486   C495    1.450   .     S
C487   H520    1.083   .     S
C488   H521    1.083   .     S
C488   C489    1.402   .     A
C488   C127    1.383   1_565 S
C490   Cl509   1.755   .     S
C490   N528    1.379   .     A
C490   C371    1.415   1_655 S
C491   N527    1.361   .     A
C491   H522    1.082   .     S
C492   C502    1.415   .     A
C492   C1041   1.413   .     S
C492   C1043   1.421   .     S
C493   H523    1.082   .     S
C493   N527    1.368   .     A
C494   H524    1.082   .     S
C494   N528    1.368   .     A
C494   C373    1.419   1_655 S
C495   O536    1.293   .     A
C495   O535    1.295   .     A
C496   O538    1.302   .     A
C496   O537    1.294   .     A
C496   C498    1.467   .     S
C497   C508    1.395   .     A
C497   C1044   1.399   1_554 S
C497   H1066   1.079   1_554 S
C498   C508    1.399   .     A
C498   C507    1.401   .     A
C499   C500    1.392   .     A
C499   H514    1.083   .     S
C500   C1041   1.388   .     S
C500   H1056   1.078   .     S
C501   H515    1.077   .     S
C501   C1040   1.388   1_554 S
C501   C1032   1.413   1_554 S
C502   C506    1.412   .     A
C503   C507    1.399   .     A
C503   C1032   1.421   1_554 S
C503   C1044   1.417   1_554 S
C504   C505    1.395   .     A
C504   C1043   1.417   .     S
C504   C1037   1.399   .     S
C505   C506    1.392   .     A
C505   H525    1.084   .     S
C506   S540    1.770   .     S
C507   H513    1.074   .     S
C508   H512    1.083   .     S
Cu510  O535    1.965   .     S
Cu510  O533    1.954   .     S
Cu510  O529    1.964   .     S
Cu510  Cu511   2.687   .     S
Cu510  O537    1.945   .     S
Cu510  N527    2.019   .     S
Cu511  O532    1.965   .     S
Cu511  N528    2.019   .     S
Cu511  O538    1.954   .     S
Cu511  O534    1.945   .     S
Cu511  O536    1.964   .     S
H516   C1040   1.078   1_554 S
H518   O531    0.991   .     S
H526   C1037   1.079   .     S
O530   S540    1.503   .     D
O531   S540    1.677   .     S
O539   S540    1.502   .     D
C541   C549    1.450   .     S
C541   O592    1.295   .     A
C541   O589    1.293   .     A
C542   C562    1.422   .     A
C542   C544    1.485   .     S
C542   C559    1.403   .     A
C543   C549    1.401   .     A
C543   H577    1.083   .     S
C543   C725    1.383   .     S
C544   O593    1.305   .     A
C544   O594    1.298   .     A
C545   C546    1.402   .     A
C545   H579    1.083   .     S
C545   C903    1.383   1_545 S
C546   C547    1.401   .     A
C546   C555    1.450   .     S
C547   H580    1.083   .     S
C547   C908    1.383   1_545 S
C548   H581    1.083   .     S
C548   C549    1.402   .     A
C548   C727    1.383   .     S
C550   Cl569   1.755   .     S
C550   N588    1.379   .     A
C550   C611    1.415   .     S
C551   N587    1.361   .     A
C551   H582    1.082   .     S
C551   C670    1.415   1_455 S
C552   C562    1.415   .     A
C552   C21     1.413   1_556 S
C552   C23     1.421   1_556 S
C553   H583    1.082   .     S
C553   N587    1.368   .     A
C553   C674    1.419   1_455 S
C554   H584    1.082   .     S
C554   N588    1.368   .     A
C554   C613    1.419   .     S
C555   O596    1.293   .     A
C555   O595    1.295   .     A
C556   O598    1.302   .     A
C556   O597    1.294   .     A
C556   C558    1.467   .     S
C557   C568    1.395   .     A
C558   C568    1.399   .     A
C558   C567    1.401   .     A
C559   C560    1.392   .     A
C559   H574    1.083   .     S
C560   C21     1.388   1_556 S
C560   H36     1.078   1_556 S
C561   H575    1.077   .     S
C562   C566    1.412   .     A
C563   C567    1.399   .     A
C564   C565    1.395   .     A
C564   C23     1.417   1_556 S
C564   C17     1.399   1_556 S
C565   C566    1.392   .     A
C565   H585    1.084   .     S
C566   S600    1.770   .     S
C567   H573    1.074   .     S
C568   H572    1.083   .     S
Cu570  O595    1.965   .     S
Cu570  O593    1.954   .     S
Cu570  O589    1.964   .     S
Cu570  Cu571   2.687   .     S
Cu570  O597    1.945   .     S
Cu570  N587    2.019   .     S
Cu571  O592    1.965   .     S
Cu571  N588    2.019   .     S
Cu571  O598    1.954   .     S
Cu571  O594    1.945   .     S
Cu571  O596    1.964   .     S
H578   O591    0.991   .     S
H586   C17     1.079   1_556 S
O590   S600    1.503   .     D
O591   S600    1.677   .     S
O599   S600    1.502   .     D
C601   C609    1.450   .     S
C601   O652    1.295   .     A
C601   O649    1.293   .     A
C602   C622    1.422   .     A
C602   C604    1.485   .     S
C602   C619    1.403   .     A
C603   C609    1.401   .     A
C603   H637    1.083   .     S
C603   C785    1.383   .     S
C604   O653    1.305   .     A
C604   O654    1.298   .     A
C605   C606    1.402   .     A
C605   H639    1.083   .     S
C605   C963    1.383   1_545 S
C606   C607    1.401   .     A
C606   C615    1.450   .     S
C607   H640    1.083   .     S
C607   C968    1.383   1_545 S
C608   H641    1.083   .     S
C608   C609    1.402   .     A
C608   C787    1.383   .     S
C610   Cl629   1.755   .     S
C610   N648    1.379   .     A
C610   C671    1.415   .     S
C611   N647    1.361   .     A
C611   H642    1.082   .     S
C612   C622    1.415   .     A
C612   C81     1.413   1_556 S
C612   C83     1.421   1_556 S
C613   H643    1.082   .     S
C613   N647    1.368   .     A
C614   H644    1.082   .     S
C614   N648    1.368   .     A
C614   C673    1.419   .     S
C615   O656    1.293   .     A
C615   O655    1.295   .     A
C616   O658    1.302   .     A
C616   O657    1.294   .     A
C616   C618    1.467   .     S
C617   C628    1.395   .     A
C618   C628    1.399   .     A
C618   C627    1.401   .     A
C619   C620    1.392   .     A
C619   H634    1.083   .     S
C620   C81     1.388   1_556 S
C620   H96     1.078   1_556 S
C621   H635    1.077   .     S
C622   C626    1.412   .     A
C623   C627    1.399   .     A
C624   C625    1.395   .     A
C624   C83     1.417   1_556 S
C624   C77     1.399   1_556 S
C625   C626    1.392   .     A
C625   H645    1.084   .     S
C626   S660    1.770   .     S
C627   H633    1.074   .     S
C628   H632    1.083   .     S
Cu630  O655    1.965   .     S
Cu630  O653    1.954   .     S
Cu630  O649    1.964   .     S
Cu630  Cu631   2.687   .     S
Cu630  O657    1.945   .     S
Cu630  N647    2.019   .     S
Cu631  O652    1.965   .     S
Cu631  N648    2.019   .     S
Cu631  O658    1.954   .     S
Cu631  O654    1.945   .     S
Cu631  O656    1.964   .     S
H638   O651    0.991   .     S
H646   C77     1.079   1_556 S
O650   S660    1.503   .     D
O651   S660    1.677   .     S
O659   S660    1.502   .     D
C661   C669    1.450   .     S
C661   O712    1.295   .     A
C661   O709    1.293   .     A
C662   C682    1.422   .     A
C662   C664    1.485   .     S
C662   C679    1.403   .     A
C663   C669    1.401   .     A
C663   H697    1.083   .     S
C663   C845    1.383   .     S
C664   O713    1.305   .     A
C664   O714    1.298   .     A
C665   C666    1.402   .     A
C665   H699    1.083   .     S
C665   C1023   1.383   1_545 S
C666   C667    1.401   .     A
C666   C675    1.450   .     S
C667   H700    1.083   .     S
C667   C1028   1.383   1_545 S
C668   H701    1.083   .     S
C668   C669    1.402   .     A
C668   C847    1.383   .     S
C670   Cl689   1.755   .     S
C670   N708    1.379   .     A
C670   C551    1.415   1_655 S
C671   N707    1.361   .     A
C671   H702    1.082   .     S
C672   C682    1.415   .     A
C672   C141    1.413   1_556 S
C672   C143    1.421   1_556 S
C673   H703    1.082   .     S
C673   N707    1.368   .     A
C674   H704    1.082   .     S
C674   N708    1.368   .     A
C674   C553    1.419   1_655 S
C675   O716    1.293   .     A
C675   O715    1.295   .     A
C676   O718    1.302   .     A
C676   O717    1.294   .     A
C676   C678    1.467   .     S
C677   C688    1.395   .     A
C678   C688    1.399   .     A
C678   C687    1.401   .     A
C679   C680    1.392   .     A
C679   H694    1.083   .     S
C680   C141    1.388   1_556 S
C680   H156    1.078   1_556 S
C681   H695    1.077   .     S
C682   C686    1.412   .     A
C683   C687    1.399   .     A
C684   C685    1.395   .     A
C684   C143    1.417   1_556 S
C684   C137    1.399   1_556 S
C685   C686    1.392   .     A
C685   H705    1.084   .     S
C686   S720    1.770   .     S
C687   H693    1.074   .     S
C688   H692    1.083   .     S
Cu690  O715    1.965   .     S
Cu690  O713    1.954   .     S
Cu690  O709    1.964   .     S
Cu690  Cu691   2.687   .     S
Cu690  O717    1.945   .     S
Cu690  N707    2.019   .     S
Cu691  O712    1.965   .     S
Cu691  N708    2.019   .     S
Cu691  O718    1.954   .     S
Cu691  O714    1.945   .     S
Cu691  O716    1.964   .     S
H698   O711    0.991   .     S
H706   C137    1.079   1_556 S
O710   S720    1.503   .     D
O711   S720    1.677   .     S
O719   S720    1.502   .     D
C721   C729    1.450   .     S
C721   O772    1.295   .     A
C721   O769    1.293   .     A
C722   C742    1.422   .     A
C722   C724    1.485   .     S
C722   C739    1.403   .     A
C723   C729    1.401   .     A
C723   H757    1.083   .     S
C723   C905    1.383   .     S
C724   O773    1.305   .     A
C724   O774    1.298   .     A
C725   C726    1.402   .     A
C725   H759    1.083   .     S
C726   C727    1.401   .     A
C726   C735    1.450   .     S
C727   H760    1.083   .     S
C728   H761    1.083   .     S
C728   C729    1.402   .     A
C728   C907    1.383   .     S
C730   Cl749   1.755   .     S
C730   N768    1.379   .     A
C730   C791    1.415   .     S
C731   N767    1.361   .     A
C731   H762    1.082   .     S
C731   C850    1.415   1_455 S
C732   C742    1.415   .     A
C732   C201    1.413   1_556 S
C732   C203    1.421   1_556 S
C733   H763    1.082   .     S
C733   N767    1.368   .     A
C733   C854    1.419   1_455 S
C734   H764    1.082   .     S
C734   N768    1.368   .     A
C734   C793    1.419   .     S
C735   O776    1.293   .     A
C735   O775    1.295   .     A
C736   O778    1.302   .     A
C736   O777    1.294   .     A
C736   C738    1.467   .     S
C737   C748    1.395   .     A
C738   C748    1.399   .     A
C738   C747    1.401   .     A
C739   C740    1.392   .     A
C739   H754    1.083   .     S
C740   C201    1.388   1_556 S
C740   H216    1.078   1_556 S
C741   H755    1.077   .     S
C742   C746    1.412   .     A
C743   C747    1.399   .     A
C744   C745    1.395   .     A
C744   C203    1.417   1_556 S
C744   C197    1.399   1_556 S
C745   C746    1.392   .     A
C745   H765    1.084   .     S
C746   S780    1.770   .     S
C747   H753    1.074   .     S
C748   H752    1.083   .     S
Cu750  O775    1.965   .     S
Cu750  O773    1.954   .     S
Cu750  O769    1.964   .     S
Cu750  Cu751   2.687   .     S
Cu750  O777    1.945   .     S
Cu750  N767    2.019   .     S
Cu751  O772    1.965   .     S
Cu751  N768    2.019   .     S
Cu751  O778    1.954   .     S
Cu751  O774    1.945   .     S
Cu751  O776    1.964   .     S
H758   O771    0.991   .     S
H766   C197    1.079   1_556 S
O770   S780    1.503   .     D
O771   S780    1.677   .     S
O779   S780    1.502   .     D
C781   C789    1.450   .     S
C781   O832    1.295   .     A
C781   O829    1.293   .     A
C782   C802    1.422   .     A
C782   C784    1.485   .     S
C782   C799    1.403   .     A
C783   C789    1.401   .     A
C783   H817    1.083   .     S
C783   C965    1.383   .     S
C784   O833    1.305   .     A
C784   O834    1.298   .     A
C785   C786    1.402   .     A
C785   H819    1.083   .     S
C786   C787    1.401   .     A
C786   C795    1.450   .     S
C787   H820    1.083   .     S
C788   H821    1.083   .     S
C788   C789    1.402   .     A
C788   C967    1.383   .     S
C790   Cl809   1.755   .     S
C790   N828    1.379   .     A
C790   C851    1.415   .     S
C791   N827    1.361   .     A
C791   H822    1.082   .     S
C792   C802    1.415   .     A
C792   C261    1.413   1_556 S
C792   C263    1.421   1_556 S
C793   H823    1.082   .     S
C793   N827    1.368   .     A
C794   H824    1.082   .     S
C794   N828    1.368   .     A
C794   C853    1.419   .     S
C795   O836    1.293   .     A
C795   O835    1.295   .     A
C796   O838    1.302   .     A
C796   O837    1.294   .     A
C796   C798    1.467   .     S
C797   C808    1.395   .     A
C798   C808    1.399   .     A
C798   C807    1.401   .     A
C799   C800    1.392   .     A
C799   H814    1.083   .     S
C800   C261    1.388   1_556 S
C800   H276    1.078   1_556 S
C801   H815    1.077   .     S
C802   C806    1.412   .     A
C803   C807    1.399   .     A
C804   C805    1.395   .     A
C804   C263    1.417   1_556 S
C804   C257    1.399   1_556 S
C805   C806    1.392   .     A
C805   H825    1.084   .     S
C806   S840    1.770   .     S
C807   H813    1.074   .     S
C808   H812    1.083   .     S
Cu810  O835    1.965   .     S
Cu810  O833    1.954   .     S
Cu810  O829    1.964   .     S
Cu810  Cu811   2.687   .     S
Cu810  O837    1.945   .     S
Cu810  N827    2.019   .     S
Cu811  O832    1.965   .     S
Cu811  N828    2.019   .     S
Cu811  O838    1.954   .     S
Cu811  O834    1.945   .     S
Cu811  O836    1.964   .     S
H818   O831    0.991   .     S
H826   C257    1.079   1_556 S
O830   S840    1.503   .     D
O831   S840    1.677   .     S
O839   S840    1.502   .     D
C841   C849    1.450   .     S
C841   O892    1.295   .     A
C841   O889    1.293   .     A
C842   C862    1.422   .     A
C842   C844    1.485   .     S
C842   C859    1.403   .     A
C843   C849    1.401   .     A
C843   H877    1.083   .     S
C843   C1025   1.383   .     S
C844   O893    1.305   .     A
C844   O894    1.298   .     A
C845   C846    1.402   .     A
C845   H879    1.083   .     S
C846   C847    1.401   .     A
C846   C855    1.450   .     S
C847   H880    1.083   .     S
C848   H881    1.083   .     S
C848   C849    1.402   .     A
C848   C1027   1.383   .     S
C850   Cl869   1.755   .     S
C850   N888    1.379   .     A
C850   C731    1.415   1_655 S
C851   N887    1.361   .     A
C851   H882    1.082   .     S
C852   C862    1.415   .     A
C852   C321    1.413   1_556 S
C852   C323    1.421   1_556 S
C853   H883    1.082   .     S
C853   N887    1.368   .     A
C854   H884    1.082   .     S
C854   N888    1.368   .     A
C854   C733    1.419   1_655 S
C855   O896    1.293   .     A
C855   O895    1.295   .     A
C856   O898    1.302   .     A
C856   O897    1.294   .     A
C856   C858    1.467   .     S
C857   C868    1.395   .     A
C858   C868    1.399   .     A
C858   C867    1.401   .     A
C859   C860    1.392   .     A
C859   H874    1.083   .     S
C860   C321    1.388   1_556 S
C860   H336    1.078   1_556 S
C861   H875    1.077   .     S
C862   C866    1.412   .     A
C863   C867    1.399   .     A
C864   C865    1.395   .     A
C864   C323    1.417   1_556 S
C864   C317    1.399   1_556 S
C865   C866    1.392   .     A
C865   H885    1.084   .     S
C866   S900    1.770   .     S
C867   H873    1.074   .     S
C868   H872    1.083   .     S
Cu870  O895    1.965   .     S
Cu870  O893    1.954   .     S
Cu870  O889    1.964   .     S
Cu870  Cu871   2.687   .     S
Cu870  O897    1.945   .     S
Cu870  N887    2.019   .     S
Cu871  O892    1.965   .     S
Cu871  N888    2.019   .     S
Cu871  O898    1.954   .     S
Cu871  O894    1.945   .     S
Cu871  O896    1.964   .     S
H878   O891    0.991   .     S
H886   C317    1.079   1_556 S
O890   S900    1.503   .     D
O891   S900    1.677   .     S
O899   S900    1.502   .     D
C901   C909    1.450   .     S
C901   O952    1.295   .     A
C901   O949    1.293   .     A
C902   C922    1.422   .     A
C902   C904    1.485   .     S
C902   C919    1.403   .     A
C903   C909    1.401   .     A
C903   H937    1.083   .     S
C903   C545    1.383   1_565 S
C904   O953    1.305   .     A
C904   O954    1.298   .     A
C905   C906    1.402   .     A
C905   H939    1.083   .     S
C906   C907    1.401   .     A
C906   C915    1.450   .     S
C907   H940    1.083   .     S
C908   H941    1.083   .     S
C908   C909    1.402   .     A
C908   C547    1.383   1_565 S
C910   Cl929   1.755   .     S
C910   N948    1.379   .     A
C910   C971    1.415   .     S
C911   N947    1.361   .     A
C911   H942    1.082   .     S
C911   C1030   1.415   1_455 S
C912   C922    1.415   .     A
C912   C381    1.413   1_556 S
C912   C383    1.421   1_556 S
C913   H943    1.082   .     S
C913   N947    1.368   .     A
C913   C1034   1.419   1_455 S
C914   H944    1.082   .     S
C914   N948    1.368   .     A
C914   C973    1.419   .     S
C915   O956    1.293   .     A
C915   O955    1.295   .     A
C916   O958    1.302   .     A
C916   O957    1.294   .     A
C916   C918    1.467   .     S
C917   C928    1.395   .     A
C918   C928    1.399   .     A
C918   C927    1.401   .     A
C919   C920    1.392   .     A
C919   H934    1.083   .     S
C920   C381    1.388   1_556 S
C920   H396    1.078   1_556 S
C921   H935    1.077   .     S
C922   C926    1.412   .     A
C923   C927    1.399   .     A
C924   C925    1.395   .     A
C924   C383    1.417   1_556 S
C924   C377    1.399   1_556 S
C925   C926    1.392   .     A
C925   H945    1.084   .     S
C926   S960    1.770   .     S
C927   H933    1.074   .     S
C928   H932    1.083   .     S
Cu930  O955    1.965   .     S
Cu930  O953    1.954   .     S
Cu930  O949    1.964   .     S
Cu930  Cu931   2.687   .     S
Cu930  O957    1.945   .     S
Cu930  N947    2.019   .     S
Cu931  O952    1.965   .     S
Cu931  N948    2.019   .     S
Cu931  O958    1.954   .     S
Cu931  O954    1.945   .     S
Cu931  O956    1.964   .     S
H938   O951    0.991   .     S
H946   C377    1.079   1_556 S
O950   S960    1.503   .     D
O951   S960    1.677   .     S
O959   S960    1.502   .     D
C961   C969    1.450   .     S
C961   O1012   1.295   .     A
C961   O1009   1.293   .     A
C962   C982    1.422   .     A
C962   C964    1.485   .     S
C962   C979    1.403   .     A
C963   C969    1.401   .     A
C963   H997    1.083   .     S
C963   C605    1.383   1_565 S
C964   O1013   1.305   .     A
C964   O1014   1.298   .     A
C965   C966    1.402   .     A
C965   H999    1.083   .     S
C966   C967    1.401   .     A
C966   C975    1.450   .     S
C967   H1000   1.083   .     S
C968   H1001   1.083   .     S
C968   C969    1.402   .     A
C968   C607    1.383   1_565 S
C970   Cl989   1.755   .     S
C970   N1008   1.379   .     A
C970   C1031   1.415   .     S
C971   N1007   1.361   .     A
C971   H1002   1.082   .     S
C972   C982    1.415   .     A
C972   C441    1.413   1_556 S
C972   C443    1.421   1_556 S
C973   H1003   1.082   .     S
C973   N1007   1.368   .     A
C974   H1004   1.082   .     S
C974   N1008   1.368   .     A
C974   C1033   1.419   .     S
C975   O1016   1.293   .     A
C975   O1015   1.295   .     A
C976   O1018   1.302   .     A
C976   O1017   1.294   .     A
C976   C978    1.467   .     S
C977   C988    1.395   .     A
C978   C988    1.399   .     A
C978   C987    1.401   .     A
C979   C980    1.392   .     A
C979   H994    1.083   .     S
C980   C441    1.388   1_556 S
C980   H456    1.078   1_556 S
C981   H995    1.077   .     S
C982   C986    1.412   .     A
C983   C987    1.399   .     A
C984   C985    1.395   .     A
C984   C443    1.417   1_556 S
C984   C437    1.399   1_556 S
C985   C986    1.392   .     A
C985   H1005   1.084   .     S
C986   S1020   1.770   .     S
C987   H993    1.074   .     S
C988   H992    1.083   .     S
Cu990  O1015   1.965   .     S
Cu990  O1013   1.954   .     S
Cu990  O1009   1.964   .     S
Cu990  Cu991   2.687   .     S
Cu990  O1017   1.945   .     S
Cu990  N1007   2.019   .     S
Cu991  O1012   1.965   .     S
Cu991  N1008   2.019   .     S
Cu991  O1018   1.954   .     S
Cu991  O1014   1.945   .     S
Cu991  O1016   1.964   .     S
H998   O1011   0.991   .     S
H1006  C437    1.079   1_556 S
O1010  S1020   1.503   .     D
O1011  S1020   1.677   .     S
O1019  S1020   1.502   .     D
C1021  C1029   1.450   .     S
C1021  O1072   1.295   .     A
C1021  O1069   1.293   .     A
C1022  C1042   1.422   .     A
C1022  C1024   1.485   .     S
C1022  C1039   1.403   .     A
C1023  C1029   1.401   .     A
C1023  H1057   1.083   .     S
C1023  C665    1.383   1_565 S
C1024  O1073   1.305   .     A
C1024  O1074   1.298   .     A
C1025  C1026   1.402   .     A
C1025  H1059   1.083   .     S
C1026  C1027   1.401   .     A
C1026  C1035   1.450   .     S
C1027  H1060   1.083   .     S
C1028  H1061   1.083   .     S
C1028  C1029   1.402   .     A
C1028  C667    1.383   1_565 S
C1030  Cl1049  1.755   .     S
C1030  N1068   1.379   .     A
C1030  C911    1.415   1_655 S
C1031  N1067   1.361   .     A
C1031  H1062   1.082   .     S
C1032  C1042   1.415   .     A
C1032  C501    1.413   1_556 S
C1032  C503    1.421   1_556 S
C1033  H1063   1.082   .     S
C1033  N1067   1.368   .     A
C1034  H1064   1.082   .     S
C1034  N1068   1.368   .     A
C1034  C913    1.419   1_655 S
C1035  O1076   1.293   .     A
C1035  O1075   1.295   .     A
C1036  O1078   1.302   .     A
C1036  O1077   1.294   .     A
C1036  C1038   1.467   .     S
C1037  C1048   1.395   .     A
C1038  C1048   1.399   .     A
C1038  C1047   1.401   .     A
C1039  C1040   1.392   .     A
C1039  H1054   1.083   .     S
C1040  C501    1.388   1_556 S
C1040  H516    1.078   1_556 S
C1041  H1055   1.077   .     S
C1042  C1046   1.412   .     A
C1043  C1047   1.399   .     A
C1044  C1045   1.395   .     A
C1044  C503    1.417   1_556 S
C1044  C497    1.399   1_556 S
C1045  C1046   1.392   .     A
C1045  H1065   1.084   .     S
C1046  S1080   1.770   .     S
C1047  H1053   1.074   .     S
C1048  H1052   1.083   .     S
Cu1050 O1075   1.965   .     S
Cu1050 O1073   1.954   .     S
Cu1050 O1069   1.964   .     S
Cu1050 Cu1051  2.687   .     S
Cu1050 O1077   1.945   .     S
Cu1050 N1067   2.019   .     S
Cu1051 O1072   1.965   .     S
Cu1051 N1068   2.019   .     S
Cu1051 O1078   1.954   .     S
Cu1051 O1074   1.945   .     S
Cu1051 O1076   1.964   .     S
H1058  O1071   0.991   .     S
H1066  C497    1.079   1_556 S
O1070  S1080   1.503   .     D
O1071  S1080   1.677   .     S
O1079  S1080   1.502   .     D
