data_str_m3_o1_o16_pcu_sym.267
_audit_creation_date              2020-01-03
_audit_creation_method            'Materials Studio'
_symmetry_space_group_name_H-M    'P1'
_symmetry_Int_Tables_number       1
_symmetry_cell_setting            triclinic
loop_
_symmetry_equiv_pos_as_xyz
  x,y,z
_cell_length_a                    29.4995
_cell_length_b                    32.0813
_cell_length_c                    26.3177
_cell_angle_alpha                 90.1170
_cell_angle_beta                  71.1683
_cell_angle_gamma                 89.9693
loop_
_atom_site_label
_atom_site_type_symbol
_atom_site_fract_x
_atom_site_fract_y
_atom_site_fract_z
_atom_site_U_iso_or_equiv
_atom_site_adp_type
_atom_site_occupancy
C1     C     0.16628   0.24671   0.25120   0.00000  Uiso   1.00
C2     C     0.14417   0.18461   0.49234   0.00000  Uiso   1.00
C3     C     0.15549   0.19017   0.43666   0.00000  Uiso   1.00
C4     C     0.18048   0.19174   0.01549   0.00000  Uiso   1.00
C5     C     0.22838   0.19762   0.48267   0.00000  Uiso   1.00
C6     C     0.23714   0.20974   0.42967   0.00000  Uiso   1.00
C7     C     0.19955   0.20947   0.40847   0.00000  Uiso   1.00
C8     C     0.17087   0.19268   0.07068   0.00000  Uiso   1.00
C9     C     0.25489   0.18067   0.05819   0.00000  Uiso   1.00
C10    C     0.12369   0.17478   0.41058   0.00000  Uiso   1.00
C11    C     0.20124   0.31199   0.26702   0.00000  Uiso   1.00
C12    C     0.14037   0.16934   0.35198   0.00000  Uiso   1.00
C13    C     0.20101   0.02138   0.26740   0.00000  Uiso   1.00
C14    C     0.16521   0.04251   0.25371   0.00000  Uiso   1.00
C15    C     0.12813   0.02133   0.24263   0.00000  Uiso   1.00
C16    C     0.12789   0.31205   0.24314   0.00000  Uiso   1.00
C17    C     0.16516   0.29085   0.25388   0.00000  Uiso   1.00
C18    C     0.31854   0.13991   0.21714   0.00000  Uiso   1.00
C19    C     0.03362   0.14040   0.21703   0.00000  Uiso   1.00
C20    C     0.01477   0.19343   0.28215   0.00000  Uiso   1.00
C21    C     0.30040   0.19374   0.28163   0.00000  Uiso   1.00
C22    C     0.16631   0.08663   0.25104   0.00000  Uiso   1.00
C23    C     0.19267   0.16963   0.14830   0.00000  Uiso   1.00
C24    C     0.26571   0.19254   0.00442   0.00000  Uiso   1.00
C25    C     0.20691   0.18008   0.09145   0.00000  Uiso   1.00
C26    C     0.07795   0.15986   0.44134   0.00000  Uiso   1.00
C27    C     0.06559   0.15792   0.49707   0.00000  Uiso   1.00
C28    C     0.09881   0.16843   0.02215   0.00000  Uiso   1.00
H29    H     0.28358   0.17386   0.07420   0.00000  Uiso   1.00
H30    H     0.22887   0.03774   0.27791   0.00000  Uiso   1.00
H31    H     0.09991   0.03753   0.23258   0.00000  Uiso   1.00
H32    H     0.09951   0.29585   0.23342   0.00000  Uiso   1.00
H33    H     0.06011   0.12035   0.19010   0.00000  Uiso   1.00
H34    H     0.02557   0.21496   0.30778   0.00000  Uiso   1.00
H35    H     0.27563   0.21630   0.30566   0.00000  Uiso   1.00
H36    H     0.27251   0.21965   0.40508   0.00000  Uiso   1.00
H37    H     0.30274   0.19599   0.47957   0.00000  Uiso   1.00
H38    H     0.08900   0.16192   0.06457   0.00000  Uiso   1.00
H39    H     0.03090   0.14599   0.02077   0.00000  Uiso   1.00
H40    H     0.20565   0.22296   0.36937   0.00000  Uiso   1.00
H41    H     0.22951   0.29564   0.27678   0.00000  Uiso   1.00
N42    N     0.04760   0.16668   0.25002   0.00000  Uiso   1.00
N43    N     0.28573   0.16665   0.25001   0.00000  Uiso   1.00
O44    O     0.12846   0.22775   0.25001   0.00000  Uiso   1.00
O45    O     0.20490   0.22774   0.25001   0.00000  Uiso   1.00
O46    O     0.10947   0.16666   0.32681   0.00000  Uiso   1.00
O47    O     0.18591   0.16665   0.32681   0.00000  Uiso   1.00
O48    O     0.12843   0.10559   0.25000   0.00000  Uiso   1.00
O49    O     0.20488   0.10558   0.25000   0.00000  Uiso   1.00
O50    O     0.14742   0.16668   0.17319   0.00000  Uiso   1.00
O51    O     0.22387   0.16667   0.17319   0.00000  Uiso   1.00
Zn52   Zn    0.11562   0.16667   0.25000   0.00000  Uiso   1.00
Zn53   Zn    0.21771   0.16666   0.25000   0.00000  Uiso   1.00
O54    O     0.30509   0.11663   0.17998   0.00000  Uiso   1.00
C55    C     0.31537   0.07372   0.18258   0.00000  Uiso   1.00
H56    H     0.28148   0.05646   0.18859   0.00000  Uiso   1.00
H57    H     0.32831   0.06495   0.21660   0.00000  Uiso   1.00
C58    C     0.01795   0.05939   0.12921   0.00000  Uiso   1.00
H59    H     0.00549   0.06953   0.09556   0.00000  Uiso   1.00
H60    H     0.05344   0.07380   0.12364   0.00000  Uiso   1.00
C61    C     0.02327   0.01202   0.12735   0.00000  Uiso   1.00
H62    H     0.03443   0.00093   0.16148   0.00000  Uiso   1.00
H63    H     0.05080   0.00257   0.08916   0.00000  Uiso   1.00
H64    H     0.32210   0.33037   0.12947   0.00000  Uiso   1.00
O65    O     0.12827   0.20945   0.10458   0.00000  Uiso   1.00
C66    C     0.12462   0.25247   0.09375   0.00000  Uiso   1.00
H67    H     0.08961   0.26361   0.12126   0.00000  Uiso   1.00
H68    H     0.12374   0.25756   0.05228   0.00000  Uiso   1.00
C69    C     0.16466   0.27869   0.10380   0.00000  Uiso   1.00
H70    H     0.16759   0.27076   0.14359   0.00000  Uiso   1.00
H71    H     0.19953   0.27152   0.07278   0.00000  Uiso   1.00
C72    C     0.15521   0.32530   0.10164   0.00000  Uiso   1.00
H73    H     0.15225   0.00044   0.06193   0.00000  Uiso   1.00
H74    H     0.18523   0.00977   0.10796   0.00000  Uiso   1.00
H75    H     0.12168   0.00077   0.13366   0.00000  Uiso   1.00
O76    O     0.04481   0.14789   0.41706   0.00000  Uiso   1.00
C77    C     0.04504   0.10400   0.41264   0.00000  Uiso   1.00
H78    H     0.02775   0.08983   0.45285   0.00000  Uiso   1.00
H79    H     0.08227   0.09161   0.39530   0.00000  Uiso   1.00
C80    C     0.01684   0.09163   0.37538   0.00000  Uiso   1.00
H81    H     0.31272   0.10312   0.39231   0.00000  Uiso   1.00
H82    H     0.03338   0.10634   0.33549   0.00000  Uiso   1.00
C83    C     0.01637   0.04445   0.36805   0.00000  Uiso   1.00
H84    H     0.05351   0.03239   0.35077   0.00000  Uiso   1.00
H85    H     0.32956   0.03665   0.34021   0.00000  Uiso   1.00
H86    H     0.33204   0.02904   0.40722   0.00000  Uiso   1.00
C87    C     0.49962   0.24671   0.25120   0.00000  Uiso   1.00
C88    C     0.47750   0.18461   0.49234   0.00000  Uiso   1.00
C89    C     0.48882   0.19017   0.43666   0.00000  Uiso   1.00
C90    C     0.51382   0.19174   0.01549   0.00000  Uiso   1.00
C91    C     0.56172   0.19762   0.48267   0.00000  Uiso   1.00
C92    C     0.57047   0.20974   0.42967   0.00000  Uiso   1.00
C93    C     0.53289   0.20947   0.40847   0.00000  Uiso   1.00
C94    C     0.50420   0.19268   0.07068   0.00000  Uiso   1.00
C95    C     0.58823   0.18067   0.05819   0.00000  Uiso   1.00
C96    C     0.45702   0.17478   0.41058   0.00000  Uiso   1.00
C97    C     0.53458   0.31199   0.26702   0.00000  Uiso   1.00
C98    C     0.47371   0.16934   0.35198   0.00000  Uiso   1.00
C99    C     0.53435   0.02138   0.26740   0.00000  Uiso   1.00
C100   C     0.49855   0.04251   0.25371   0.00000  Uiso   1.00
C101   C     0.46146   0.02133   0.24263   0.00000  Uiso   1.00
C102   C     0.46123   0.31205   0.24314   0.00000  Uiso   1.00
C103   C     0.49849   0.29085   0.25388   0.00000  Uiso   1.00
C104   C     0.65188   0.13991   0.21714   0.00000  Uiso   1.00
C105   C     0.36695   0.14040   0.21703   0.00000  Uiso   1.00
C106   C     0.34810   0.19343   0.28215   0.00000  Uiso   1.00
C107   C     0.63373   0.19374   0.28163   0.00000  Uiso   1.00
C108   C     0.49965   0.08663   0.25104   0.00000  Uiso   1.00
C109   C     0.52601   0.16963   0.14830   0.00000  Uiso   1.00
C110   C     0.59905   0.19254   0.00442   0.00000  Uiso   1.00
C111   C     0.54024   0.18008   0.09145   0.00000  Uiso   1.00
C112   C     0.41128   0.15986   0.44134   0.00000  Uiso   1.00
C113   C     0.39892   0.15792   0.49707   0.00000  Uiso   1.00
C114   C     0.43214   0.16843   0.02215   0.00000  Uiso   1.00
H115   H     0.61691   0.17386   0.07420   0.00000  Uiso   1.00
H116   H     0.56221   0.03774   0.27791   0.00000  Uiso   1.00
H117   H     0.43324   0.03753   0.23258   0.00000  Uiso   1.00
H118   H     0.43285   0.29585   0.23342   0.00000  Uiso   1.00
H119   H     0.39345   0.12035   0.19010   0.00000  Uiso   1.00
H120   H     0.35891   0.21496   0.30778   0.00000  Uiso   1.00
H121   H     0.60897   0.21630   0.30566   0.00000  Uiso   1.00
H122   H     0.60584   0.21965   0.40508   0.00000  Uiso   1.00
H123   H     0.63607   0.19599   0.47957   0.00000  Uiso   1.00
H124   H     0.42233   0.16192   0.06457   0.00000  Uiso   1.00
H125   H     0.36424   0.14599   0.02077   0.00000  Uiso   1.00
H126   H     0.53899   0.22296   0.36937   0.00000  Uiso   1.00
H127   H     0.56284   0.29564   0.27678   0.00000  Uiso   1.00
N128   N     0.38093   0.16668   0.25002   0.00000  Uiso   1.00
N129   N     0.61906   0.16665   0.25001   0.00000  Uiso   1.00
O130   O     0.46179   0.22775   0.25001   0.00000  Uiso   1.00
O131   O     0.53823   0.22774   0.25001   0.00000  Uiso   1.00
O132   O     0.44280   0.16666   0.32681   0.00000  Uiso   1.00
O133   O     0.51924   0.16665   0.32681   0.00000  Uiso   1.00
O134   O     0.46177   0.10559   0.25000   0.00000  Uiso   1.00
O135   O     0.53821   0.10558   0.25000   0.00000  Uiso   1.00
O136   O     0.48076   0.16668   0.17319   0.00000  Uiso   1.00
O137   O     0.55720   0.16667   0.17319   0.00000  Uiso   1.00
Zn138  Zn    0.44896   0.16667   0.25000   0.00000  Uiso   1.00
Zn139  Zn    0.55104   0.16666   0.25000   0.00000  Uiso   1.00
O140   O     0.63842   0.11663   0.17998   0.00000  Uiso   1.00
C141   C     0.64870   0.07372   0.18258   0.00000  Uiso   1.00
H142   H     0.61481   0.05646   0.18859   0.00000  Uiso   1.00
H143   H     0.66165   0.06495   0.21660   0.00000  Uiso   1.00
C144   C     0.35128   0.05939   0.12921   0.00000  Uiso   1.00
H145   H     0.33882   0.06953   0.09556   0.00000  Uiso   1.00
H146   H     0.38677   0.07380   0.12364   0.00000  Uiso   1.00
C147   C     0.35660   0.01202   0.12735   0.00000  Uiso   1.00
H148   H     0.36776   0.00093   0.16148   0.00000  Uiso   1.00
H149   H     0.38413   0.00257   0.08916   0.00000  Uiso   1.00
H150   H     0.65543   0.33037   0.12947   0.00000  Uiso   1.00
O151   O     0.46160   0.20945   0.10458   0.00000  Uiso   1.00
C152   C     0.45795   0.25247   0.09375   0.00000  Uiso   1.00
H153   H     0.42295   0.26361   0.12126   0.00000  Uiso   1.00
H154   H     0.45708   0.25756   0.05228   0.00000  Uiso   1.00
C155   C     0.49799   0.27869   0.10380   0.00000  Uiso   1.00
H156   H     0.50093   0.27076   0.14359   0.00000  Uiso   1.00
H157   H     0.53286   0.27152   0.07278   0.00000  Uiso   1.00
C158   C     0.48854   0.32530   0.10164   0.00000  Uiso   1.00
H159   H     0.48559   0.00044   0.06193   0.00000  Uiso   1.00
H160   H     0.51856   0.00977   0.10796   0.00000  Uiso   1.00
H161   H     0.45501   0.00077   0.13366   0.00000  Uiso   1.00
O162   O     0.37815   0.14789   0.41706   0.00000  Uiso   1.00
C163   C     0.37838   0.10400   0.41264   0.00000  Uiso   1.00
H164   H     0.36108   0.08983   0.45285   0.00000  Uiso   1.00
H165   H     0.41560   0.09161   0.39530   0.00000  Uiso   1.00
C166   C     0.35017   0.09163   0.37538   0.00000  Uiso   1.00
H167   H     0.64605   0.10312   0.39231   0.00000  Uiso   1.00
H168   H     0.36672   0.10634   0.33549   0.00000  Uiso   1.00
C169   C     0.34971   0.04445   0.36805   0.00000  Uiso   1.00
H170   H     0.38684   0.03239   0.35077   0.00000  Uiso   1.00
H171   H     0.66290   0.03665   0.34021   0.00000  Uiso   1.00
H172   H     0.66538   0.02904   0.40722   0.00000  Uiso   1.00
C173   C     0.83295   0.24671   0.25120   0.00000  Uiso   1.00
C174   C     0.81083   0.18461   0.49234   0.00000  Uiso   1.00
C175   C     0.82216   0.19017   0.43666   0.00000  Uiso   1.00
C176   C     0.84715   0.19174   0.01549   0.00000  Uiso   1.00
C177   C     0.89505   0.19762   0.48267   0.00000  Uiso   1.00
C178   C     0.90380   0.20974   0.42967   0.00000  Uiso   1.00
C179   C     0.86622   0.20947   0.40847   0.00000  Uiso   1.00
C180   C     0.83753   0.19268   0.07068   0.00000  Uiso   1.00
C181   C     0.92156   0.18067   0.05819   0.00000  Uiso   1.00
C182   C     0.79035   0.17478   0.41058   0.00000  Uiso   1.00
C183   C     0.86791   0.31199   0.26702   0.00000  Uiso   1.00
C184   C     0.80704   0.16934   0.35198   0.00000  Uiso   1.00
C185   C     0.86768   0.02138   0.26740   0.00000  Uiso   1.00
C186   C     0.83188   0.04251   0.25371   0.00000  Uiso   1.00
C187   C     0.79479   0.02133   0.24263   0.00000  Uiso   1.00
C188   C     0.79456   0.31205   0.24314   0.00000  Uiso   1.00
C189   C     0.83183   0.29085   0.25388   0.00000  Uiso   1.00
C190   C     0.98521   0.13991   0.21714   0.00000  Uiso   1.00
C191   C     0.70028   0.14040   0.21703   0.00000  Uiso   1.00
C192   C     0.68144   0.19343   0.28215   0.00000  Uiso   1.00
C193   C     0.96706   0.19374   0.28163   0.00000  Uiso   1.00
C194   C     0.83298   0.08663   0.25104   0.00000  Uiso   1.00
C195   C     0.85934   0.16963   0.14830   0.00000  Uiso   1.00
C196   C     0.93238   0.19254   0.00442   0.00000  Uiso   1.00
C197   C     0.87357   0.18008   0.09145   0.00000  Uiso   1.00
C198   C     0.74462   0.15986   0.44134   0.00000  Uiso   1.00
C199   C     0.73226   0.15792   0.49707   0.00000  Uiso   1.00
C200   C     0.76547   0.16843   0.02215   0.00000  Uiso   1.00
H201   H     0.95025   0.17386   0.07420   0.00000  Uiso   1.00
H202   H     0.89554   0.03774   0.27791   0.00000  Uiso   1.00
H203   H     0.76657   0.03753   0.23258   0.00000  Uiso   1.00
H204   H     0.76618   0.29585   0.23342   0.00000  Uiso   1.00
H205   H     0.72678   0.12035   0.19010   0.00000  Uiso   1.00
H206   H     0.69224   0.21496   0.30778   0.00000  Uiso   1.00
H207   H     0.94230   0.21630   0.30566   0.00000  Uiso   1.00
H208   H     0.93917   0.21965   0.40508   0.00000  Uiso   1.00
H209   H     0.96941   0.19599   0.47957   0.00000  Uiso   1.00
H210   H     0.75566   0.16192   0.06457   0.00000  Uiso   1.00
H211   H     0.69757   0.14599   0.02077   0.00000  Uiso   1.00
H212   H     0.87232   0.22296   0.36937   0.00000  Uiso   1.00
H213   H     0.89617   0.29564   0.27678   0.00000  Uiso   1.00
N214   N     0.71426   0.16668   0.25002   0.00000  Uiso   1.00
N215   N     0.95239   0.16665   0.25001   0.00000  Uiso   1.00
O216   O     0.79512   0.22775   0.25001   0.00000  Uiso   1.00
O217   O     0.87157   0.22774   0.25001   0.00000  Uiso   1.00
O218   O     0.77613   0.16666   0.32681   0.00000  Uiso   1.00
O219   O     0.85258   0.16665   0.32681   0.00000  Uiso   1.00
O220   O     0.79510   0.10559   0.25000   0.00000  Uiso   1.00
O221   O     0.87154   0.10558   0.25000   0.00000  Uiso   1.00
O222   O     0.81409   0.16668   0.17319   0.00000  Uiso   1.00
O223   O     0.89053   0.16667   0.17319   0.00000  Uiso   1.00
Zn224  Zn    0.78229   0.16667   0.25000   0.00000  Uiso   1.00
Zn225  Zn    0.88438   0.16666   0.25000   0.00000  Uiso   1.00
O226   O     0.97176   0.11663   0.17998   0.00000  Uiso   1.00
C227   C     0.98204   0.07372   0.18258   0.00000  Uiso   1.00
H228   H     0.94814   0.05646   0.18859   0.00000  Uiso   1.00
H229   H     0.99498   0.06495   0.21660   0.00000  Uiso   1.00
C230   C     0.68462   0.05939   0.12921   0.00000  Uiso   1.00
H231   H     0.67216   0.06953   0.09556   0.00000  Uiso   1.00
H232   H     0.72010   0.07380   0.12364   0.00000  Uiso   1.00
C233   C     0.68994   0.01202   0.12735   0.00000  Uiso   1.00
H234   H     0.70110   0.00093   0.16148   0.00000  Uiso   1.00
H235   H     0.71746   0.00257   0.08916   0.00000  Uiso   1.00
H236   H     0.98876   0.33037   0.12947   0.00000  Uiso   1.00
O237   O     0.79493   0.20945   0.10458   0.00000  Uiso   1.00
C238   C     0.79128   0.25247   0.09375   0.00000  Uiso   1.00
H239   H     0.75628   0.26361   0.12126   0.00000  Uiso   1.00
H240   H     0.79041   0.25756   0.05228   0.00000  Uiso   1.00
C241   C     0.83133   0.27869   0.10380   0.00000  Uiso   1.00
H242   H     0.83426   0.27076   0.14359   0.00000  Uiso   1.00
H243   H     0.86620   0.27152   0.07278   0.00000  Uiso   1.00
C244   C     0.82188   0.32530   0.10164   0.00000  Uiso   1.00
H245   H     0.81892   0.00044   0.06193   0.00000  Uiso   1.00
H246   H     0.85190   0.00977   0.10796   0.00000  Uiso   1.00
H247   H     0.78835   0.00077   0.13366   0.00000  Uiso   1.00
O248   O     0.71148   0.14789   0.41706   0.00000  Uiso   1.00
C249   C     0.71171   0.10400   0.41264   0.00000  Uiso   1.00
H250   H     0.69442   0.08983   0.45285   0.00000  Uiso   1.00
H251   H     0.74893   0.09161   0.39530   0.00000  Uiso   1.00
C252   C     0.68351   0.09163   0.37538   0.00000  Uiso   1.00
H253   H     0.97938   0.10312   0.39231   0.00000  Uiso   1.00
H254   H     0.70005   0.10634   0.33549   0.00000  Uiso   1.00
C255   C     0.68304   0.04445   0.36805   0.00000  Uiso   1.00
H256   H     0.72017   0.03239   0.35077   0.00000  Uiso   1.00
H257   H     0.99623   0.03665   0.34021   0.00000  Uiso   1.00
H258   H     0.99871   0.02904   0.40722   0.00000  Uiso   1.00
C259   C     0.16628   0.58004   0.25120   0.00000  Uiso   1.00
C260   C     0.14417   0.51795   0.49234   0.00000  Uiso   1.00
C261   C     0.15549   0.52351   0.43666   0.00000  Uiso   1.00
C262   C     0.18048   0.52507   0.01549   0.00000  Uiso   1.00
C263   C     0.22838   0.53096   0.48267   0.00000  Uiso   1.00
C264   C     0.23714   0.54307   0.42967   0.00000  Uiso   1.00
C265   C     0.19955   0.54280   0.40847   0.00000  Uiso   1.00
C266   C     0.17087   0.52601   0.07068   0.00000  Uiso   1.00
C267   C     0.25489   0.51400   0.05819   0.00000  Uiso   1.00
C268   C     0.12369   0.50811   0.41058   0.00000  Uiso   1.00
C269   C     0.20124   0.64532   0.26702   0.00000  Uiso   1.00
C270   C     0.14037   0.50267   0.35198   0.00000  Uiso   1.00
C271   C     0.20101   0.35471   0.26740   0.00000  Uiso   1.00
C272   C     0.16521   0.37585   0.25371   0.00000  Uiso   1.00
C273   C     0.12813   0.35467   0.24263   0.00000  Uiso   1.00
C274   C     0.12789   0.64538   0.24314   0.00000  Uiso   1.00
C275   C     0.16516   0.62418   0.25388   0.00000  Uiso   1.00
C276   C     0.31854   0.47325   0.21714   0.00000  Uiso   1.00
C277   C     0.03362   0.47373   0.21703   0.00000  Uiso   1.00
C278   C     0.01477   0.52677   0.28215   0.00000  Uiso   1.00
C279   C     0.30040   0.52707   0.28163   0.00000  Uiso   1.00
C280   C     0.16631   0.41996   0.25104   0.00000  Uiso   1.00
C281   C     0.19267   0.50297   0.14830   0.00000  Uiso   1.00
C282   C     0.26571   0.52588   0.00442   0.00000  Uiso   1.00
C283   C     0.20691   0.51341   0.09145   0.00000  Uiso   1.00
C284   C     0.07795   0.49319   0.44134   0.00000  Uiso   1.00
C285   C     0.06559   0.49125   0.49707   0.00000  Uiso   1.00
C286   C     0.09881   0.50176   0.02215   0.00000  Uiso   1.00
H287   H     0.28358   0.50719   0.07420   0.00000  Uiso   1.00
H288   H     0.22887   0.37107   0.27791   0.00000  Uiso   1.00
H289   H     0.09991   0.37086   0.23258   0.00000  Uiso   1.00
H290   H     0.09951   0.62918   0.23342   0.00000  Uiso   1.00
H291   H     0.06011   0.45368   0.19010   0.00000  Uiso   1.00
H292   H     0.02557   0.54829   0.30778   0.00000  Uiso   1.00
H293   H     0.27563   0.54963   0.30566   0.00000  Uiso   1.00
H294   H     0.27251   0.55298   0.40508   0.00000  Uiso   1.00
H295   H     0.30274   0.52933   0.47957   0.00000  Uiso   1.00
H296   H     0.08900   0.49525   0.06457   0.00000  Uiso   1.00
H297   H     0.03090   0.47933   0.02077   0.00000  Uiso   1.00
H298   H     0.20565   0.55629   0.36937   0.00000  Uiso   1.00
H299   H     0.22951   0.62897   0.27678   0.00000  Uiso   1.00
N300   N     0.04760   0.50001   0.25002   0.00000  Uiso   1.00
N301   N     0.28573   0.49998   0.25001   0.00000  Uiso   1.00
O302   O     0.12846   0.56108   0.25001   0.00000  Uiso   1.00
O303   O     0.20490   0.56107   0.25001   0.00000  Uiso   1.00
O304   O     0.10947   0.50000   0.32681   0.00000  Uiso   1.00
O305   O     0.18591   0.49999   0.32681   0.00000  Uiso   1.00
O306   O     0.12843   0.43893   0.25000   0.00000  Uiso   1.00
O307   O     0.20488   0.43892   0.25000   0.00000  Uiso   1.00
O308   O     0.14742   0.50001   0.17319   0.00000  Uiso   1.00
O309   O     0.22387   0.50000   0.17319   0.00000  Uiso   1.00
Zn310  Zn    0.11562   0.50001   0.25000   0.00000  Uiso   1.00
Zn311  Zn    0.21771   0.49999   0.25000   0.00000  Uiso   1.00
O312   O     0.30509   0.44997   0.17998   0.00000  Uiso   1.00
C313   C     0.31537   0.40705   0.18258   0.00000  Uiso   1.00
H314   H     0.28148   0.38980   0.18859   0.00000  Uiso   1.00
H315   H     0.32831   0.39828   0.21660   0.00000  Uiso   1.00
C316   C     0.01795   0.39272   0.12921   0.00000  Uiso   1.00
H317   H     0.00549   0.40286   0.09556   0.00000  Uiso   1.00
H318   H     0.05344   0.40713   0.12364   0.00000  Uiso   1.00
C319   C     0.02327   0.34535   0.12735   0.00000  Uiso   1.00
H320   H     0.03443   0.33426   0.16148   0.00000  Uiso   1.00
H321   H     0.05080   0.33590   0.08916   0.00000  Uiso   1.00
H322   H     0.32210   0.66370   0.12947   0.00000  Uiso   1.00
O323   O     0.12827   0.54278   0.10458   0.00000  Uiso   1.00
C324   C     0.12462   0.58580   0.09375   0.00000  Uiso   1.00
H325   H     0.08961   0.59694   0.12126   0.00000  Uiso   1.00
H326   H     0.12374   0.59089   0.05228   0.00000  Uiso   1.00
C327   C     0.16466   0.61203   0.10380   0.00000  Uiso   1.00
H328   H     0.16759   0.60409   0.14359   0.00000  Uiso   1.00
H329   H     0.19953   0.60485   0.07278   0.00000  Uiso   1.00
C330   C     0.15521   0.65863   0.10164   0.00000  Uiso   1.00
H331   H     0.15225   0.33378   0.06193   0.00000  Uiso   1.00
H332   H     0.18523   0.34310   0.10796   0.00000  Uiso   1.00
H333   H     0.12168   0.33410   0.13366   0.00000  Uiso   1.00
O334   O     0.04481   0.48122   0.41706   0.00000  Uiso   1.00
C335   C     0.04504   0.43733   0.41264   0.00000  Uiso   1.00
H336   H     0.02775   0.42316   0.45285   0.00000  Uiso   1.00
H337   H     0.08227   0.42494   0.39530   0.00000  Uiso   1.00
C338   C     0.01684   0.42496   0.37538   0.00000  Uiso   1.00
H339   H     0.31272   0.43645   0.39231   0.00000  Uiso   1.00
H340   H     0.03338   0.43968   0.33549   0.00000  Uiso   1.00
C341   C     0.01637   0.37779   0.36805   0.00000  Uiso   1.00
H342   H     0.05351   0.36572   0.35077   0.00000  Uiso   1.00
H343   H     0.32956   0.36998   0.34021   0.00000  Uiso   1.00
H344   H     0.33204   0.36238   0.40722   0.00000  Uiso   1.00
C345   C     0.49962   0.58004   0.25120   0.00000  Uiso   1.00
C346   C     0.47750   0.51795   0.49234   0.00000  Uiso   1.00
C347   C     0.48882   0.52351   0.43666   0.00000  Uiso   1.00
C348   C     0.51382   0.52507   0.01549   0.00000  Uiso   1.00
C349   C     0.56172   0.53096   0.48267   0.00000  Uiso   1.00
C350   C     0.57047   0.54307   0.42967   0.00000  Uiso   1.00
C351   C     0.53289   0.54280   0.40847   0.00000  Uiso   1.00
C352   C     0.50420   0.52601   0.07068   0.00000  Uiso   1.00
C353   C     0.58823   0.51400   0.05819   0.00000  Uiso   1.00
C354   C     0.45702   0.50811   0.41058   0.00000  Uiso   1.00
C355   C     0.53458   0.64532   0.26702   0.00000  Uiso   1.00
C356   C     0.47371   0.50267   0.35198   0.00000  Uiso   1.00
C357   C     0.53435   0.35471   0.26740   0.00000  Uiso   1.00
C358   C     0.49855   0.37585   0.25371   0.00000  Uiso   1.00
C359   C     0.46146   0.35467   0.24263   0.00000  Uiso   1.00
C360   C     0.46123   0.64538   0.24314   0.00000  Uiso   1.00
C361   C     0.49849   0.62418   0.25388   0.00000  Uiso   1.00
C362   C     0.65188   0.47325   0.21714   0.00000  Uiso   1.00
C363   C     0.36695   0.47373   0.21703   0.00000  Uiso   1.00
C364   C     0.34810   0.52677   0.28215   0.00000  Uiso   1.00
C365   C     0.63373   0.52707   0.28163   0.00000  Uiso   1.00
C366   C     0.49965   0.41996   0.25104   0.00000  Uiso   1.00
C367   C     0.52601   0.50297   0.14830   0.00000  Uiso   1.00
C368   C     0.59905   0.52588   0.00442   0.00000  Uiso   1.00
C369   C     0.54024   0.51341   0.09145   0.00000  Uiso   1.00
C370   C     0.41128   0.49319   0.44134   0.00000  Uiso   1.00
C371   C     0.39892   0.49125   0.49707   0.00000  Uiso   1.00
C372   C     0.43214   0.50176   0.02215   0.00000  Uiso   1.00
H373   H     0.61691   0.50719   0.07420   0.00000  Uiso   1.00
H374   H     0.56221   0.37107   0.27791   0.00000  Uiso   1.00
H375   H     0.43324   0.37086   0.23258   0.00000  Uiso   1.00
H376   H     0.43285   0.62918   0.23342   0.00000  Uiso   1.00
H377   H     0.39345   0.45368   0.19010   0.00000  Uiso   1.00
H378   H     0.35891   0.54829   0.30778   0.00000  Uiso   1.00
H379   H     0.60897   0.54963   0.30566   0.00000  Uiso   1.00
H380   H     0.60584   0.55298   0.40508   0.00000  Uiso   1.00
H381   H     0.63607   0.52933   0.47957   0.00000  Uiso   1.00
H382   H     0.42233   0.49525   0.06457   0.00000  Uiso   1.00
H383   H     0.36424   0.47933   0.02077   0.00000  Uiso   1.00
H384   H     0.53899   0.55629   0.36937   0.00000  Uiso   1.00
H385   H     0.56284   0.62897   0.27678   0.00000  Uiso   1.00
N386   N     0.38093   0.50001   0.25002   0.00000  Uiso   1.00
N387   N     0.61906   0.49998   0.25001   0.00000  Uiso   1.00
O388   O     0.46179   0.56108   0.25001   0.00000  Uiso   1.00
O389   O     0.53823   0.56107   0.25001   0.00000  Uiso   1.00
O390   O     0.44280   0.50000   0.32681   0.00000  Uiso   1.00
O391   O     0.51924   0.49999   0.32681   0.00000  Uiso   1.00
O392   O     0.46177   0.43893   0.25000   0.00000  Uiso   1.00
O393   O     0.53821   0.43892   0.25000   0.00000  Uiso   1.00
O394   O     0.48076   0.50001   0.17319   0.00000  Uiso   1.00
O395   O     0.55720   0.50000   0.17319   0.00000  Uiso   1.00
Zn396  Zn    0.44896   0.50001   0.25000   0.00000  Uiso   1.00
Zn397  Zn    0.55104   0.49999   0.25000   0.00000  Uiso   1.00
O398   O     0.63842   0.44997   0.17998   0.00000  Uiso   1.00
C399   C     0.64870   0.40705   0.18258   0.00000  Uiso   1.00
H400   H     0.61481   0.38980   0.18859   0.00000  Uiso   1.00
H401   H     0.66165   0.39828   0.21660   0.00000  Uiso   1.00
C402   C     0.35128   0.39272   0.12921   0.00000  Uiso   1.00
H403   H     0.33882   0.40286   0.09556   0.00000  Uiso   1.00
H404   H     0.38677   0.40713   0.12364   0.00000  Uiso   1.00
C405   C     0.35660   0.34535   0.12735   0.00000  Uiso   1.00
H406   H     0.36776   0.33426   0.16148   0.00000  Uiso   1.00
H407   H     0.38413   0.33590   0.08916   0.00000  Uiso   1.00
H408   H     0.65543   0.66370   0.12947   0.00000  Uiso   1.00
O409   O     0.46160   0.54278   0.10458   0.00000  Uiso   1.00
C410   C     0.45795   0.58580   0.09375   0.00000  Uiso   1.00
H411   H     0.42295   0.59694   0.12126   0.00000  Uiso   1.00
H412   H     0.45708   0.59089   0.05228   0.00000  Uiso   1.00
C413   C     0.49799   0.61203   0.10380   0.00000  Uiso   1.00
H414   H     0.50093   0.60409   0.14359   0.00000  Uiso   1.00
H415   H     0.53286   0.60485   0.07278   0.00000  Uiso   1.00
C416   C     0.48854   0.65863   0.10164   0.00000  Uiso   1.00
H417   H     0.48559   0.33378   0.06193   0.00000  Uiso   1.00
H418   H     0.51856   0.34310   0.10796   0.00000  Uiso   1.00
H419   H     0.45501   0.33410   0.13366   0.00000  Uiso   1.00
O420   O     0.37815   0.48122   0.41706   0.00000  Uiso   1.00
C421   C     0.37838   0.43733   0.41264   0.00000  Uiso   1.00
H422   H     0.36108   0.42316   0.45285   0.00000  Uiso   1.00
H423   H     0.41560   0.42494   0.39530   0.00000  Uiso   1.00
C424   C     0.35017   0.42496   0.37538   0.00000  Uiso   1.00
H425   H     0.64605   0.43645   0.39231   0.00000  Uiso   1.00
H426   H     0.36672   0.43968   0.33549   0.00000  Uiso   1.00
C427   C     0.34971   0.37779   0.36805   0.00000  Uiso   1.00
H428   H     0.38684   0.36572   0.35077   0.00000  Uiso   1.00
H429   H     0.66290   0.36998   0.34021   0.00000  Uiso   1.00
H430   H     0.66538   0.36238   0.40722   0.00000  Uiso   1.00
C431   C     0.83295   0.58004   0.25120   0.00000  Uiso   1.00
C432   C     0.81083   0.51795   0.49234   0.00000  Uiso   1.00
C433   C     0.82216   0.52351   0.43666   0.00000  Uiso   1.00
C434   C     0.84715   0.52507   0.01549   0.00000  Uiso   1.00
C435   C     0.89505   0.53096   0.48267   0.00000  Uiso   1.00
C436   C     0.90380   0.54307   0.42967   0.00000  Uiso   1.00
C437   C     0.86622   0.54280   0.40847   0.00000  Uiso   1.00
C438   C     0.83753   0.52601   0.07068   0.00000  Uiso   1.00
C439   C     0.92156   0.51400   0.05819   0.00000  Uiso   1.00
C440   C     0.79035   0.50811   0.41058   0.00000  Uiso   1.00
C441   C     0.86791   0.64532   0.26702   0.00000  Uiso   1.00
C442   C     0.80704   0.50267   0.35198   0.00000  Uiso   1.00
C443   C     0.86768   0.35471   0.26740   0.00000  Uiso   1.00
C444   C     0.83188   0.37585   0.25371   0.00000  Uiso   1.00
C445   C     0.79479   0.35467   0.24263   0.00000  Uiso   1.00
C446   C     0.79456   0.64538   0.24314   0.00000  Uiso   1.00
C447   C     0.83183   0.62418   0.25388   0.00000  Uiso   1.00
C448   C     0.98521   0.47325   0.21714   0.00000  Uiso   1.00
C449   C     0.70028   0.47373   0.21703   0.00000  Uiso   1.00
C450   C     0.68144   0.52677   0.28215   0.00000  Uiso   1.00
C451   C     0.96706   0.52707   0.28163   0.00000  Uiso   1.00
C452   C     0.83298   0.41996   0.25104   0.00000  Uiso   1.00
C453   C     0.85934   0.50297   0.14830   0.00000  Uiso   1.00
C454   C     0.93238   0.52588   0.00442   0.00000  Uiso   1.00
C455   C     0.87357   0.51341   0.09145   0.00000  Uiso   1.00
C456   C     0.74462   0.49319   0.44134   0.00000  Uiso   1.00
C457   C     0.73226   0.49125   0.49707   0.00000  Uiso   1.00
C458   C     0.76547   0.50176   0.02215   0.00000  Uiso   1.00
H459   H     0.95025   0.50719   0.07420   0.00000  Uiso   1.00
H460   H     0.89554   0.37107   0.27791   0.00000  Uiso   1.00
H461   H     0.76657   0.37086   0.23258   0.00000  Uiso   1.00
H462   H     0.76618   0.62918   0.23342   0.00000  Uiso   1.00
H463   H     0.72678   0.45368   0.19010   0.00000  Uiso   1.00
H464   H     0.69224   0.54829   0.30778   0.00000  Uiso   1.00
H465   H     0.94230   0.54963   0.30566   0.00000  Uiso   1.00
H466   H     0.93917   0.55298   0.40508   0.00000  Uiso   1.00
H467   H     0.96941   0.52933   0.47957   0.00000  Uiso   1.00
H468   H     0.75566   0.49525   0.06457   0.00000  Uiso   1.00
H469   H     0.69757   0.47933   0.02077   0.00000  Uiso   1.00
H470   H     0.87232   0.55629   0.36937   0.00000  Uiso   1.00
H471   H     0.89617   0.62897   0.27678   0.00000  Uiso   1.00
N472   N     0.71426   0.50001   0.25002   0.00000  Uiso   1.00
N473   N     0.95239   0.49998   0.25001   0.00000  Uiso   1.00
O474   O     0.79512   0.56108   0.25001   0.00000  Uiso   1.00
O475   O     0.87157   0.56107   0.25001   0.00000  Uiso   1.00
O476   O     0.77613   0.50000   0.32681   0.00000  Uiso   1.00
O477   O     0.85258   0.49999   0.32681   0.00000  Uiso   1.00
O478   O     0.79510   0.43893   0.25000   0.00000  Uiso   1.00
O479   O     0.87154   0.43892   0.25000   0.00000  Uiso   1.00
O480   O     0.81409   0.50001   0.17319   0.00000  Uiso   1.00
O481   O     0.89053   0.50000   0.17319   0.00000  Uiso   1.00
Zn482  Zn    0.78229   0.50001   0.25000   0.00000  Uiso   1.00
Zn483  Zn    0.88438   0.49999   0.25000   0.00000  Uiso   1.00
O484   O     0.97176   0.44997   0.17998   0.00000  Uiso   1.00
C485   C     0.98204   0.40705   0.18258   0.00000  Uiso   1.00
H486   H     0.94814   0.38980   0.18859   0.00000  Uiso   1.00
H487   H     0.99498   0.39828   0.21660   0.00000  Uiso   1.00
C488   C     0.68462   0.39272   0.12921   0.00000  Uiso   1.00
H489   H     0.67216   0.40286   0.09556   0.00000  Uiso   1.00
H490   H     0.72010   0.40713   0.12364   0.00000  Uiso   1.00
C491   C     0.68994   0.34535   0.12735   0.00000  Uiso   1.00
H492   H     0.70110   0.33426   0.16148   0.00000  Uiso   1.00
H493   H     0.71746   0.33590   0.08916   0.00000  Uiso   1.00
H494   H     0.98876   0.66370   0.12947   0.00000  Uiso   1.00
O495   O     0.79493   0.54278   0.10458   0.00000  Uiso   1.00
C496   C     0.79128   0.58580   0.09375   0.00000  Uiso   1.00
H497   H     0.75628   0.59694   0.12126   0.00000  Uiso   1.00
H498   H     0.79041   0.59089   0.05228   0.00000  Uiso   1.00
C499   C     0.83133   0.61203   0.10380   0.00000  Uiso   1.00
H500   H     0.83426   0.60409   0.14359   0.00000  Uiso   1.00
H501   H     0.86620   0.60485   0.07278   0.00000  Uiso   1.00
C502   C     0.82188   0.65863   0.10164   0.00000  Uiso   1.00
H503   H     0.81892   0.33378   0.06193   0.00000  Uiso   1.00
H504   H     0.85190   0.34310   0.10796   0.00000  Uiso   1.00
H505   H     0.78835   0.33410   0.13366   0.00000  Uiso   1.00
O506   O     0.71148   0.48122   0.41706   0.00000  Uiso   1.00
C507   C     0.71171   0.43733   0.41264   0.00000  Uiso   1.00
H508   H     0.69442   0.42316   0.45285   0.00000  Uiso   1.00
H509   H     0.74893   0.42494   0.39530   0.00000  Uiso   1.00
C510   C     0.68351   0.42496   0.37538   0.00000  Uiso   1.00
H511   H     0.97938   0.43645   0.39231   0.00000  Uiso   1.00
H512   H     0.70005   0.43968   0.33549   0.00000  Uiso   1.00
C513   C     0.68304   0.37779   0.36805   0.00000  Uiso   1.00
H514   H     0.72017   0.36572   0.35077   0.00000  Uiso   1.00
H515   H     0.99623   0.36998   0.34021   0.00000  Uiso   1.00
H516   H     0.99871   0.36238   0.40722   0.00000  Uiso   1.00
C517   C     0.16628   0.91338   0.25120   0.00000  Uiso   1.00
C518   C     0.14417   0.85128   0.49234   0.00000  Uiso   1.00
C519   C     0.15549   0.85684   0.43666   0.00000  Uiso   1.00
C520   C     0.18048   0.85841   0.01549   0.00000  Uiso   1.00
C521   C     0.22838   0.86429   0.48267   0.00000  Uiso   1.00
C522   C     0.23714   0.87640   0.42967   0.00000  Uiso   1.00
C523   C     0.19955   0.87613   0.40847   0.00000  Uiso   1.00
C524   C     0.17087   0.85934   0.07068   0.00000  Uiso   1.00
C525   C     0.25489   0.84734   0.05819   0.00000  Uiso   1.00
C526   C     0.12369   0.84144   0.41058   0.00000  Uiso   1.00
C527   C     0.20124   0.97865   0.26702   0.00000  Uiso   1.00
C528   C     0.14037   0.83600   0.35198   0.00000  Uiso   1.00
C529   C     0.20101   0.68804   0.26740   0.00000  Uiso   1.00
C530   C     0.16521   0.70918   0.25371   0.00000  Uiso   1.00
C531   C     0.12813   0.68800   0.24263   0.00000  Uiso   1.00
C532   C     0.12789   0.97872   0.24314   0.00000  Uiso   1.00
C533   C     0.16516   0.95751   0.25388   0.00000  Uiso   1.00
C534   C     0.31854   0.80658   0.21714   0.00000  Uiso   1.00
C535   C     0.03362   0.80707   0.21703   0.00000  Uiso   1.00
C536   C     0.01477   0.86010   0.28215   0.00000  Uiso   1.00
C537   C     0.30040   0.86040   0.28163   0.00000  Uiso   1.00
C538   C     0.16631   0.75330   0.25104   0.00000  Uiso   1.00
C539   C     0.19267   0.83630   0.14830   0.00000  Uiso   1.00
C540   C     0.26571   0.85921   0.00442   0.00000  Uiso   1.00
C541   C     0.20691   0.84674   0.09145   0.00000  Uiso   1.00
C542   C     0.07795   0.82653   0.44134   0.00000  Uiso   1.00
C543   C     0.06559   0.82458   0.49707   0.00000  Uiso   1.00
C544   C     0.09881   0.83510   0.02215   0.00000  Uiso   1.00
H545   H     0.28358   0.84052   0.07420   0.00000  Uiso   1.00
H546   H     0.22887   0.70440   0.27791   0.00000  Uiso   1.00
H547   H     0.09991   0.70419   0.23258   0.00000  Uiso   1.00
H548   H     0.09951   0.96251   0.23342   0.00000  Uiso   1.00
H549   H     0.06011   0.78702   0.19010   0.00000  Uiso   1.00
H550   H     0.02557   0.88163   0.30778   0.00000  Uiso   1.00
H551   H     0.27563   0.88296   0.30566   0.00000  Uiso   1.00
H552   H     0.27251   0.88632   0.40508   0.00000  Uiso   1.00
H553   H     0.30274   0.86266   0.47957   0.00000  Uiso   1.00
H554   H     0.08900   0.82858   0.06457   0.00000  Uiso   1.00
H555   H     0.03090   0.81266   0.02077   0.00000  Uiso   1.00
H556   H     0.20565   0.88962   0.36937   0.00000  Uiso   1.00
H557   H     0.22951   0.96230   0.27678   0.00000  Uiso   1.00
N558   N     0.04760   0.83334   0.25002   0.00000  Uiso   1.00
N559   N     0.28573   0.83331   0.25001   0.00000  Uiso   1.00
O560   O     0.12846   0.89442   0.25001   0.00000  Uiso   1.00
O561   O     0.20490   0.89441   0.25001   0.00000  Uiso   1.00
O562   O     0.10947   0.83333   0.32681   0.00000  Uiso   1.00
O563   O     0.18591   0.83332   0.32681   0.00000  Uiso   1.00
O564   O     0.12843   0.77226   0.25000   0.00000  Uiso   1.00
O565   O     0.20488   0.77225   0.25000   0.00000  Uiso   1.00
O566   O     0.14742   0.83335   0.17319   0.00000  Uiso   1.00
O567   O     0.22387   0.83334   0.17319   0.00000  Uiso   1.00
Zn568  Zn    0.11562   0.83334   0.25000   0.00000  Uiso   1.00
Zn569  Zn    0.21771   0.83333   0.25000   0.00000  Uiso   1.00
O570   O     0.30509   0.78330   0.17998   0.00000  Uiso   1.00
C571   C     0.31537   0.74038   0.18258   0.00000  Uiso   1.00
H572   H     0.28148   0.72313   0.18859   0.00000  Uiso   1.00
H573   H     0.32831   0.73162   0.21660   0.00000  Uiso   1.00
C574   C     0.01795   0.72606   0.12921   0.00000  Uiso   1.00
H575   H     0.00549   0.73619   0.09556   0.00000  Uiso   1.00
H576   H     0.05344   0.74046   0.12364   0.00000  Uiso   1.00
C577   C     0.02327   0.67869   0.12735   0.00000  Uiso   1.00
H578   H     0.03443   0.66760   0.16148   0.00000  Uiso   1.00
H579   H     0.05080   0.66924   0.08916   0.00000  Uiso   1.00
H580   H     0.32210   0.99704   0.12947   0.00000  Uiso   1.00
O581   O     0.12827   0.87612   0.10458   0.00000  Uiso   1.00
C582   C     0.12462   0.91913   0.09375   0.00000  Uiso   1.00
H583   H     0.08961   0.93027   0.12126   0.00000  Uiso   1.00
H584   H     0.12374   0.92422   0.05228   0.00000  Uiso   1.00
C585   C     0.16466   0.94536   0.10380   0.00000  Uiso   1.00
H586   H     0.16759   0.93742   0.14359   0.00000  Uiso   1.00
H587   H     0.19953   0.93819   0.07278   0.00000  Uiso   1.00
C588   C     0.15521   0.99197   0.10164   0.00000  Uiso   1.00
H589   H     0.15225   0.66711   0.06193   0.00000  Uiso   1.00
H590   H     0.18523   0.67644   0.10796   0.00000  Uiso   1.00
H591   H     0.12168   0.66744   0.13366   0.00000  Uiso   1.00
O592   O     0.04481   0.81455   0.41706   0.00000  Uiso   1.00
C593   C     0.04504   0.77066   0.41264   0.00000  Uiso   1.00
H594   H     0.02775   0.75649   0.45285   0.00000  Uiso   1.00
H595   H     0.08227   0.75827   0.39530   0.00000  Uiso   1.00
C596   C     0.01684   0.75829   0.37538   0.00000  Uiso   1.00
H597   H     0.31272   0.76979   0.39231   0.00000  Uiso   1.00
H598   H     0.03338   0.77301   0.33549   0.00000  Uiso   1.00
C599   C     0.01637   0.71112   0.36805   0.00000  Uiso   1.00
H600   H     0.05351   0.69906   0.35077   0.00000  Uiso   1.00
H601   H     0.32956   0.70332   0.34021   0.00000  Uiso   1.00
H602   H     0.33204   0.69571   0.40722   0.00000  Uiso   1.00
C603   C     0.49962   0.91338   0.25120   0.00000  Uiso   1.00
C604   C     0.47750   0.85128   0.49234   0.00000  Uiso   1.00
C605   C     0.48882   0.85684   0.43666   0.00000  Uiso   1.00
C606   C     0.51382   0.85841   0.01549   0.00000  Uiso   1.00
C607   C     0.56172   0.86429   0.48267   0.00000  Uiso   1.00
C608   C     0.57047   0.87640   0.42967   0.00000  Uiso   1.00
C609   C     0.53289   0.87613   0.40847   0.00000  Uiso   1.00
C610   C     0.50420   0.85934   0.07068   0.00000  Uiso   1.00
C611   C     0.58823   0.84734   0.05819   0.00000  Uiso   1.00
C612   C     0.45702   0.84144   0.41058   0.00000  Uiso   1.00
C613   C     0.53458   0.97865   0.26702   0.00000  Uiso   1.00
C614   C     0.47371   0.83600   0.35198   0.00000  Uiso   1.00
C615   C     0.53435   0.68804   0.26740   0.00000  Uiso   1.00
C616   C     0.49855   0.70918   0.25371   0.00000  Uiso   1.00
C617   C     0.46146   0.68800   0.24263   0.00000  Uiso   1.00
C618   C     0.46123   0.97872   0.24314   0.00000  Uiso   1.00
C619   C     0.49849   0.95751   0.25388   0.00000  Uiso   1.00
C620   C     0.65188   0.80658   0.21714   0.00000  Uiso   1.00
C621   C     0.36695   0.80707   0.21703   0.00000  Uiso   1.00
C622   C     0.34810   0.86010   0.28215   0.00000  Uiso   1.00
C623   C     0.63373   0.86040   0.28163   0.00000  Uiso   1.00
C624   C     0.49965   0.75330   0.25104   0.00000  Uiso   1.00
C625   C     0.52601   0.83630   0.14830   0.00000  Uiso   1.00
C626   C     0.59905   0.85921   0.00442   0.00000  Uiso   1.00
C627   C     0.54024   0.84674   0.09145   0.00000  Uiso   1.00
C628   C     0.41128   0.82653   0.44134   0.00000  Uiso   1.00
C629   C     0.39892   0.82458   0.49707   0.00000  Uiso   1.00
C630   C     0.43214   0.83510   0.02215   0.00000  Uiso   1.00
H631   H     0.61691   0.84052   0.07420   0.00000  Uiso   1.00
H632   H     0.56221   0.70440   0.27791   0.00000  Uiso   1.00
H633   H     0.43324   0.70419   0.23258   0.00000  Uiso   1.00
H634   H     0.43285   0.96251   0.23342   0.00000  Uiso   1.00
H635   H     0.39345   0.78702   0.19010   0.00000  Uiso   1.00
H636   H     0.35891   0.88163   0.30778   0.00000  Uiso   1.00
H637   H     0.60897   0.88296   0.30566   0.00000  Uiso   1.00
H638   H     0.60584   0.88632   0.40508   0.00000  Uiso   1.00
H639   H     0.63607   0.86266   0.47957   0.00000  Uiso   1.00
H640   H     0.42233   0.82858   0.06457   0.00000  Uiso   1.00
H641   H     0.36424   0.81266   0.02077   0.00000  Uiso   1.00
H642   H     0.53899   0.88962   0.36937   0.00000  Uiso   1.00
H643   H     0.56284   0.96230   0.27678   0.00000  Uiso   1.00
N644   N     0.38093   0.83334   0.25002   0.00000  Uiso   1.00
N645   N     0.61906   0.83331   0.25001   0.00000  Uiso   1.00
O646   O     0.46179   0.89442   0.25001   0.00000  Uiso   1.00
O647   O     0.53823   0.89441   0.25001   0.00000  Uiso   1.00
O648   O     0.44280   0.83333   0.32681   0.00000  Uiso   1.00
O649   O     0.51924   0.83332   0.32681   0.00000  Uiso   1.00
O650   O     0.46177   0.77226   0.25000   0.00000  Uiso   1.00
O651   O     0.53821   0.77225   0.25000   0.00000  Uiso   1.00
O652   O     0.48076   0.83335   0.17319   0.00000  Uiso   1.00
O653   O     0.55720   0.83334   0.17319   0.00000  Uiso   1.00
Zn654  Zn    0.44896   0.83334   0.25000   0.00000  Uiso   1.00
Zn655  Zn    0.55104   0.83333   0.25000   0.00000  Uiso   1.00
O656   O     0.63842   0.78330   0.17998   0.00000  Uiso   1.00
C657   C     0.64870   0.74038   0.18258   0.00000  Uiso   1.00
H658   H     0.61481   0.72313   0.18859   0.00000  Uiso   1.00
H659   H     0.66165   0.73162   0.21660   0.00000  Uiso   1.00
C660   C     0.35128   0.72606   0.12921   0.00000  Uiso   1.00
H661   H     0.33882   0.73619   0.09556   0.00000  Uiso   1.00
H662   H     0.38677   0.74046   0.12364   0.00000  Uiso   1.00
C663   C     0.35660   0.67869   0.12735   0.00000  Uiso   1.00
H664   H     0.36776   0.66760   0.16148   0.00000  Uiso   1.00
H665   H     0.38413   0.66924   0.08916   0.00000  Uiso   1.00
H666   H     0.65543   0.99704   0.12947   0.00000  Uiso   1.00
O667   O     0.46160   0.87612   0.10458   0.00000  Uiso   1.00
C668   C     0.45795   0.91913   0.09375   0.00000  Uiso   1.00
H669   H     0.42295   0.93027   0.12126   0.00000  Uiso   1.00
H670   H     0.45708   0.92422   0.05228   0.00000  Uiso   1.00
C671   C     0.49799   0.94536   0.10380   0.00000  Uiso   1.00
H672   H     0.50093   0.93742   0.14359   0.00000  Uiso   1.00
H673   H     0.53286   0.93819   0.07278   0.00000  Uiso   1.00
C674   C     0.48854   0.99197   0.10164   0.00000  Uiso   1.00
H675   H     0.48559   0.66711   0.06193   0.00000  Uiso   1.00
H676   H     0.51856   0.67644   0.10796   0.00000  Uiso   1.00
H677   H     0.45501   0.66744   0.13366   0.00000  Uiso   1.00
O678   O     0.37815   0.81455   0.41706   0.00000  Uiso   1.00
C679   C     0.37838   0.77066   0.41264   0.00000  Uiso   1.00
H680   H     0.36108   0.75649   0.45285   0.00000  Uiso   1.00
H681   H     0.41560   0.75827   0.39530   0.00000  Uiso   1.00
C682   C     0.35017   0.75829   0.37538   0.00000  Uiso   1.00
H683   H     0.64605   0.76979   0.39231   0.00000  Uiso   1.00
H684   H     0.36672   0.77301   0.33549   0.00000  Uiso   1.00
C685   C     0.34971   0.71112   0.36805   0.00000  Uiso   1.00
H686   H     0.38684   0.69906   0.35077   0.00000  Uiso   1.00
H687   H     0.66290   0.70332   0.34021   0.00000  Uiso   1.00
H688   H     0.66538   0.69571   0.40722   0.00000  Uiso   1.00
C689   C     0.83295   0.91338   0.25120   0.00000  Uiso   1.00
C690   C     0.81083   0.85128   0.49234   0.00000  Uiso   1.00
C691   C     0.82216   0.85684   0.43666   0.00000  Uiso   1.00
C692   C     0.84715   0.85841   0.01549   0.00000  Uiso   1.00
C693   C     0.89505   0.86429   0.48267   0.00000  Uiso   1.00
C694   C     0.90380   0.87640   0.42967   0.00000  Uiso   1.00
C695   C     0.86622   0.87613   0.40847   0.00000  Uiso   1.00
C696   C     0.83753   0.85934   0.07068   0.00000  Uiso   1.00
C697   C     0.92156   0.84734   0.05819   0.00000  Uiso   1.00
C698   C     0.79035   0.84144   0.41058   0.00000  Uiso   1.00
C699   C     0.86791   0.97865   0.26702   0.00000  Uiso   1.00
C700   C     0.80704   0.83600   0.35198   0.00000  Uiso   1.00
C701   C     0.86768   0.68804   0.26740   0.00000  Uiso   1.00
C702   C     0.83188   0.70918   0.25371   0.00000  Uiso   1.00
C703   C     0.79479   0.68800   0.24263   0.00000  Uiso   1.00
C704   C     0.79456   0.97872   0.24314   0.00000  Uiso   1.00
C705   C     0.83183   0.95751   0.25388   0.00000  Uiso   1.00
C706   C     0.98521   0.80658   0.21714   0.00000  Uiso   1.00
C707   C     0.70028   0.80707   0.21703   0.00000  Uiso   1.00
C708   C     0.68144   0.86010   0.28215   0.00000  Uiso   1.00
C709   C     0.96706   0.86040   0.28163   0.00000  Uiso   1.00
C710   C     0.83298   0.75330   0.25104   0.00000  Uiso   1.00
C711   C     0.85934   0.83630   0.14830   0.00000  Uiso   1.00
C712   C     0.93238   0.85921   0.00442   0.00000  Uiso   1.00
C713   C     0.87357   0.84674   0.09145   0.00000  Uiso   1.00
C714   C     0.74462   0.82653   0.44134   0.00000  Uiso   1.00
C715   C     0.73226   0.82458   0.49707   0.00000  Uiso   1.00
C716   C     0.76547   0.83510   0.02215   0.00000  Uiso   1.00
H717   H     0.95025   0.84052   0.07420   0.00000  Uiso   1.00
H718   H     0.89554   0.70440   0.27791   0.00000  Uiso   1.00
H719   H     0.76657   0.70419   0.23258   0.00000  Uiso   1.00
H720   H     0.76618   0.96251   0.23342   0.00000  Uiso   1.00
H721   H     0.72678   0.78702   0.19010   0.00000  Uiso   1.00
H722   H     0.69224   0.88163   0.30778   0.00000  Uiso   1.00
H723   H     0.94230   0.88296   0.30566   0.00000  Uiso   1.00
H724   H     0.93917   0.88632   0.40508   0.00000  Uiso   1.00
H725   H     0.96941   0.86266   0.47957   0.00000  Uiso   1.00
H726   H     0.75566   0.82858   0.06457   0.00000  Uiso   1.00
H727   H     0.69757   0.81266   0.02077   0.00000  Uiso   1.00
H728   H     0.87232   0.88962   0.36937   0.00000  Uiso   1.00
H729   H     0.89617   0.96230   0.27678   0.00000  Uiso   1.00
N730   N     0.71426   0.83334   0.25002   0.00000  Uiso   1.00
N731   N     0.95239   0.83331   0.25001   0.00000  Uiso   1.00
O732   O     0.79512   0.89442   0.25001   0.00000  Uiso   1.00
O733   O     0.87157   0.89441   0.25001   0.00000  Uiso   1.00
O734   O     0.77613   0.83333   0.32681   0.00000  Uiso   1.00
O735   O     0.85258   0.83332   0.32681   0.00000  Uiso   1.00
O736   O     0.79510   0.77226   0.25000   0.00000  Uiso   1.00
O737   O     0.87154   0.77225   0.25000   0.00000  Uiso   1.00
O738   O     0.81409   0.83335   0.17319   0.00000  Uiso   1.00
O739   O     0.89053   0.83334   0.17319   0.00000  Uiso   1.00
Zn740  Zn    0.78229   0.83334   0.25000   0.00000  Uiso   1.00
Zn741  Zn    0.88438   0.83333   0.25000   0.00000  Uiso   1.00
O742   O     0.97176   0.78330   0.17998   0.00000  Uiso   1.00
C743   C     0.98204   0.74038   0.18258   0.00000  Uiso   1.00
H744   H     0.94814   0.72313   0.18859   0.00000  Uiso   1.00
H745   H     0.99498   0.73162   0.21660   0.00000  Uiso   1.00
C746   C     0.68462   0.72606   0.12921   0.00000  Uiso   1.00
H747   H     0.67216   0.73619   0.09556   0.00000  Uiso   1.00
H748   H     0.72010   0.74046   0.12364   0.00000  Uiso   1.00
C749   C     0.68994   0.67869   0.12735   0.00000  Uiso   1.00
H750   H     0.70110   0.66760   0.16148   0.00000  Uiso   1.00
H751   H     0.71746   0.66924   0.08916   0.00000  Uiso   1.00
H752   H     0.98876   0.99704   0.12947   0.00000  Uiso   1.00
O753   O     0.79493   0.87612   0.10458   0.00000  Uiso   1.00
C754   C     0.79128   0.91913   0.09375   0.00000  Uiso   1.00
H755   H     0.75628   0.93027   0.12126   0.00000  Uiso   1.00
H756   H     0.79041   0.92422   0.05228   0.00000  Uiso   1.00
C757   C     0.83133   0.94536   0.10380   0.00000  Uiso   1.00
H758   H     0.83426   0.93742   0.14359   0.00000  Uiso   1.00
H759   H     0.86620   0.93819   0.07278   0.00000  Uiso   1.00
C760   C     0.82188   0.99197   0.10164   0.00000  Uiso   1.00
H761   H     0.81892   0.66711   0.06193   0.00000  Uiso   1.00
H762   H     0.85190   0.67644   0.10796   0.00000  Uiso   1.00
H763   H     0.78835   0.66744   0.13366   0.00000  Uiso   1.00
O764   O     0.71148   0.81455   0.41706   0.00000  Uiso   1.00
C765   C     0.71171   0.77066   0.41264   0.00000  Uiso   1.00
H766   H     0.69442   0.75649   0.45285   0.00000  Uiso   1.00
H767   H     0.74893   0.75827   0.39530   0.00000  Uiso   1.00
C768   C     0.68351   0.75829   0.37538   0.00000  Uiso   1.00
H769   H     0.97938   0.76979   0.39231   0.00000  Uiso   1.00
H770   H     0.70005   0.77301   0.33549   0.00000  Uiso   1.00
C771   C     0.68304   0.71112   0.36805   0.00000  Uiso   1.00
H772   H     0.72017   0.69906   0.35077   0.00000  Uiso   1.00
H773   H     0.99623   0.70332   0.34021   0.00000  Uiso   1.00
H774   H     0.99871   0.69571   0.40722   0.00000  Uiso   1.00
C775   C     0.16628   0.24671   0.75120   0.00000  Uiso   1.00
C776   C     0.14417   0.18461   0.99234   0.00000  Uiso   1.00
C777   C     0.15549   0.19017   0.93666   0.00000  Uiso   1.00
C778   C     0.18048   0.19174   0.51549   0.00000  Uiso   1.00
C779   C     0.22838   0.19762   0.98267   0.00000  Uiso   1.00
C780   C     0.23714   0.20974   0.92967   0.00000  Uiso   1.00
C781   C     0.19955   0.20947   0.90847   0.00000  Uiso   1.00
C782   C     0.17087   0.19268   0.57068   0.00000  Uiso   1.00
C783   C     0.25489   0.18067   0.55819   0.00000  Uiso   1.00
C784   C     0.12369   0.17478   0.91058   0.00000  Uiso   1.00
C785   C     0.20124   0.31199   0.76702   0.00000  Uiso   1.00
C786   C     0.14037   0.16934   0.85198   0.00000  Uiso   1.00
C787   C     0.20101   0.02138   0.76740   0.00000  Uiso   1.00
C788   C     0.16521   0.04251   0.75371   0.00000  Uiso   1.00
C789   C     0.12813   0.02133   0.74263   0.00000  Uiso   1.00
C790   C     0.12789   0.31205   0.74314   0.00000  Uiso   1.00
C791   C     0.16516   0.29085   0.75388   0.00000  Uiso   1.00
C792   C     0.31854   0.13991   0.71714   0.00000  Uiso   1.00
C793   C     0.03362   0.14040   0.71703   0.00000  Uiso   1.00
C794   C     0.01477   0.19343   0.78215   0.00000  Uiso   1.00
C795   C     0.30040   0.19374   0.78163   0.00000  Uiso   1.00
C796   C     0.16631   0.08663   0.75104   0.00000  Uiso   1.00
C797   C     0.19267   0.16963   0.64830   0.00000  Uiso   1.00
C798   C     0.26571   0.19254   0.50442   0.00000  Uiso   1.00
C799   C     0.20691   0.18008   0.59145   0.00000  Uiso   1.00
C800   C     0.07795   0.15986   0.94134   0.00000  Uiso   1.00
C801   C     0.06559   0.15792   0.99707   0.00000  Uiso   1.00
C802   C     0.09881   0.16843   0.52215   0.00000  Uiso   1.00
H803   H     0.28358   0.17386   0.57420   0.00000  Uiso   1.00
H804   H     0.22887   0.03774   0.77791   0.00000  Uiso   1.00
H805   H     0.09991   0.03753   0.73258   0.00000  Uiso   1.00
H806   H     0.09951   0.29585   0.73342   0.00000  Uiso   1.00
H807   H     0.06011   0.12035   0.69010   0.00000  Uiso   1.00
H808   H     0.02557   0.21496   0.80778   0.00000  Uiso   1.00
H809   H     0.27563   0.21630   0.80566   0.00000  Uiso   1.00
H810   H     0.27251   0.21965   0.90508   0.00000  Uiso   1.00
H811   H     0.30274   0.19599   0.97957   0.00000  Uiso   1.00
H812   H     0.08900   0.16192   0.56457   0.00000  Uiso   1.00
H813   H     0.03090   0.14599   0.52077   0.00000  Uiso   1.00
H814   H     0.20565   0.22296   0.86937   0.00000  Uiso   1.00
H815   H     0.22951   0.29564   0.77678   0.00000  Uiso   1.00
N816   N     0.04760   0.16668   0.75002   0.00000  Uiso   1.00
N817   N     0.28573   0.16665   0.75001   0.00000  Uiso   1.00
O818   O     0.12846   0.22775   0.75001   0.00000  Uiso   1.00
O819   O     0.20490   0.22774   0.75001   0.00000  Uiso   1.00
O820   O     0.10947   0.16666   0.82681   0.00000  Uiso   1.00
O821   O     0.18591   0.16665   0.82681   0.00000  Uiso   1.00
O822   O     0.12843   0.10559   0.75000   0.00000  Uiso   1.00
O823   O     0.20488   0.10558   0.75000   0.00000  Uiso   1.00
O824   O     0.14742   0.16668   0.67319   0.00000  Uiso   1.00
O825   O     0.22387   0.16667   0.67319   0.00000  Uiso   1.00
Zn826  Zn    0.11562   0.16667   0.75000   0.00000  Uiso   1.00
Zn827  Zn    0.21771   0.16666   0.75000   0.00000  Uiso   1.00
O828   O     0.30509   0.11663   0.67998   0.00000  Uiso   1.00
C829   C     0.31537   0.07372   0.68258   0.00000  Uiso   1.00
H830   H     0.28148   0.05646   0.68859   0.00000  Uiso   1.00
H831   H     0.32831   0.06495   0.71660   0.00000  Uiso   1.00
C832   C     0.01795   0.05939   0.62921   0.00000  Uiso   1.00
H833   H     0.00549   0.06953   0.59556   0.00000  Uiso   1.00
H834   H     0.05344   0.07380   0.62364   0.00000  Uiso   1.00
C835   C     0.02327   0.01202   0.62735   0.00000  Uiso   1.00
H836   H     0.03443   0.00093   0.66148   0.00000  Uiso   1.00
H837   H     0.05080   0.00257   0.58916   0.00000  Uiso   1.00
H838   H     0.32210   0.33037   0.62947   0.00000  Uiso   1.00
O839   O     0.12827   0.20945   0.60458   0.00000  Uiso   1.00
C840   C     0.12462   0.25247   0.59375   0.00000  Uiso   1.00
H841   H     0.08961   0.26361   0.62126   0.00000  Uiso   1.00
H842   H     0.12374   0.25756   0.55228   0.00000  Uiso   1.00
C843   C     0.16466   0.27869   0.60380   0.00000  Uiso   1.00
H844   H     0.16759   0.27076   0.64359   0.00000  Uiso   1.00
H845   H     0.19953   0.27152   0.57278   0.00000  Uiso   1.00
C846   C     0.15521   0.32530   0.60164   0.00000  Uiso   1.00
H847   H     0.15225   0.00044   0.56193   0.00000  Uiso   1.00
H848   H     0.18523   0.00977   0.60796   0.00000  Uiso   1.00
H849   H     0.12168   0.00077   0.63366   0.00000  Uiso   1.00
O850   O     0.04481   0.14789   0.91706   0.00000  Uiso   1.00
C851   C     0.04504   0.10400   0.91264   0.00000  Uiso   1.00
H852   H     0.02775   0.08983   0.95285   0.00000  Uiso   1.00
H853   H     0.08227   0.09161   0.89530   0.00000  Uiso   1.00
C854   C     0.01684   0.09163   0.87538   0.00000  Uiso   1.00
H855   H     0.31272   0.10312   0.89231   0.00000  Uiso   1.00
H856   H     0.03338   0.10634   0.83549   0.00000  Uiso   1.00
C857   C     0.01637   0.04445   0.86805   0.00000  Uiso   1.00
H858   H     0.05351   0.03239   0.85077   0.00000  Uiso   1.00
H859   H     0.32956   0.03665   0.84021   0.00000  Uiso   1.00
H860   H     0.33204   0.02904   0.90722   0.00000  Uiso   1.00
C861   C     0.49962   0.24671   0.75120   0.00000  Uiso   1.00
C862   C     0.47750   0.18461   0.99234   0.00000  Uiso   1.00
C863   C     0.48882   0.19017   0.93666   0.00000  Uiso   1.00
C864   C     0.51382   0.19174   0.51549   0.00000  Uiso   1.00
C865   C     0.56172   0.19762   0.98267   0.00000  Uiso   1.00
C866   C     0.57047   0.20974   0.92967   0.00000  Uiso   1.00
C867   C     0.53289   0.20947   0.90847   0.00000  Uiso   1.00
C868   C     0.50420   0.19268   0.57068   0.00000  Uiso   1.00
C869   C     0.58823   0.18067   0.55819   0.00000  Uiso   1.00
C870   C     0.45702   0.17478   0.91058   0.00000  Uiso   1.00
C871   C     0.53458   0.31199   0.76702   0.00000  Uiso   1.00
C872   C     0.47371   0.16934   0.85198   0.00000  Uiso   1.00
C873   C     0.53435   0.02138   0.76740   0.00000  Uiso   1.00
C874   C     0.49855   0.04251   0.75371   0.00000  Uiso   1.00
C875   C     0.46146   0.02133   0.74263   0.00000  Uiso   1.00
C876   C     0.46123   0.31205   0.74314   0.00000  Uiso   1.00
C877   C     0.49849   0.29085   0.75388   0.00000  Uiso   1.00
C878   C     0.65188   0.13991   0.71714   0.00000  Uiso   1.00
C879   C     0.36695   0.14040   0.71703   0.00000  Uiso   1.00
C880   C     0.34810   0.19343   0.78215   0.00000  Uiso   1.00
C881   C     0.63373   0.19374   0.78163   0.00000  Uiso   1.00
C882   C     0.49965   0.08663   0.75104   0.00000  Uiso   1.00
C883   C     0.52601   0.16963   0.64830   0.00000  Uiso   1.00
C884   C     0.59905   0.19254   0.50442   0.00000  Uiso   1.00
C885   C     0.54024   0.18008   0.59145   0.00000  Uiso   1.00
C886   C     0.41128   0.15986   0.94134   0.00000  Uiso   1.00
C887   C     0.39892   0.15792   0.99707   0.00000  Uiso   1.00
C888   C     0.43214   0.16843   0.52215   0.00000  Uiso   1.00
H889   H     0.61691   0.17386   0.57420   0.00000  Uiso   1.00
H890   H     0.56221   0.03774   0.77791   0.00000  Uiso   1.00
H891   H     0.43324   0.03753   0.73258   0.00000  Uiso   1.00
H892   H     0.43285   0.29585   0.73342   0.00000  Uiso   1.00
H893   H     0.39345   0.12035   0.69010   0.00000  Uiso   1.00
H894   H     0.35891   0.21496   0.80778   0.00000  Uiso   1.00
H895   H     0.60897   0.21630   0.80566   0.00000  Uiso   1.00
H896   H     0.60584   0.21965   0.90508   0.00000  Uiso   1.00
H897   H     0.63607   0.19599   0.97957   0.00000  Uiso   1.00
H898   H     0.42233   0.16192   0.56457   0.00000  Uiso   1.00
H899   H     0.36424   0.14599   0.52077   0.00000  Uiso   1.00
H900   H     0.53899   0.22296   0.86937   0.00000  Uiso   1.00
H901   H     0.56284   0.29564   0.77678   0.00000  Uiso   1.00
N902   N     0.38093   0.16668   0.75002   0.00000  Uiso   1.00
N903   N     0.61906   0.16665   0.75001   0.00000  Uiso   1.00
O904   O     0.46179   0.22775   0.75001   0.00000  Uiso   1.00
O905   O     0.53823   0.22774   0.75001   0.00000  Uiso   1.00
O906   O     0.44280   0.16666   0.82681   0.00000  Uiso   1.00
O907   O     0.51924   0.16665   0.82681   0.00000  Uiso   1.00
O908   O     0.46177   0.10559   0.75000   0.00000  Uiso   1.00
O909   O     0.53821   0.10558   0.75000   0.00000  Uiso   1.00
O910   O     0.48076   0.16668   0.67319   0.00000  Uiso   1.00
O911   O     0.55720   0.16667   0.67319   0.00000  Uiso   1.00
Zn912  Zn    0.44896   0.16667   0.75000   0.00000  Uiso   1.00
Zn913  Zn    0.55104   0.16666   0.75000   0.00000  Uiso   1.00
O914   O     0.63842   0.11663   0.67998   0.00000  Uiso   1.00
C915   C     0.64870   0.07372   0.68258   0.00000  Uiso   1.00
H916   H     0.61481   0.05646   0.68859   0.00000  Uiso   1.00
H917   H     0.66165   0.06495   0.71660   0.00000  Uiso   1.00
C918   C     0.35128   0.05939   0.62921   0.00000  Uiso   1.00
H919   H     0.33882   0.06953   0.59556   0.00000  Uiso   1.00
H920   H     0.38677   0.07380   0.62364   0.00000  Uiso   1.00
C921   C     0.35660   0.01202   0.62735   0.00000  Uiso   1.00
H922   H     0.36776   0.00093   0.66148   0.00000  Uiso   1.00
H923   H     0.38413   0.00257   0.58916   0.00000  Uiso   1.00
H924   H     0.65543   0.33037   0.62947   0.00000  Uiso   1.00
O925   O     0.46160   0.20945   0.60458   0.00000  Uiso   1.00
C926   C     0.45795   0.25247   0.59375   0.00000  Uiso   1.00
H927   H     0.42295   0.26361   0.62126   0.00000  Uiso   1.00
H928   H     0.45708   0.25756   0.55228   0.00000  Uiso   1.00
C929   C     0.49799   0.27869   0.60380   0.00000  Uiso   1.00
H930   H     0.50093   0.27076   0.64359   0.00000  Uiso   1.00
H931   H     0.53286   0.27152   0.57278   0.00000  Uiso   1.00
C932   C     0.48854   0.32530   0.60164   0.00000  Uiso   1.00
H933   H     0.48559   0.00044   0.56193   0.00000  Uiso   1.00
H934   H     0.51856   0.00977   0.60796   0.00000  Uiso   1.00
H935   H     0.45501   0.00077   0.63366   0.00000  Uiso   1.00
O936   O     0.37815   0.14789   0.91706   0.00000  Uiso   1.00
C937   C     0.37838   0.10400   0.91264   0.00000  Uiso   1.00
H938   H     0.36108   0.08983   0.95285   0.00000  Uiso   1.00
H939   H     0.41560   0.09161   0.89530   0.00000  Uiso   1.00
C940   C     0.35017   0.09163   0.87538   0.00000  Uiso   1.00
H941   H     0.64605   0.10312   0.89231   0.00000  Uiso   1.00
H942   H     0.36672   0.10634   0.83549   0.00000  Uiso   1.00
C943   C     0.34971   0.04445   0.86805   0.00000  Uiso   1.00
H944   H     0.38684   0.03239   0.85077   0.00000  Uiso   1.00
H945   H     0.66290   0.03665   0.84021   0.00000  Uiso   1.00
H946   H     0.66538   0.02904   0.90722   0.00000  Uiso   1.00
C947   C     0.83295   0.24671   0.75120   0.00000  Uiso   1.00
C948   C     0.81083   0.18461   0.99234   0.00000  Uiso   1.00
C949   C     0.82216   0.19017   0.93666   0.00000  Uiso   1.00
C950   C     0.84715   0.19174   0.51549   0.00000  Uiso   1.00
C951   C     0.89505   0.19762   0.98267   0.00000  Uiso   1.00
C952   C     0.90380   0.20974   0.92967   0.00000  Uiso   1.00
C953   C     0.86622   0.20947   0.90847   0.00000  Uiso   1.00
C954   C     0.83753   0.19268   0.57068   0.00000  Uiso   1.00
C955   C     0.92156   0.18067   0.55819   0.00000  Uiso   1.00
C956   C     0.79035   0.17478   0.91058   0.00000  Uiso   1.00
C957   C     0.86791   0.31199   0.76702   0.00000  Uiso   1.00
C958   C     0.80704   0.16934   0.85198   0.00000  Uiso   1.00
C959   C     0.86768   0.02138   0.76740   0.00000  Uiso   1.00
C960   C     0.83188   0.04251   0.75371   0.00000  Uiso   1.00
C961   C     0.79479   0.02133   0.74263   0.00000  Uiso   1.00
C962   C     0.79456   0.31205   0.74314   0.00000  Uiso   1.00
C963   C     0.83183   0.29085   0.75388   0.00000  Uiso   1.00
C964   C     0.98521   0.13991   0.71714   0.00000  Uiso   1.00
C965   C     0.70028   0.14040   0.71703   0.00000  Uiso   1.00
C966   C     0.68144   0.19343   0.78215   0.00000  Uiso   1.00
C967   C     0.96706   0.19374   0.78163   0.00000  Uiso   1.00
C968   C     0.83298   0.08663   0.75104   0.00000  Uiso   1.00
C969   C     0.85934   0.16963   0.64830   0.00000  Uiso   1.00
C970   C     0.93238   0.19254   0.50442   0.00000  Uiso   1.00
C971   C     0.87357   0.18008   0.59145   0.00000  Uiso   1.00
C972   C     0.74462   0.15986   0.94134   0.00000  Uiso   1.00
C973   C     0.73226   0.15792   0.99707   0.00000  Uiso   1.00
C974   C     0.76547   0.16843   0.52215   0.00000  Uiso   1.00
H975   H     0.95025   0.17386   0.57420   0.00000  Uiso   1.00
H976   H     0.89554   0.03774   0.77791   0.00000  Uiso   1.00
H977   H     0.76657   0.03753   0.73258   0.00000  Uiso   1.00
H978   H     0.76618   0.29585   0.73342   0.00000  Uiso   1.00
H979   H     0.72678   0.12035   0.69010   0.00000  Uiso   1.00
H980   H     0.69224   0.21496   0.80778   0.00000  Uiso   1.00
H981   H     0.94230   0.21630   0.80566   0.00000  Uiso   1.00
H982   H     0.93917   0.21965   0.90508   0.00000  Uiso   1.00
H983   H     0.96941   0.19599   0.97957   0.00000  Uiso   1.00
H984   H     0.75566   0.16192   0.56457   0.00000  Uiso   1.00
H985   H     0.69757   0.14599   0.52077   0.00000  Uiso   1.00
H986   H     0.87232   0.22296   0.86937   0.00000  Uiso   1.00
H987   H     0.89617   0.29564   0.77678   0.00000  Uiso   1.00
N988   N     0.71426   0.16668   0.75002   0.00000  Uiso   1.00
N989   N     0.95239   0.16665   0.75001   0.00000  Uiso   1.00
O990   O     0.79512   0.22775   0.75001   0.00000  Uiso   1.00
O991   O     0.87157   0.22774   0.75001   0.00000  Uiso   1.00
O992   O     0.77613   0.16666   0.82681   0.00000  Uiso   1.00
O993   O     0.85258   0.16665   0.82681   0.00000  Uiso   1.00
O994   O     0.79510   0.10559   0.75000   0.00000  Uiso   1.00
O995   O     0.87154   0.10558   0.75000   0.00000  Uiso   1.00
O996   O     0.81409   0.16668   0.67319   0.00000  Uiso   1.00
O997   O     0.89053   0.16667   0.67319   0.00000  Uiso   1.00
Zn998  Zn    0.78229   0.16667   0.75000   0.00000  Uiso   1.00
Zn999  Zn    0.88438   0.16666   0.75000   0.00000  Uiso   1.00
O1000  O     0.97176   0.11663   0.67998   0.00000  Uiso   1.00
C1001  C     0.98204   0.07372   0.68258   0.00000  Uiso   1.00
H1002  H     0.94814   0.05646   0.68859   0.00000  Uiso   1.00
H1003  H     0.99498   0.06495   0.71660   0.00000  Uiso   1.00
C1004  C     0.68462   0.05939   0.62921   0.00000  Uiso   1.00
H1005  H     0.67216   0.06953   0.59556   0.00000  Uiso   1.00
H1006  H     0.72010   0.07380   0.62364   0.00000  Uiso   1.00
C1007  C     0.68994   0.01202   0.62735   0.00000  Uiso   1.00
H1008  H     0.70110   0.00093   0.66148   0.00000  Uiso   1.00
H1009  H     0.71746   0.00257   0.58916   0.00000  Uiso   1.00
H1010  H     0.98876   0.33037   0.62947   0.00000  Uiso   1.00
O1011  O     0.79493   0.20945   0.60458   0.00000  Uiso   1.00
C1012  C     0.79128   0.25247   0.59375   0.00000  Uiso   1.00
H1013  H     0.75628   0.26361   0.62126   0.00000  Uiso   1.00
H1014  H     0.79041   0.25756   0.55228   0.00000  Uiso   1.00
C1015  C     0.83133   0.27869   0.60380   0.00000  Uiso   1.00
H1016  H     0.83426   0.27076   0.64359   0.00000  Uiso   1.00
H1017  H     0.86620   0.27152   0.57278   0.00000  Uiso   1.00
C1018  C     0.82188   0.32530   0.60164   0.00000  Uiso   1.00
H1019  H     0.81892   0.00044   0.56193   0.00000  Uiso   1.00
H1020  H     0.85190   0.00977   0.60796   0.00000  Uiso   1.00
H1021  H     0.78835   0.00077   0.63366   0.00000  Uiso   1.00
O1022  O     0.71148   0.14789   0.91706   0.00000  Uiso   1.00
C1023  C     0.71171   0.10400   0.91264   0.00000  Uiso   1.00
H1024  H     0.69442   0.08983   0.95285   0.00000  Uiso   1.00
H1025  H     0.74893   0.09161   0.89530   0.00000  Uiso   1.00
C1026  C     0.68351   0.09163   0.87538   0.00000  Uiso   1.00
H1027  H     0.97938   0.10312   0.89231   0.00000  Uiso   1.00
H1028  H     0.70005   0.10634   0.83549   0.00000  Uiso   1.00
C1029  C     0.68304   0.04445   0.86805   0.00000  Uiso   1.00
H1030  H     0.72017   0.03239   0.85077   0.00000  Uiso   1.00
H1031  H     0.99623   0.03665   0.84021   0.00000  Uiso   1.00
H1032  H     0.99871   0.02904   0.90722   0.00000  Uiso   1.00
C1033  C     0.16628   0.58004   0.75120   0.00000  Uiso   1.00
C1034  C     0.14417   0.51795   0.99234   0.00000  Uiso   1.00
C1035  C     0.15549   0.52351   0.93666   0.00000  Uiso   1.00
C1036  C     0.18048   0.52507   0.51549   0.00000  Uiso   1.00
C1037  C     0.22838   0.53096   0.98267   0.00000  Uiso   1.00
C1038  C     0.23714   0.54307   0.92967   0.00000  Uiso   1.00
C1039  C     0.19955   0.54280   0.90847   0.00000  Uiso   1.00
C1040  C     0.17087   0.52601   0.57068   0.00000  Uiso   1.00
C1041  C     0.25489   0.51400   0.55819   0.00000  Uiso   1.00
C1042  C     0.12369   0.50811   0.91058   0.00000  Uiso   1.00
C1043  C     0.20124   0.64532   0.76702   0.00000  Uiso   1.00
C1044  C     0.14037   0.50267   0.85198   0.00000  Uiso   1.00
C1045  C     0.20101   0.35471   0.76740   0.00000  Uiso   1.00
C1046  C     0.16521   0.37585   0.75371   0.00000  Uiso   1.00
C1047  C     0.12813   0.35467   0.74263   0.00000  Uiso   1.00
C1048  C     0.12789   0.64538   0.74314   0.00000  Uiso   1.00
C1049  C     0.16516   0.62418   0.75388   0.00000  Uiso   1.00
C1050  C     0.31854   0.47325   0.71714   0.00000  Uiso   1.00
C1051  C     0.03362   0.47373   0.71703   0.00000  Uiso   1.00
C1052  C     0.01477   0.52677   0.78215   0.00000  Uiso   1.00
C1053  C     0.30040   0.52707   0.78163   0.00000  Uiso   1.00
C1054  C     0.16631   0.41996   0.75104   0.00000  Uiso   1.00
C1055  C     0.19267   0.50297   0.64830   0.00000  Uiso   1.00
C1056  C     0.26571   0.52588   0.50442   0.00000  Uiso   1.00
C1057  C     0.20691   0.51341   0.59145   0.00000  Uiso   1.00
C1058  C     0.07795   0.49319   0.94134   0.00000  Uiso   1.00
C1059  C     0.06559   0.49125   0.99707   0.00000  Uiso   1.00
C1060  C     0.09881   0.50176   0.52215   0.00000  Uiso   1.00
H1061  H     0.28358   0.50719   0.57420   0.00000  Uiso   1.00
H1062  H     0.22887   0.37107   0.77791   0.00000  Uiso   1.00
H1063  H     0.09991   0.37086   0.73258   0.00000  Uiso   1.00
H1064  H     0.09951   0.62918   0.73342   0.00000  Uiso   1.00
H1065  H     0.06011   0.45368   0.69010   0.00000  Uiso   1.00
H1066  H     0.02557   0.54829   0.80778   0.00000  Uiso   1.00
H1067  H     0.27563   0.54963   0.80566   0.00000  Uiso   1.00
H1068  H     0.27251   0.55298   0.90508   0.00000  Uiso   1.00
H1069  H     0.30274   0.52933   0.97957   0.00000  Uiso   1.00
H1070  H     0.08900   0.49525   0.56457   0.00000  Uiso   1.00
H1071  H     0.03090   0.47933   0.52077   0.00000  Uiso   1.00
H1072  H     0.20565   0.55629   0.86937   0.00000  Uiso   1.00
H1073  H     0.22951   0.62897   0.77678   0.00000  Uiso   1.00
N1074  N     0.04760   0.50001   0.75002   0.00000  Uiso   1.00
N1075  N     0.28573   0.49998   0.75001   0.00000  Uiso   1.00
O1076  O     0.12846   0.56108   0.75001   0.00000  Uiso   1.00
O1077  O     0.20490   0.56107   0.75001   0.00000  Uiso   1.00
O1078  O     0.10947   0.50000   0.82681   0.00000  Uiso   1.00
O1079  O     0.18591   0.49999   0.82681   0.00000  Uiso   1.00
O1080  O     0.12843   0.43893   0.75000   0.00000  Uiso   1.00
O1081  O     0.20488   0.43892   0.75000   0.00000  Uiso   1.00
O1082  O     0.14742   0.50001   0.67319   0.00000  Uiso   1.00
O1083  O     0.22387   0.50000   0.67319   0.00000  Uiso   1.00
Zn1084 Zn    0.11562   0.50001   0.75000   0.00000  Uiso   1.00
Zn1085 Zn    0.21771   0.49999   0.75000   0.00000  Uiso   1.00
O1086  O     0.30509   0.44997   0.67998   0.00000  Uiso   1.00
C1087  C     0.31537   0.40705   0.68258   0.00000  Uiso   1.00
H1088  H     0.28148   0.38980   0.68859   0.00000  Uiso   1.00
H1089  H     0.32831   0.39828   0.71660   0.00000  Uiso   1.00
C1090  C     0.01795   0.39272   0.62921   0.00000  Uiso   1.00
H1091  H     0.00549   0.40286   0.59556   0.00000  Uiso   1.00
H1092  H     0.05344   0.40713   0.62364   0.00000  Uiso   1.00
C1093  C     0.02327   0.34535   0.62735   0.00000  Uiso   1.00
H1094  H     0.03443   0.33426   0.66148   0.00000  Uiso   1.00
H1095  H     0.05080   0.33590   0.58916   0.00000  Uiso   1.00
H1096  H     0.32210   0.66370   0.62947   0.00000  Uiso   1.00
O1097  O     0.12827   0.54278   0.60458   0.00000  Uiso   1.00
C1098  C     0.12462   0.58580   0.59375   0.00000  Uiso   1.00
H1099  H     0.08961   0.59694   0.62126   0.00000  Uiso   1.00
H1100  H     0.12374   0.59089   0.55228   0.00000  Uiso   1.00
C1101  C     0.16466   0.61203   0.60380   0.00000  Uiso   1.00
H1102  H     0.16759   0.60409   0.64359   0.00000  Uiso   1.00
H1103  H     0.19953   0.60485   0.57278   0.00000  Uiso   1.00
C1104  C     0.15521   0.65863   0.60164   0.00000  Uiso   1.00
H1105  H     0.15225   0.33378   0.56193   0.00000  Uiso   1.00
H1106  H     0.18523   0.34310   0.60796   0.00000  Uiso   1.00
H1107  H     0.12168   0.33410   0.63366   0.00000  Uiso   1.00
O1108  O     0.04481   0.48122   0.91706   0.00000  Uiso   1.00
C1109  C     0.04504   0.43733   0.91264   0.00000  Uiso   1.00
H1110  H     0.02775   0.42316   0.95285   0.00000  Uiso   1.00
H1111  H     0.08227   0.42494   0.89530   0.00000  Uiso   1.00
C1112  C     0.01684   0.42496   0.87538   0.00000  Uiso   1.00
H1113  H     0.31272   0.43645   0.89231   0.00000  Uiso   1.00
H1114  H     0.03338   0.43968   0.83549   0.00000  Uiso   1.00
C1115  C     0.01637   0.37779   0.86805   0.00000  Uiso   1.00
H1116  H     0.05351   0.36572   0.85077   0.00000  Uiso   1.00
H1117  H     0.32956   0.36998   0.84021   0.00000  Uiso   1.00
H1118  H     0.33204   0.36238   0.90722   0.00000  Uiso   1.00
C1119  C     0.49962   0.58004   0.75120   0.00000  Uiso   1.00
C1120  C     0.47750   0.51795   0.99234   0.00000  Uiso   1.00
C1121  C     0.48882   0.52351   0.93666   0.00000  Uiso   1.00
C1122  C     0.51382   0.52507   0.51549   0.00000  Uiso   1.00
C1123  C     0.56172   0.53096   0.98267   0.00000  Uiso   1.00
C1124  C     0.57047   0.54307   0.92967   0.00000  Uiso   1.00
C1125  C     0.53289   0.54280   0.90847   0.00000  Uiso   1.00
C1126  C     0.50420   0.52601   0.57068   0.00000  Uiso   1.00
C1127  C     0.58823   0.51400   0.55819   0.00000  Uiso   1.00
C1128  C     0.45702   0.50811   0.91058   0.00000  Uiso   1.00
C1129  C     0.53458   0.64532   0.76702   0.00000  Uiso   1.00
C1130  C     0.47371   0.50267   0.85198   0.00000  Uiso   1.00
C1131  C     0.53435   0.35471   0.76740   0.00000  Uiso   1.00
C1132  C     0.49855   0.37585   0.75371   0.00000  Uiso   1.00
C1133  C     0.46146   0.35467   0.74263   0.00000  Uiso   1.00
C1134  C     0.46123   0.64538   0.74314   0.00000  Uiso   1.00
C1135  C     0.49849   0.62418   0.75388   0.00000  Uiso   1.00
C1136  C     0.65188   0.47325   0.71714   0.00000  Uiso   1.00
C1137  C     0.36695   0.47373   0.71703   0.00000  Uiso   1.00
C1138  C     0.34810   0.52677   0.78215   0.00000  Uiso   1.00
C1139  C     0.63373   0.52707   0.78163   0.00000  Uiso   1.00
C1140  C     0.49965   0.41996   0.75104   0.00000  Uiso   1.00
C1141  C     0.52601   0.50297   0.64830   0.00000  Uiso   1.00
C1142  C     0.59905   0.52588   0.50442   0.00000  Uiso   1.00
C1143  C     0.54024   0.51341   0.59145   0.00000  Uiso   1.00
C1144  C     0.41128   0.49319   0.94134   0.00000  Uiso   1.00
C1145  C     0.39892   0.49125   0.99707   0.00000  Uiso   1.00
C1146  C     0.43214   0.50176   0.52215   0.00000  Uiso   1.00
H1147  H     0.61691   0.50719   0.57420   0.00000  Uiso   1.00
H1148  H     0.56221   0.37107   0.77791   0.00000  Uiso   1.00
H1149  H     0.43324   0.37086   0.73258   0.00000  Uiso   1.00
H1150  H     0.43285   0.62918   0.73342   0.00000  Uiso   1.00
H1151  H     0.39345   0.45368   0.69010   0.00000  Uiso   1.00
H1152  H     0.35891   0.54829   0.80778   0.00000  Uiso   1.00
H1153  H     0.60897   0.54963   0.80566   0.00000  Uiso   1.00
H1154  H     0.60584   0.55298   0.90508   0.00000  Uiso   1.00
H1155  H     0.63607   0.52933   0.97957   0.00000  Uiso   1.00
H1156  H     0.42233   0.49525   0.56457   0.00000  Uiso   1.00
H1157  H     0.36424   0.47933   0.52077   0.00000  Uiso   1.00
H1158  H     0.53899   0.55629   0.86937   0.00000  Uiso   1.00
H1159  H     0.56284   0.62897   0.77678   0.00000  Uiso   1.00
N1160  N     0.38093   0.50001   0.75002   0.00000  Uiso   1.00
N1161  N     0.61906   0.49998   0.75001   0.00000  Uiso   1.00
O1162  O     0.46179   0.56108   0.75001   0.00000  Uiso   1.00
O1163  O     0.53823   0.56107   0.75001   0.00000  Uiso   1.00
O1164  O     0.44280   0.50000   0.82681   0.00000  Uiso   1.00
O1165  O     0.51924   0.49999   0.82681   0.00000  Uiso   1.00
O1166  O     0.46177   0.43893   0.75000   0.00000  Uiso   1.00
O1167  O     0.53821   0.43892   0.75000   0.00000  Uiso   1.00
O1168  O     0.48076   0.50001   0.67319   0.00000  Uiso   1.00
O1169  O     0.55720   0.50000   0.67319   0.00000  Uiso   1.00
Zn1170 Zn    0.44896   0.50001   0.75000   0.00000  Uiso   1.00
Zn1171 Zn    0.55104   0.49999   0.75000   0.00000  Uiso   1.00
O1172  O     0.63842   0.44997   0.67998   0.00000  Uiso   1.00
C1173  C     0.64870   0.40705   0.68258   0.00000  Uiso   1.00
H1174  H     0.61481   0.38980   0.68859   0.00000  Uiso   1.00
H1175  H     0.66165   0.39828   0.71660   0.00000  Uiso   1.00
C1176  C     0.35128   0.39272   0.62921   0.00000  Uiso   1.00
H1177  H     0.33882   0.40286   0.59556   0.00000  Uiso   1.00
H1178  H     0.38677   0.40713   0.62364   0.00000  Uiso   1.00
C1179  C     0.35660   0.34535   0.62735   0.00000  Uiso   1.00
H1180  H     0.36776   0.33426   0.66148   0.00000  Uiso   1.00
H1181  H     0.38413   0.33590   0.58916   0.00000  Uiso   1.00
H1182  H     0.65543   0.66370   0.62947   0.00000  Uiso   1.00
O1183  O     0.46160   0.54278   0.60458   0.00000  Uiso   1.00
C1184  C     0.45795   0.58580   0.59375   0.00000  Uiso   1.00
H1185  H     0.42295   0.59694   0.62126   0.00000  Uiso   1.00
H1186  H     0.45708   0.59089   0.55228   0.00000  Uiso   1.00
C1187  C     0.49799   0.61203   0.60380   0.00000  Uiso   1.00
H1188  H     0.50093   0.60409   0.64359   0.00000  Uiso   1.00
H1189  H     0.53286   0.60485   0.57278   0.00000  Uiso   1.00
C1190  C     0.48854   0.65863   0.60164   0.00000  Uiso   1.00
H1191  H     0.48559   0.33378   0.56193   0.00000  Uiso   1.00
H1192  H     0.51856   0.34310   0.60796   0.00000  Uiso   1.00
H1193  H     0.45501   0.33410   0.63366   0.00000  Uiso   1.00
O1194  O     0.37815   0.48122   0.91706   0.00000  Uiso   1.00
C1195  C     0.37838   0.43733   0.91264   0.00000  Uiso   1.00
H1196  H     0.36108   0.42316   0.95285   0.00000  Uiso   1.00
H1197  H     0.41560   0.42494   0.89530   0.00000  Uiso   1.00
C1198  C     0.35017   0.42496   0.87538   0.00000  Uiso   1.00
H1199  H     0.64605   0.43645   0.89231   0.00000  Uiso   1.00
H1200  H     0.36672   0.43968   0.83549   0.00000  Uiso   1.00
C1201  C     0.34971   0.37779   0.86805   0.00000  Uiso   1.00
H1202  H     0.38684   0.36572   0.85077   0.00000  Uiso   1.00
H1203  H     0.66290   0.36998   0.84021   0.00000  Uiso   1.00
H1204  H     0.66538   0.36238   0.90722   0.00000  Uiso   1.00
C1205  C     0.83295   0.58004   0.75120   0.00000  Uiso   1.00
C1206  C     0.81083   0.51795   0.99234   0.00000  Uiso   1.00
C1207  C     0.82216   0.52351   0.93666   0.00000  Uiso   1.00
C1208  C     0.84715   0.52507   0.51549   0.00000  Uiso   1.00
C1209  C     0.89505   0.53096   0.98267   0.00000  Uiso   1.00
C1210  C     0.90380   0.54307   0.92967   0.00000  Uiso   1.00
C1211  C     0.86622   0.54280   0.90847   0.00000  Uiso   1.00
C1212  C     0.83753   0.52601   0.57068   0.00000  Uiso   1.00
C1213  C     0.92156   0.51400   0.55819   0.00000  Uiso   1.00
C1214  C     0.79035   0.50811   0.91058   0.00000  Uiso   1.00
C1215  C     0.86791   0.64532   0.76702   0.00000  Uiso   1.00
C1216  C     0.80704   0.50267   0.85198   0.00000  Uiso   1.00
C1217  C     0.86768   0.35471   0.76740   0.00000  Uiso   1.00
C1218  C     0.83188   0.37585   0.75371   0.00000  Uiso   1.00
C1219  C     0.79479   0.35467   0.74263   0.00000  Uiso   1.00
C1220  C     0.79456   0.64538   0.74314   0.00000  Uiso   1.00
C1221  C     0.83183   0.62418   0.75388   0.00000  Uiso   1.00
C1222  C     0.98521   0.47325   0.71714   0.00000  Uiso   1.00
C1223  C     0.70028   0.47373   0.71703   0.00000  Uiso   1.00
C1224  C     0.68144   0.52677   0.78215   0.00000  Uiso   1.00
C1225  C     0.96706   0.52707   0.78163   0.00000  Uiso   1.00
C1226  C     0.83298   0.41996   0.75104   0.00000  Uiso   1.00
C1227  C     0.85934   0.50297   0.64830   0.00000  Uiso   1.00
C1228  C     0.93238   0.52588   0.50442   0.00000  Uiso   1.00
C1229  C     0.87357   0.51341   0.59145   0.00000  Uiso   1.00
C1230  C     0.74462   0.49319   0.94134   0.00000  Uiso   1.00
C1231  C     0.73226   0.49125   0.99707   0.00000  Uiso   1.00
C1232  C     0.76547   0.50176   0.52215   0.00000  Uiso   1.00
H1233  H     0.95025   0.50719   0.57420   0.00000  Uiso   1.00
H1234  H     0.89554   0.37107   0.77791   0.00000  Uiso   1.00
H1235  H     0.76657   0.37086   0.73258   0.00000  Uiso   1.00
H1236  H     0.76618   0.62918   0.73342   0.00000  Uiso   1.00
H1237  H     0.72678   0.45368   0.69010   0.00000  Uiso   1.00
H1238  H     0.69224   0.54829   0.80778   0.00000  Uiso   1.00
H1239  H     0.94230   0.54963   0.80566   0.00000  Uiso   1.00
H1240  H     0.93917   0.55298   0.90508   0.00000  Uiso   1.00
H1241  H     0.96941   0.52933   0.97957   0.00000  Uiso   1.00
H1242  H     0.75566   0.49525   0.56457   0.00000  Uiso   1.00
H1243  H     0.69757   0.47933   0.52077   0.00000  Uiso   1.00
H1244  H     0.87232   0.55629   0.86937   0.00000  Uiso   1.00
H1245  H     0.89617   0.62897   0.77678   0.00000  Uiso   1.00
N1246  N     0.71426   0.50001   0.75002   0.00000  Uiso   1.00
N1247  N     0.95239   0.49998   0.75001   0.00000  Uiso   1.00
O1248  O     0.79512   0.56108   0.75001   0.00000  Uiso   1.00
O1249  O     0.87157   0.56107   0.75001   0.00000  Uiso   1.00
O1250  O     0.77613   0.50000   0.82681   0.00000  Uiso   1.00
O1251  O     0.85258   0.49999   0.82681   0.00000  Uiso   1.00
O1252  O     0.79510   0.43893   0.75000   0.00000  Uiso   1.00
O1253  O     0.87154   0.43892   0.75000   0.00000  Uiso   1.00
O1254  O     0.81409   0.50001   0.67319   0.00000  Uiso   1.00
O1255  O     0.89053   0.50000   0.67319   0.00000  Uiso   1.00
Zn1256 Zn    0.78229   0.50001   0.75000   0.00000  Uiso   1.00
Zn1257 Zn    0.88438   0.49999   0.75000   0.00000  Uiso   1.00
O1258  O     0.97176   0.44997   0.67998   0.00000  Uiso   1.00
C1259  C     0.98204   0.40705   0.68258   0.00000  Uiso   1.00
H1260  H     0.94814   0.38980   0.68859   0.00000  Uiso   1.00
H1261  H     0.99498   0.39828   0.71660   0.00000  Uiso   1.00
C1262  C     0.68462   0.39272   0.62921   0.00000  Uiso   1.00
H1263  H     0.67216   0.40286   0.59556   0.00000  Uiso   1.00
H1264  H     0.72010   0.40713   0.62364   0.00000  Uiso   1.00
C1265  C     0.68994   0.34535   0.62735   0.00000  Uiso   1.00
H1266  H     0.70110   0.33426   0.66148   0.00000  Uiso   1.00
H1267  H     0.71746   0.33590   0.58916   0.00000  Uiso   1.00
H1268  H     0.98876   0.66370   0.62947   0.00000  Uiso   1.00
O1269  O     0.79493   0.54278   0.60458   0.00000  Uiso   1.00
C1270  C     0.79128   0.58580   0.59375   0.00000  Uiso   1.00
H1271  H     0.75628   0.59694   0.62126   0.00000  Uiso   1.00
H1272  H     0.79041   0.59089   0.55228   0.00000  Uiso   1.00
C1273  C     0.83133   0.61203   0.60380   0.00000  Uiso   1.00
H1274  H     0.83426   0.60409   0.64359   0.00000  Uiso   1.00
H1275  H     0.86620   0.60485   0.57278   0.00000  Uiso   1.00
C1276  C     0.82188   0.65863   0.60164   0.00000  Uiso   1.00
H1277  H     0.81892   0.33378   0.56193   0.00000  Uiso   1.00
H1278  H     0.85190   0.34310   0.60796   0.00000  Uiso   1.00
H1279  H     0.78835   0.33410   0.63366   0.00000  Uiso   1.00
O1280  O     0.71148   0.48122   0.91706   0.00000  Uiso   1.00
C1281  C     0.71171   0.43733   0.91264   0.00000  Uiso   1.00
H1282  H     0.69442   0.42316   0.95285   0.00000  Uiso   1.00
H1283  H     0.74893   0.42494   0.89530   0.00000  Uiso   1.00
C1284  C     0.68351   0.42496   0.87538   0.00000  Uiso   1.00
H1285  H     0.97938   0.43645   0.89231   0.00000  Uiso   1.00
H1286  H     0.70005   0.43968   0.83549   0.00000  Uiso   1.00
C1287  C     0.68304   0.37779   0.86805   0.00000  Uiso   1.00
H1288  H     0.72017   0.36572   0.85077   0.00000  Uiso   1.00
H1289  H     0.99623   0.36998   0.84021   0.00000  Uiso   1.00
H1290  H     0.99871   0.36238   0.90722   0.00000  Uiso   1.00
C1291  C     0.16628   0.91338   0.75120   0.00000  Uiso   1.00
C1292  C     0.14417   0.85128   0.99234   0.00000  Uiso   1.00
C1293  C     0.15549   0.85684   0.93666   0.00000  Uiso   1.00
C1294  C     0.18048   0.85841   0.51549   0.00000  Uiso   1.00
C1295  C     0.22838   0.86429   0.98267   0.00000  Uiso   1.00
C1296  C     0.23714   0.87640   0.92967   0.00000  Uiso   1.00
C1297  C     0.19955   0.87613   0.90847   0.00000  Uiso   1.00
C1298  C     0.17087   0.85934   0.57068   0.00000  Uiso   1.00
C1299  C     0.25489   0.84734   0.55819   0.00000  Uiso   1.00
C1300  C     0.12369   0.84144   0.91058   0.00000  Uiso   1.00
C1301  C     0.20124   0.97865   0.76702   0.00000  Uiso   1.00
C1302  C     0.14037   0.83600   0.85198   0.00000  Uiso   1.00
C1303  C     0.20101   0.68804   0.76740   0.00000  Uiso   1.00
C1304  C     0.16521   0.70918   0.75371   0.00000  Uiso   1.00
C1305  C     0.12813   0.68800   0.74263   0.00000  Uiso   1.00
C1306  C     0.12789   0.97872   0.74314   0.00000  Uiso   1.00
C1307  C     0.16516   0.95751   0.75388   0.00000  Uiso   1.00
C1308  C     0.31854   0.80658   0.71714   0.00000  Uiso   1.00
C1309  C     0.03362   0.80707   0.71703   0.00000  Uiso   1.00
C1310  C     0.01477   0.86010   0.78215   0.00000  Uiso   1.00
C1311  C     0.30040   0.86040   0.78163   0.00000  Uiso   1.00
C1312  C     0.16631   0.75330   0.75104   0.00000  Uiso   1.00
C1313  C     0.19267   0.83630   0.64830   0.00000  Uiso   1.00
C1314  C     0.26571   0.85921   0.50442   0.00000  Uiso   1.00
C1315  C     0.20691   0.84674   0.59145   0.00000  Uiso   1.00
C1316  C     0.07795   0.82653   0.94134   0.00000  Uiso   1.00
C1317  C     0.06559   0.82458   0.99707   0.00000  Uiso   1.00
C1318  C     0.09881   0.83510   0.52215   0.00000  Uiso   1.00
H1319  H     0.28358   0.84052   0.57420   0.00000  Uiso   1.00
H1320  H     0.22887   0.70440   0.77791   0.00000  Uiso   1.00
H1321  H     0.09991   0.70419   0.73258   0.00000  Uiso   1.00
H1322  H     0.09951   0.96251   0.73342   0.00000  Uiso   1.00
H1323  H     0.06011   0.78702   0.69010   0.00000  Uiso   1.00
H1324  H     0.02557   0.88163   0.80778   0.00000  Uiso   1.00
H1325  H     0.27563   0.88296   0.80566   0.00000  Uiso   1.00
H1326  H     0.27251   0.88632   0.90508   0.00000  Uiso   1.00
H1327  H     0.30274   0.86266   0.97957   0.00000  Uiso   1.00
H1328  H     0.08900   0.82858   0.56457   0.00000  Uiso   1.00
H1329  H     0.03090   0.81266   0.52077   0.00000  Uiso   1.00
H1330  H     0.20565   0.88962   0.86937   0.00000  Uiso   1.00
H1331  H     0.22951   0.96230   0.77678   0.00000  Uiso   1.00
N1332  N     0.04760   0.83334   0.75002   0.00000  Uiso   1.00
N1333  N     0.28573   0.83331   0.75001   0.00000  Uiso   1.00
O1334  O     0.12846   0.89442   0.75001   0.00000  Uiso   1.00
O1335  O     0.20490   0.89441   0.75001   0.00000  Uiso   1.00
O1336  O     0.10947   0.83333   0.82681   0.00000  Uiso   1.00
O1337  O     0.18591   0.83332   0.82681   0.00000  Uiso   1.00
O1338  O     0.12843   0.77226   0.75000   0.00000  Uiso   1.00
O1339  O     0.20488   0.77225   0.75000   0.00000  Uiso   1.00
O1340  O     0.14742   0.83335   0.67319   0.00000  Uiso   1.00
O1341  O     0.22387   0.83334   0.67319   0.00000  Uiso   1.00
Zn1342 Zn    0.11562   0.83334   0.75000   0.00000  Uiso   1.00
Zn1343 Zn    0.21771   0.83333   0.75000   0.00000  Uiso   1.00
O1344  O     0.30509   0.78330   0.67998   0.00000  Uiso   1.00
C1345  C     0.31537   0.74038   0.68258   0.00000  Uiso   1.00
H1346  H     0.28148   0.72313   0.68859   0.00000  Uiso   1.00
H1347  H     0.32831   0.73162   0.71660   0.00000  Uiso   1.00
C1348  C     0.01795   0.72606   0.62921   0.00000  Uiso   1.00
H1349  H     0.00549   0.73619   0.59556   0.00000  Uiso   1.00
H1350  H     0.05344   0.74046   0.62364   0.00000  Uiso   1.00
C1351  C     0.02327   0.67869   0.62735   0.00000  Uiso   1.00
H1352  H     0.03443   0.66760   0.66148   0.00000  Uiso   1.00
H1353  H     0.05080   0.66924   0.58916   0.00000  Uiso   1.00
H1354  H     0.32210   0.99704   0.62947   0.00000  Uiso   1.00
O1355  O     0.12827   0.87612   0.60458   0.00000  Uiso   1.00
C1356  C     0.12462   0.91913   0.59375   0.00000  Uiso   1.00
H1357  H     0.08961   0.93027   0.62126   0.00000  Uiso   1.00
H1358  H     0.12374   0.92422   0.55228   0.00000  Uiso   1.00
C1359  C     0.16466   0.94536   0.60380   0.00000  Uiso   1.00
H1360  H     0.16759   0.93742   0.64359   0.00000  Uiso   1.00
H1361  H     0.19953   0.93819   0.57278   0.00000  Uiso   1.00
C1362  C     0.15521   0.99197   0.60164   0.00000  Uiso   1.00
H1363  H     0.15225   0.66711   0.56193   0.00000  Uiso   1.00
H1364  H     0.18523   0.67644   0.60796   0.00000  Uiso   1.00
H1365  H     0.12168   0.66744   0.63366   0.00000  Uiso   1.00
O1366  O     0.04481   0.81455   0.91706   0.00000  Uiso   1.00
C1367  C     0.04504   0.77066   0.91264   0.00000  Uiso   1.00
H1368  H     0.02775   0.75649   0.95285   0.00000  Uiso   1.00
H1369  H     0.08227   0.75827   0.89530   0.00000  Uiso   1.00
C1370  C     0.01684   0.75829   0.87538   0.00000  Uiso   1.00
H1371  H     0.31272   0.76979   0.89231   0.00000  Uiso   1.00
H1372  H     0.03338   0.77301   0.83549   0.00000  Uiso   1.00
C1373  C     0.01637   0.71112   0.86805   0.00000  Uiso   1.00
H1374  H     0.05351   0.69906   0.85077   0.00000  Uiso   1.00
H1375  H     0.32956   0.70332   0.84021   0.00000  Uiso   1.00
H1376  H     0.33204   0.69571   0.90722   0.00000  Uiso   1.00
C1377  C     0.49962   0.91338   0.75120   0.00000  Uiso   1.00
C1378  C     0.47750   0.85128   0.99234   0.00000  Uiso   1.00
C1379  C     0.48882   0.85684   0.93666   0.00000  Uiso   1.00
C1380  C     0.51382   0.85841   0.51549   0.00000  Uiso   1.00
C1381  C     0.56172   0.86429   0.98267   0.00000  Uiso   1.00
C1382  C     0.57047   0.87640   0.92967   0.00000  Uiso   1.00
C1383  C     0.53289   0.87613   0.90847   0.00000  Uiso   1.00
C1384  C     0.50420   0.85934   0.57068   0.00000  Uiso   1.00
C1385  C     0.58823   0.84734   0.55819   0.00000  Uiso   1.00
C1386  C     0.45702   0.84144   0.91058   0.00000  Uiso   1.00
C1387  C     0.53458   0.97865   0.76702   0.00000  Uiso   1.00
C1388  C     0.47371   0.83600   0.85198   0.00000  Uiso   1.00
C1389  C     0.53435   0.68804   0.76740   0.00000  Uiso   1.00
C1390  C     0.49855   0.70918   0.75371   0.00000  Uiso   1.00
C1391  C     0.46146   0.68800   0.74263   0.00000  Uiso   1.00
C1392  C     0.46123   0.97872   0.74314   0.00000  Uiso   1.00
C1393  C     0.49849   0.95751   0.75388   0.00000  Uiso   1.00
C1394  C     0.65188   0.80658   0.71714   0.00000  Uiso   1.00
C1395  C     0.36695   0.80707   0.71703   0.00000  Uiso   1.00
C1396  C     0.34810   0.86010   0.78215   0.00000  Uiso   1.00
C1397  C     0.63373   0.86040   0.78163   0.00000  Uiso   1.00
C1398  C     0.49965   0.75330   0.75104   0.00000  Uiso   1.00
C1399  C     0.52601   0.83630   0.64830   0.00000  Uiso   1.00
C1400  C     0.59905   0.85921   0.50442   0.00000  Uiso   1.00
C1401  C     0.54024   0.84674   0.59145   0.00000  Uiso   1.00
C1402  C     0.41128   0.82653   0.94134   0.00000  Uiso   1.00
C1403  C     0.39892   0.82458   0.99707   0.00000  Uiso   1.00
C1404  C     0.43214   0.83510   0.52215   0.00000  Uiso   1.00
H1405  H     0.61691   0.84052   0.57420   0.00000  Uiso   1.00
H1406  H     0.56221   0.70440   0.77791   0.00000  Uiso   1.00
H1407  H     0.43324   0.70419   0.73258   0.00000  Uiso   1.00
H1408  H     0.43285   0.96251   0.73342   0.00000  Uiso   1.00
H1409  H     0.39345   0.78702   0.69010   0.00000  Uiso   1.00
H1410  H     0.35891   0.88163   0.80778   0.00000  Uiso   1.00
H1411  H     0.60897   0.88296   0.80566   0.00000  Uiso   1.00
H1412  H     0.60584   0.88632   0.90508   0.00000  Uiso   1.00
H1413  H     0.63607   0.86266   0.97957   0.00000  Uiso   1.00
H1414  H     0.42233   0.82858   0.56457   0.00000  Uiso   1.00
H1415  H     0.36424   0.81266   0.52077   0.00000  Uiso   1.00
H1416  H     0.53899   0.88962   0.86937   0.00000  Uiso   1.00
H1417  H     0.56284   0.96230   0.77678   0.00000  Uiso   1.00
N1418  N     0.38093   0.83334   0.75002   0.00000  Uiso   1.00
N1419  N     0.61906   0.83331   0.75001   0.00000  Uiso   1.00
O1420  O     0.46179   0.89442   0.75001   0.00000  Uiso   1.00
O1421  O     0.53823   0.89441   0.75001   0.00000  Uiso   1.00
O1422  O     0.44280   0.83333   0.82681   0.00000  Uiso   1.00
O1423  O     0.51924   0.83332   0.82681   0.00000  Uiso   1.00
O1424  O     0.46177   0.77226   0.75000   0.00000  Uiso   1.00
O1425  O     0.53821   0.77225   0.75000   0.00000  Uiso   1.00
O1426  O     0.48076   0.83335   0.67319   0.00000  Uiso   1.00
O1427  O     0.55720   0.83334   0.67319   0.00000  Uiso   1.00
Zn1428 Zn    0.44896   0.83334   0.75000   0.00000  Uiso   1.00
Zn1429 Zn    0.55104   0.83333   0.75000   0.00000  Uiso   1.00
O1430  O     0.63842   0.78330   0.67998   0.00000  Uiso   1.00
C1431  C     0.64870   0.74038   0.68258   0.00000  Uiso   1.00
H1432  H     0.61481   0.72313   0.68859   0.00000  Uiso   1.00
H1433  H     0.66165   0.73162   0.71660   0.00000  Uiso   1.00
C1434  C     0.35128   0.72606   0.62921   0.00000  Uiso   1.00
H1435  H     0.33882   0.73619   0.59556   0.00000  Uiso   1.00
H1436  H     0.38677   0.74046   0.62364   0.00000  Uiso   1.00
C1437  C     0.35660   0.67869   0.62735   0.00000  Uiso   1.00
H1438  H     0.36776   0.66760   0.66148   0.00000  Uiso   1.00
H1439  H     0.38413   0.66924   0.58916   0.00000  Uiso   1.00
H1440  H     0.65543   0.99704   0.62947   0.00000  Uiso   1.00
O1441  O     0.46160   0.87612   0.60458   0.00000  Uiso   1.00
C1442  C     0.45795   0.91913   0.59375   0.00000  Uiso   1.00
H1443  H     0.42295   0.93027   0.62126   0.00000  Uiso   1.00
H1444  H     0.45708   0.92422   0.55228   0.00000  Uiso   1.00
C1445  C     0.49799   0.94536   0.60380   0.00000  Uiso   1.00
H1446  H     0.50093   0.93742   0.64359   0.00000  Uiso   1.00
H1447  H     0.53286   0.93819   0.57278   0.00000  Uiso   1.00
C1448  C     0.48854   0.99197   0.60164   0.00000  Uiso   1.00
H1449  H     0.48559   0.66711   0.56193   0.00000  Uiso   1.00
H1450  H     0.51856   0.67644   0.60796   0.00000  Uiso   1.00
H1451  H     0.45501   0.66744   0.63366   0.00000  Uiso   1.00
O1452  O     0.37815   0.81455   0.91706   0.00000  Uiso   1.00
C1453  C     0.37838   0.77066   0.91264   0.00000  Uiso   1.00
H1454  H     0.36108   0.75649   0.95285   0.00000  Uiso   1.00
H1455  H     0.41560   0.75827   0.89530   0.00000  Uiso   1.00
C1456  C     0.35017   0.75829   0.87538   0.00000  Uiso   1.00
H1457  H     0.64605   0.76979   0.89231   0.00000  Uiso   1.00
H1458  H     0.36672   0.77301   0.83549   0.00000  Uiso   1.00
C1459  C     0.34971   0.71112   0.86805   0.00000  Uiso   1.00
H1460  H     0.38684   0.69906   0.85077   0.00000  Uiso   1.00
H1461  H     0.66290   0.70332   0.84021   0.00000  Uiso   1.00
H1462  H     0.66538   0.69571   0.90722   0.00000  Uiso   1.00
C1463  C     0.83295   0.91338   0.75120   0.00000  Uiso   1.00
C1464  C     0.81083   0.85128   0.99234   0.00000  Uiso   1.00
C1465  C     0.82216   0.85684   0.93666   0.00000  Uiso   1.00
C1466  C     0.84715   0.85841   0.51549   0.00000  Uiso   1.00
C1467  C     0.89505   0.86429   0.98267   0.00000  Uiso   1.00
C1468  C     0.90380   0.87640   0.92967   0.00000  Uiso   1.00
C1469  C     0.86622   0.87613   0.90847   0.00000  Uiso   1.00
C1470  C     0.83753   0.85934   0.57068   0.00000  Uiso   1.00
C1471  C     0.92156   0.84734   0.55819   0.00000  Uiso   1.00
C1472  C     0.79035   0.84144   0.91058   0.00000  Uiso   1.00
C1473  C     0.86791   0.97865   0.76702   0.00000  Uiso   1.00
C1474  C     0.80704   0.83600   0.85198   0.00000  Uiso   1.00
C1475  C     0.86768   0.68804   0.76740   0.00000  Uiso   1.00
C1476  C     0.83188   0.70918   0.75371   0.00000  Uiso   1.00
C1477  C     0.79479   0.68800   0.74263   0.00000  Uiso   1.00
C1478  C     0.79456   0.97872   0.74314   0.00000  Uiso   1.00
C1479  C     0.83183   0.95751   0.75388   0.00000  Uiso   1.00
C1480  C     0.98521   0.80658   0.71714   0.00000  Uiso   1.00
C1481  C     0.70028   0.80707   0.71703   0.00000  Uiso   1.00
C1482  C     0.68144   0.86010   0.78215   0.00000  Uiso   1.00
C1483  C     0.96706   0.86040   0.78163   0.00000  Uiso   1.00
C1484  C     0.83298   0.75330   0.75104   0.00000  Uiso   1.00
C1485  C     0.85934   0.83630   0.64830   0.00000  Uiso   1.00
C1486  C     0.93238   0.85921   0.50442   0.00000  Uiso   1.00
C1487  C     0.87357   0.84674   0.59145   0.00000  Uiso   1.00
C1488  C     0.74462   0.82653   0.94134   0.00000  Uiso   1.00
C1489  C     0.73226   0.82458   0.99707   0.00000  Uiso   1.00
C1490  C     0.76547   0.83510   0.52215   0.00000  Uiso   1.00
H1491  H     0.95025   0.84052   0.57420   0.00000  Uiso   1.00
H1492  H     0.89554   0.70440   0.77791   0.00000  Uiso   1.00
H1493  H     0.76657   0.70419   0.73258   0.00000  Uiso   1.00
H1494  H     0.76618   0.96251   0.73342   0.00000  Uiso   1.00
H1495  H     0.72678   0.78702   0.69010   0.00000  Uiso   1.00
H1496  H     0.69224   0.88163   0.80778   0.00000  Uiso   1.00
H1497  H     0.94230   0.88296   0.80566   0.00000  Uiso   1.00
H1498  H     0.93917   0.88632   0.90508   0.00000  Uiso   1.00
H1499  H     0.96941   0.86266   0.97957   0.00000  Uiso   1.00
H1500  H     0.75566   0.82858   0.56457   0.00000  Uiso   1.00
H1501  H     0.69757   0.81266   0.52077   0.00000  Uiso   1.00
H1502  H     0.87232   0.88962   0.86937   0.00000  Uiso   1.00
H1503  H     0.89617   0.96230   0.77678   0.00000  Uiso   1.00
N1504  N     0.71426   0.83334   0.75002   0.00000  Uiso   1.00
N1505  N     0.95239   0.83331   0.75001   0.00000  Uiso   1.00
O1506  O     0.79512   0.89442   0.75001   0.00000  Uiso   1.00
O1507  O     0.87157   0.89441   0.75001   0.00000  Uiso   1.00
O1508  O     0.77613   0.83333   0.82681   0.00000  Uiso   1.00
O1509  O     0.85258   0.83332   0.82681   0.00000  Uiso   1.00
O1510  O     0.79510   0.77226   0.75000   0.00000  Uiso   1.00
O1511  O     0.87154   0.77225   0.75000   0.00000  Uiso   1.00
O1512  O     0.81409   0.83335   0.67319   0.00000  Uiso   1.00
O1513  O     0.89053   0.83334   0.67319   0.00000  Uiso   1.00
Zn1514 Zn    0.78229   0.83334   0.75000   0.00000  Uiso   1.00
Zn1515 Zn    0.88438   0.83333   0.75000   0.00000  Uiso   1.00
O1516  O     0.97176   0.78330   0.67998   0.00000  Uiso   1.00
C1517  C     0.98204   0.74038   0.68258   0.00000  Uiso   1.00
H1518  H     0.94814   0.72313   0.68859   0.00000  Uiso   1.00
H1519  H     0.99498   0.73162   0.71660   0.00000  Uiso   1.00
C1520  C     0.68462   0.72606   0.62921   0.00000  Uiso   1.00
H1521  H     0.67216   0.73619   0.59556   0.00000  Uiso   1.00
H1522  H     0.72010   0.74046   0.62364   0.00000  Uiso   1.00
C1523  C     0.68994   0.67869   0.62735   0.00000  Uiso   1.00
H1524  H     0.70110   0.66760   0.66148   0.00000  Uiso   1.00
H1525  H     0.71746   0.66924   0.58916   0.00000  Uiso   1.00
H1526  H     0.98876   0.99704   0.62947   0.00000  Uiso   1.00
O1527  O     0.79493   0.87612   0.60458   0.00000  Uiso   1.00
C1528  C     0.79128   0.91913   0.59375   0.00000  Uiso   1.00
H1529  H     0.75628   0.93027   0.62126   0.00000  Uiso   1.00
H1530  H     0.79041   0.92422   0.55228   0.00000  Uiso   1.00
C1531  C     0.83133   0.94536   0.60380   0.00000  Uiso   1.00
H1532  H     0.83426   0.93742   0.64359   0.00000  Uiso   1.00
H1533  H     0.86620   0.93819   0.57278   0.00000  Uiso   1.00
C1534  C     0.82188   0.99197   0.60164   0.00000  Uiso   1.00
H1535  H     0.81892   0.66711   0.56193   0.00000  Uiso   1.00
H1536  H     0.85190   0.67644   0.60796   0.00000  Uiso   1.00
H1537  H     0.78835   0.66744   0.63366   0.00000  Uiso   1.00
O1538  O     0.71148   0.81455   0.91706   0.00000  Uiso   1.00
C1539  C     0.71171   0.77066   0.91264   0.00000  Uiso   1.00
H1540  H     0.69442   0.75649   0.95285   0.00000  Uiso   1.00
H1541  H     0.74893   0.75827   0.89530   0.00000  Uiso   1.00
C1542  C     0.68351   0.75829   0.87538   0.00000  Uiso   1.00
H1543  H     0.97938   0.76979   0.89231   0.00000  Uiso   1.00
H1544  H     0.70005   0.77301   0.83549   0.00000  Uiso   1.00
C1545  C     0.68304   0.71112   0.86805   0.00000  Uiso   1.00
H1546  H     0.72017   0.69906   0.85077   0.00000  Uiso   1.00
H1547  H     0.99623   0.70332   0.84021   0.00000  Uiso   1.00
H1548  H     0.99871   0.69571   0.90722   0.00000  Uiso   1.00
loop_
_geom_bond_atom_site_label_1
_geom_bond_atom_site_label_2
_geom_bond_distance
_geom_bond_site_symmetry_2
_ccdc_geom_bond_type
C1     O44     1.280   .     A
C1     C17     1.417   .     S
C1     O45     1.283   .     A
C2     C3      1.406   .     A
C2     C778    1.411   .     S
C2     C802    1.414   .     S
C3     C7      1.415   .     A
C3     C10     1.418   .     A
C4     C8      1.387   .     A
C4     C776    1.411   1_554 S
C4     C779    1.411   1_554 S
C5     C6      1.390   .     A
C5     C778    1.411   .     S
C5     C798    1.405   .     S
C6     C7      1.393   .     A
C6     H36     1.083   .     S
C7     H40     1.077   .     S
C8     O65     1.392   .     S
C8     C25     1.403   .     A
C9     C25     1.404   .     A
C9     H29     1.082   .     S
C9     C24     1.400   .     A
C10    C26     1.415   .     A
C10    C12     1.470   .     S
C11    C17     1.396   .     A
C11    H41     1.084   .     S
C11    C271    1.371   .     S
C12    O47     1.295   .     A
C12    O46     1.291   .     A
C13    C14     1.397   .     A
C13    H30     1.083   .     S
C13    C527    1.371   1_545 S
C14    C22     1.417   .     S
C14    C15     1.396   .     A
C15    H31     1.084   .     S
C15    C532    1.367   1_545 S
C16    C17     1.397   .     A
C16    H32     1.084   .     S
C16    C273    1.367   .     S
C18    N43     1.370   .     A
C18    O54     1.385   .     S
C18    C105    1.427   .     S
C19    N42     1.365   .     A
C19    H33     1.080   .     S
C19    C190    1.427   1_455 S
C20    H34     1.082   .     S
C20    N42     1.363   .     A
C20    C193    1.412   1_455 S
C21    N43     1.366   .     A
C21    H35     1.075   .     S
C21    C106    1.412   .     S
C22    O48     1.280   .     A
C22    O49     1.283   .     A
C23    O51     1.294   .     A
C23    O50     1.287   .     A
C23    C25     1.457   .     S
C24    C779    1.405   1_554 S
C24    H811    1.083   1_554 S
C26    C27     1.394   .     A
C26    O76     1.384   .     S
C27    C802    1.388   .     S
C27    H813    1.082   .     S
C28    H38     1.080   .     S
C28    C801    1.388   1_554 S
C28    C776    1.414   1_554 S
H37    C798    1.083   .     S
H39    C801    1.082   1_554 S
N42    Zn52    2.007   .     S
N43    Zn53    2.006   .     S
O44    Zn52    1.996   .     S
O45    Zn53    1.995   .     S
O46    Zn52    1.970   .     S
O47    Zn53    1.934   .     S
O48    Zn52    1.995   .     S
O49    Zn53    1.996   .     S
O50    Zn52    1.934   .     S
O51    Zn53    1.970   .     S
O54    C55     1.416   .     S
C55    H56     1.109   .     S
C55    H57     1.117   .     S
C55    C144    1.530   .     S
C58    H60     1.110   .     S
C58    C61     1.527   .     S
C58    H59     1.112   .     S
C58    C227    1.530   1_455 S
C61    H63     1.110   .     S
C61    H62     1.111   .     S
C61    H752    1.111   1_445 S
H64    C405    1.111   .     S
O65    C66     1.421   .     S
C66    H68     1.112   .     S
C66    C69     1.541   .     S
C66    H67     1.111   .     S
C69    H71     1.111   .     S
C69    H70     1.108   .     S
C69    C72     1.525   .     S
C72    H331    1.111   .     S
C72    H332    1.111   .     S
C72    H333    1.109   .     S
H73    C588    1.111   1_545 S
H74    C588    1.111   1_545 S
H75    C588    1.109   1_545 S
O76    C77     1.412   .     S
C77    H78     1.114   .     S
C77    H79     1.117   .     S
C77    C80     1.529   .     S
C80    C83     1.526   .     S
C80    H82     1.111   .     S
C80    H253    1.112   1_455 S
H81    C166    1.112   .     S
C83    H84     1.111   .     S
C83    H257    1.111   1_455 S
C83    H258    1.111   1_455 S
H85    C169    1.111   .     S
H86    C169    1.111   .     S
C87    O130    1.280   .     A
C87    C103    1.417   .     S
C87    O131    1.283   .     A
C88    C89     1.406   .     A
C88    C864    1.411   .     S
C88    C888    1.414   .     S
C89    C93     1.415   .     A
C89    C96     1.418   .     A
C90    C94     1.387   .     A
C90    C862    1.411   1_554 S
C90    C865    1.411   1_554 S
C91    C92     1.390   .     A
C91    C864    1.411   .     S
C91    C884    1.405   .     S
C92    C93     1.393   .     A
C92    H122    1.083   .     S
C93    H126    1.077   .     S
C94    O151    1.392   .     S
C94    C111    1.403   .     A
C95    C111    1.404   .     A
C95    H115    1.082   .     S
C95    C110    1.400   .     A
C96    C112    1.415   .     A
C96    C98     1.470   .     S
C97    C103    1.396   .     A
C97    H127    1.084   .     S
C97    C357    1.371   .     S
C98    O133    1.295   .     A
C98    O132    1.291   .     A
C99    C100    1.397   .     A
C99    H116    1.083   .     S
C99    C613    1.371   1_545 S
C100   C108    1.417   .     S
C100   C101    1.396   .     A
C101   H117    1.084   .     S
C101   C618    1.367   1_545 S
C102   C103    1.397   .     A
C102   H118    1.084   .     S
C102   C359    1.367   .     S
C104   N129    1.370   .     A
C104   O140    1.385   .     S
C104   C191    1.427   .     S
C105   N128    1.365   .     A
C105   H119    1.080   .     S
C106   H120    1.082   .     S
C106   N128    1.363   .     A
C107   N129    1.366   .     A
C107   H121    1.075   .     S
C107   C192    1.412   .     S
C108   O134    1.280   .     A
C108   O135    1.283   .     A
C109   O137    1.294   .     A
C109   O136    1.287   .     A
C109   C111    1.457   .     S
C110   C865    1.405   1_554 S
C110   H897    1.083   1_554 S
C112   C113    1.394   .     A
C112   O162    1.384   .     S
C113   C888    1.388   .     S
C113   H899    1.082   .     S
C114   H124    1.080   .     S
C114   C887    1.388   1_554 S
C114   C862    1.414   1_554 S
H123   C884    1.083   .     S
H125   C887    1.082   1_554 S
N128   Zn138   2.007   .     S
N129   Zn139   2.006   .     S
O130   Zn138   1.996   .     S
O131   Zn139   1.995   .     S
O132   Zn138   1.970   .     S
O133   Zn139   1.934   .     S
O134   Zn138   1.995   .     S
O135   Zn139   1.996   .     S
O136   Zn138   1.934   .     S
O137   Zn139   1.970   .     S
O140   C141    1.416   .     S
C141   H142    1.109   .     S
C141   H143    1.117   .     S
C141   C230    1.530   .     S
C144   H146    1.110   .     S
C144   C147    1.527   .     S
C144   H145    1.112   .     S
C147   H149    1.110   .     S
C147   H148    1.111   .     S
C147   H580    1.111   1_545 S
H150   C491    1.111   .     S
O151   C152    1.421   .     S
C152   H154    1.112   .     S
C152   C155    1.541   .     S
C152   H153    1.111   .     S
C155   H157    1.111   .     S
C155   H156    1.108   .     S
C155   C158    1.525   .     S
C158   H417    1.111   .     S
C158   H418    1.111   .     S
C158   H419    1.109   .     S
H159   C674    1.111   1_545 S
H160   C674    1.111   1_545 S
H161   C674    1.109   1_545 S
O162   C163    1.412   .     S
C163   H164    1.114   .     S
C163   H165    1.117   .     S
C163   C166    1.529   .     S
C166   C169    1.526   .     S
C166   H168    1.111   .     S
H167   C252    1.112   .     S
C169   H170    1.111   .     S
H171   C255    1.111   .     S
H172   C255    1.111   .     S
C173   O216    1.280   .     A
C173   C189    1.417   .     S
C173   O217    1.283   .     A
C174   C175    1.406   .     A
C174   C950    1.411   .     S
C174   C974    1.414   .     S
C175   C179    1.415   .     A
C175   C182    1.418   .     A
C176   C180    1.387   .     A
C176   C948    1.411   1_554 S
C176   C951    1.411   1_554 S
C177   C178    1.390   .     A
C177   C950    1.411   .     S
C177   C970    1.405   .     S
C178   C179    1.393   .     A
C178   H208    1.083   .     S
C179   H212    1.077   .     S
C180   O237    1.392   .     S
C180   C197    1.403   .     A
C181   C197    1.404   .     A
C181   H201    1.082   .     S
C181   C196    1.400   .     A
C182   C198    1.415   .     A
C182   C184    1.470   .     S
C183   C189    1.396   .     A
C183   H213    1.084   .     S
C183   C443    1.371   .     S
C184   O219    1.295   .     A
C184   O218    1.291   .     A
C185   C186    1.397   .     A
C185   H202    1.083   .     S
C185   C699    1.371   1_545 S
C186   C194    1.417   .     S
C186   C187    1.396   .     A
C187   H203    1.084   .     S
C187   C704    1.367   1_545 S
C188   C189    1.397   .     A
C188   H204    1.084   .     S
C188   C445    1.367   .     S
C190   N215    1.370   .     A
C190   O226    1.385   .     S
C190   C19     1.427   1_655 S
C191   N214    1.365   .     A
C191   H205    1.080   .     S
C192   H206    1.082   .     S
C192   N214    1.363   .     A
C193   N215    1.366   .     A
C193   H207    1.075   .     S
C193   C20     1.412   1_655 S
C194   O220    1.280   .     A
C194   O221    1.283   .     A
C195   O223    1.294   .     A
C195   O222    1.287   .     A
C195   C197    1.457   .     S
C196   C951    1.405   1_554 S
C196   H983    1.083   1_554 S
C198   C199    1.394   .     A
C198   O248    1.384   .     S
C199   C974    1.388   .     S
C199   H985    1.082   .     S
C200   H210    1.080   .     S
C200   C973    1.388   1_554 S
C200   C948    1.414   1_554 S
H209   C970    1.083   .     S
H211   C973    1.082   1_554 S
N214   Zn224   2.007   .     S
N215   Zn225   2.006   .     S
O216   Zn224   1.996   .     S
O217   Zn225   1.995   .     S
O218   Zn224   1.970   .     S
O219   Zn225   1.934   .     S
O220   Zn224   1.995   .     S
O221   Zn225   1.996   .     S
O222   Zn224   1.934   .     S
O223   Zn225   1.970   .     S
O226   C227    1.416   .     S
C227   H228    1.109   .     S
C227   H229    1.117   .     S
C227   C58     1.530   1_655 S
C230   H232    1.110   .     S
C230   C233    1.527   .     S
C230   H231    1.112   .     S
C233   H235    1.110   .     S
C233   H234    1.111   .     S
C233   H666    1.111   1_545 S
H236   C319    1.111   1_655 S
O237   C238    1.421   .     S
C238   H240    1.112   .     S
C238   C241    1.541   .     S
C238   H239    1.111   .     S
C241   H243    1.111   .     S
C241   H242    1.108   .     S
C241   C244    1.525   .     S
C244   H503    1.111   .     S
C244   H504    1.111   .     S
C244   H505    1.109   .     S
H245   C760    1.111   1_545 S
H246   C760    1.111   1_545 S
H247   C760    1.109   1_545 S
O248   C249    1.412   .     S
C249   H250    1.114   .     S
C249   H251    1.117   .     S
C249   C252    1.529   .     S
C252   C255    1.526   .     S
C252   H254    1.111   .     S
H253   C80     1.112   1_655 S
C255   H256    1.111   .     S
H257   C83     1.111   1_655 S
H258   C83     1.111   1_655 S
C259   O302    1.280   .     A
C259   C275    1.417   .     S
C259   O303    1.283   .     A
C260   C261    1.406   .     A
C260   C1036   1.411   .     S
C260   C1060   1.414   .     S
C261   C265    1.415   .     A
C261   C268    1.418   .     A
C262   C266    1.387   .     A
C262   C1034   1.411   1_554 S
C262   C1037   1.411   1_554 S
C263   C264    1.390   .     A
C263   C1036   1.411   .     S
C263   C1056   1.405   .     S
C264   C265    1.393   .     A
C264   H294    1.083   .     S
C265   H298    1.077   .     S
C266   O323    1.392   .     S
C266   C283    1.403   .     A
C267   C283    1.404   .     A
C267   H287    1.082   .     S
C267   C282    1.400   .     A
C268   C284    1.415   .     A
C268   C270    1.470   .     S
C269   C275    1.396   .     A
C269   H299    1.084   .     S
C269   C529    1.371   .     S
C270   O305    1.295   .     A
C270   O304    1.291   .     A
C271   C272    1.397   .     A
C271   H288    1.083   .     S
C272   C280    1.417   .     S
C272   C273    1.396   .     A
C273   H289    1.084   .     S
C274   C275    1.397   .     A
C274   H290    1.084   .     S
C274   C531    1.367   .     S
C276   N301    1.370   .     A
C276   O312    1.385   .     S
C276   C363    1.427   .     S
C277   N300    1.365   .     A
C277   H291    1.080   .     S
C277   C448    1.427   1_455 S
C278   H292    1.082   .     S
C278   N300    1.363   .     A
C278   C451    1.412   1_455 S
C279   N301    1.366   .     A
C279   H293    1.075   .     S
C279   C364    1.412   .     S
C280   O306    1.280   .     A
C280   O307    1.283   .     A
C281   O309    1.294   .     A
C281   O308    1.287   .     A
C281   C283    1.457   .     S
C282   C1037   1.405   1_554 S
C282   H1069   1.083   1_554 S
C284   C285    1.394   .     A
C284   O334    1.384   .     S
C285   C1060   1.388   .     S
C285   H1071   1.082   .     S
C286   H296    1.080   .     S
C286   C1059   1.388   1_554 S
C286   C1034   1.414   1_554 S
H295   C1056   1.083   .     S
H297   C1059   1.082   1_554 S
N300   Zn310   2.007   .     S
N301   Zn311   2.006   .     S
O302   Zn310   1.996   .     S
O303   Zn311   1.995   .     S
O304   Zn310   1.970   .     S
O305   Zn311   1.934   .     S
O306   Zn310   1.995   .     S
O307   Zn311   1.996   .     S
O308   Zn310   1.934   .     S
O309   Zn311   1.970   .     S
O312   C313    1.416   .     S
C313   H314    1.109   .     S
C313   H315    1.117   .     S
C313   C402    1.530   .     S
C316   H318    1.110   .     S
C316   C319    1.527   .     S
C316   H317    1.112   .     S
C316   C485    1.530   1_455 S
C319   H321    1.110   .     S
C319   H320    1.111   .     S
C319   H236    1.111   1_455 S
H322   C663    1.111   .     S
O323   C324    1.421   .     S
C324   H326    1.112   .     S
C324   C327    1.541   .     S
C324   H325    1.111   .     S
C327   H329    1.111   .     S
C327   H328    1.108   .     S
C327   C330    1.525   .     S
C330   H589    1.111   .     S
C330   H590    1.111   .     S
C330   H591    1.109   .     S
O334   C335    1.412   .     S
C335   H336    1.114   .     S
C335   H337    1.117   .     S
C335   C338    1.529   .     S
C338   C341    1.526   .     S
C338   H340    1.111   .     S
C338   H511    1.112   1_455 S
H339   C424    1.112   .     S
C341   H342    1.111   .     S
C341   H515    1.111   1_455 S
C341   H516    1.111   1_455 S
H343   C427    1.111   .     S
H344   C427    1.111   .     S
C345   O388    1.280   .     A
C345   C361    1.417   .     S
C345   O389    1.283   .     A
C346   C347    1.406   .     A
C346   C1122   1.411   .     S
C346   C1146   1.414   .     S
C347   C351    1.415   .     A
C347   C354    1.418   .     A
C348   C352    1.387   .     A
C348   C1120   1.411   1_554 S
C348   C1123   1.411   1_554 S
C349   C350    1.390   .     A
C349   C1122   1.411   .     S
C349   C1142   1.405   .     S
C350   C351    1.393   .     A
C350   H380    1.083   .     S
C351   H384    1.077   .     S
C352   O409    1.392   .     S
C352   C369    1.403   .     A
C353   C369    1.404   .     A
C353   H373    1.082   .     S
C353   C368    1.400   .     A
C354   C370    1.415   .     A
C354   C356    1.470   .     S
C355   C361    1.396   .     A
C355   H385    1.084   .     S
C355   C615    1.371   .     S
C356   O391    1.295   .     A
C356   O390    1.291   .     A
C357   C358    1.397   .     A
C357   H374    1.083   .     S
C358   C366    1.417   .     S
C358   C359    1.396   .     A
C359   H375    1.084   .     S
C360   C361    1.397   .     A
C360   H376    1.084   .     S
C360   C617    1.367   .     S
C362   N387    1.370   .     A
C362   O398    1.385   .     S
C362   C449    1.427   .     S
C363   N386    1.365   .     A
C363   H377    1.080   .     S
C364   H378    1.082   .     S
C364   N386    1.363   .     A
C365   N387    1.366   .     A
C365   H379    1.075   .     S
C365   C450    1.412   .     S
C366   O392    1.280   .     A
C366   O393    1.283   .     A
C367   O395    1.294   .     A
C367   O394    1.287   .     A
C367   C369    1.457   .     S
C368   C1123   1.405   1_554 S
C368   H1155   1.083   1_554 S
C370   C371    1.394   .     A
C370   O420    1.384   .     S
C371   C1146   1.388   .     S
C371   H1157   1.082   .     S
C372   H382    1.080   .     S
C372   C1145   1.388   1_554 S
C372   C1120   1.414   1_554 S
H381   C1142   1.083   .     S
H383   C1145   1.082   1_554 S
N386   Zn396   2.007   .     S
N387   Zn397   2.006   .     S
O388   Zn396   1.996   .     S
O389   Zn397   1.995   .     S
O390   Zn396   1.970   .     S
O391   Zn397   1.934   .     S
O392   Zn396   1.995   .     S
O393   Zn397   1.996   .     S
O394   Zn396   1.934   .     S
O395   Zn397   1.970   .     S
O398   C399    1.416   .     S
C399   H400    1.109   .     S
C399   H401    1.117   .     S
C399   C488    1.530   .     S
C402   H404    1.110   .     S
C402   C405    1.527   .     S
C402   H403    1.112   .     S
C405   H407    1.110   .     S
C405   H406    1.111   .     S
H408   C749    1.111   .     S
O409   C410    1.421   .     S
C410   H412    1.112   .     S
C410   C413    1.541   .     S
C410   H411    1.111   .     S
C413   H415    1.111   .     S
C413   H414    1.108   .     S
C413   C416    1.525   .     S
C416   H675    1.111   .     S
C416   H676    1.111   .     S
C416   H677    1.109   .     S
O420   C421    1.412   .     S
C421   H422    1.114   .     S
C421   H423    1.117   .     S
C421   C424    1.529   .     S
C424   C427    1.526   .     S
C424   H426    1.111   .     S
H425   C510    1.112   .     S
C427   H428    1.111   .     S
H429   C513    1.111   .     S
H430   C513    1.111   .     S
C431   O474    1.280   .     A
C431   C447    1.417   .     S
C431   O475    1.283   .     A
C432   C433    1.406   .     A
C432   C1208   1.411   .     S
C432   C1232   1.414   .     S
C433   C437    1.415   .     A
C433   C440    1.418   .     A
C434   C438    1.387   .     A
C434   C1206   1.411   1_554 S
C434   C1209   1.411   1_554 S
C435   C436    1.390   .     A
C435   C1208   1.411   .     S
C435   C1228   1.405   .     S
C436   C437    1.393   .     A
C436   H466    1.083   .     S
C437   H470    1.077   .     S
C438   O495    1.392   .     S
C438   C455    1.403   .     A
C439   C455    1.404   .     A
C439   H459    1.082   .     S
C439   C454    1.400   .     A
C440   C456    1.415   .     A
C440   C442    1.470   .     S
C441   C447    1.396   .     A
C441   H471    1.084   .     S
C441   C701    1.371   .     S
C442   O477    1.295   .     A
C442   O476    1.291   .     A
C443   C444    1.397   .     A
C443   H460    1.083   .     S
C444   C452    1.417   .     S
C444   C445    1.396   .     A
C445   H461    1.084   .     S
C446   C447    1.397   .     A
C446   H462    1.084   .     S
C446   C703    1.367   .     S
C448   N473    1.370   .     A
C448   O484    1.385   .     S
C448   C277    1.427   1_655 S
C449   N472    1.365   .     A
C449   H463    1.080   .     S
C450   H464    1.082   .     S
C450   N472    1.363   .     A
C451   N473    1.366   .     A
C451   H465    1.075   .     S
C451   C278    1.412   1_655 S
C452   O478    1.280   .     A
C452   O479    1.283   .     A
C453   O481    1.294   .     A
C453   O480    1.287   .     A
C453   C455    1.457   .     S
C454   C1209   1.405   1_554 S
C454   H1241   1.083   1_554 S
C456   C457    1.394   .     A
C456   O506    1.384   .     S
C457   C1232   1.388   .     S
C457   H1243   1.082   .     S
C458   H468    1.080   .     S
C458   C1231   1.388   1_554 S
C458   C1206   1.414   1_554 S
H467   C1228   1.083   .     S
H469   C1231   1.082   1_554 S
N472   Zn482   2.007   .     S
N473   Zn483   2.006   .     S
O474   Zn482   1.996   .     S
O475   Zn483   1.995   .     S
O476   Zn482   1.970   .     S
O477   Zn483   1.934   .     S
O478   Zn482   1.995   .     S
O479   Zn483   1.996   .     S
O480   Zn482   1.934   .     S
O481   Zn483   1.970   .     S
O484   C485    1.416   .     S
C485   H486    1.109   .     S
C485   H487    1.117   .     S
C485   C316    1.530   1_655 S
C488   H490    1.110   .     S
C488   C491    1.527   .     S
C488   H489    1.112   .     S
C491   H493    1.110   .     S
C491   H492    1.111   .     S
H494   C577    1.111   1_655 S
O495   C496    1.421   .     S
C496   H498    1.112   .     S
C496   C499    1.541   .     S
C496   H497    1.111   .     S
C499   H501    1.111   .     S
C499   H500    1.108   .     S
C499   C502    1.525   .     S
C502   H761    1.111   .     S
C502   H762    1.111   .     S
C502   H763    1.109   .     S
O506   C507    1.412   .     S
C507   H508    1.114   .     S
C507   H509    1.117   .     S
C507   C510    1.529   .     S
C510   C513    1.526   .     S
C510   H512    1.111   .     S
H511   C338    1.112   1_655 S
C513   H514    1.111   .     S
H515   C341    1.111   1_655 S
H516   C341    1.111   1_655 S
C517   O560    1.280   .     A
C517   C533    1.417   .     S
C517   O561    1.283   .     A
C518   C519    1.406   .     A
C518   C1294   1.411   .     S
C518   C1318   1.414   .     S
C519   C523    1.415   .     A
C519   C526    1.418   .     A
C520   C524    1.387   .     A
C520   C1292   1.411   1_554 S
C520   C1295   1.411   1_554 S
C521   C522    1.390   .     A
C521   C1294   1.411   .     S
C521   C1314   1.405   .     S
C522   C523    1.393   .     A
C522   H552    1.083   .     S
C523   H556    1.077   .     S
C524   O581    1.392   .     S
C524   C541    1.403   .     A
C525   C541    1.404   .     A
C525   H545    1.082   .     S
C525   C540    1.400   .     A
C526   C542    1.415   .     A
C526   C528    1.470   .     S
C527   C533    1.396   .     A
C527   H557    1.084   .     S
C527   C13     1.371   1_565 S
C528   O563    1.295   .     A
C528   O562    1.291   .     A
C529   C530    1.397   .     A
C529   H546    1.083   .     S
C530   C538    1.417   .     S
C530   C531    1.396   .     A
C531   H547    1.084   .     S
C532   C533    1.397   .     A
C532   H548    1.084   .     S
C532   C15     1.367   1_565 S
C534   N559    1.370   .     A
C534   O570    1.385   .     S
C534   C621    1.427   .     S
C535   N558    1.365   .     A
C535   H549    1.080   .     S
C535   C706    1.427   1_455 S
C536   H550    1.082   .     S
C536   N558    1.363   .     A
C536   C709    1.412   1_455 S
C537   N559    1.366   .     A
C537   H551    1.075   .     S
C537   C622    1.412   .     S
C538   O564    1.280   .     A
C538   O565    1.283   .     A
C539   O567    1.294   .     A
C539   O566    1.287   .     A
C539   C541    1.457   .     S
C540   C1295   1.405   1_554 S
C540   H1327   1.083   1_554 S
C542   C543    1.394   .     A
C542   O592    1.384   .     S
C543   C1318   1.388   .     S
C543   H1329   1.082   .     S
C544   H554    1.080   .     S
C544   C1317   1.388   1_554 S
C544   C1292   1.414   1_554 S
H553   C1314   1.083   .     S
H555   C1317   1.082   1_554 S
N558   Zn568   2.007   .     S
N559   Zn569   2.006   .     S
O560   Zn568   1.996   .     S
O561   Zn569   1.995   .     S
O562   Zn568   1.970   .     S
O563   Zn569   1.934   .     S
O564   Zn568   1.995   .     S
O565   Zn569   1.996   .     S
O566   Zn568   1.934   .     S
O567   Zn569   1.970   .     S
O570   C571    1.416   .     S
C571   H572    1.109   .     S
C571   H573    1.117   .     S
C571   C660    1.530   .     S
C574   H576    1.110   .     S
C574   C577    1.527   .     S
C574   H575    1.112   .     S
C574   C743    1.530   1_455 S
C577   H579    1.110   .     S
C577   H578    1.111   .     S
C577   H494    1.111   1_455 S
H580   C147    1.111   1_565 S
O581   C582    1.421   .     S
C582   H584    1.112   .     S
C582   C585    1.541   .     S
C582   H583    1.111   .     S
C585   H587    1.111   .     S
C585   H586    1.108   .     S
C585   C588    1.525   .     S
C588   H73     1.111   1_565 S
C588   H74     1.111   1_565 S
C588   H75     1.109   1_565 S
O592   C593    1.412   .     S
C593   H594    1.114   .     S
C593   H595    1.117   .     S
C593   C596    1.529   .     S
C596   C599    1.526   .     S
C596   H598    1.111   .     S
C596   H769    1.112   1_455 S
H597   C682    1.112   .     S
C599   H600    1.111   .     S
C599   H773    1.111   1_455 S
C599   H774    1.111   1_455 S
H601   C685    1.111   .     S
H602   C685    1.111   .     S
C603   O646    1.280   .     A
C603   C619    1.417   .     S
C603   O647    1.283   .     A
C604   C605    1.406   .     A
C604   C1380   1.411   .     S
C604   C1404   1.414   .     S
C605   C609    1.415   .     A
C605   C612    1.418   .     A
C606   C610    1.387   .     A
C606   C1378   1.411   1_554 S
C606   C1381   1.411   1_554 S
C607   C608    1.390   .     A
C607   C1380   1.411   .     S
C607   C1400   1.405   .     S
C608   C609    1.393   .     A
C608   H638    1.083   .     S
C609   H642    1.077   .     S
C610   O667    1.392   .     S
C610   C627    1.403   .     A
C611   C627    1.404   .     A
C611   H631    1.082   .     S
C611   C626    1.400   .     A
C612   C628    1.415   .     A
C612   C614    1.470   .     S
C613   C619    1.396   .     A
C613   H643    1.084   .     S
C613   C99     1.371   1_565 S
C614   O649    1.295   .     A
C614   O648    1.291   .     A
C615   C616    1.397   .     A
C615   H632    1.083   .     S
C616   C624    1.417   .     S
C616   C617    1.396   .     A
C617   H633    1.084   .     S
C618   C619    1.397   .     A
C618   H634    1.084   .     S
C618   C101    1.367   1_565 S
C620   N645    1.370   .     A
C620   O656    1.385   .     S
C620   C707    1.427   .     S
C621   N644    1.365   .     A
C621   H635    1.080   .     S
C622   H636    1.082   .     S
C622   N644    1.363   .     A
C623   N645    1.366   .     A
C623   H637    1.075   .     S
C623   C708    1.412   .     S
C624   O650    1.280   .     A
C624   O651    1.283   .     A
C625   O653    1.294   .     A
C625   O652    1.287   .     A
C625   C627    1.457   .     S
C626   C1381   1.405   1_554 S
C626   H1413   1.083   1_554 S
C628   C629    1.394   .     A
C628   O678    1.384   .     S
C629   C1404   1.388   .     S
C629   H1415   1.082   .     S
C630   H640    1.080   .     S
C630   C1403   1.388   1_554 S
C630   C1378   1.414   1_554 S
H639   C1400   1.083   .     S
H641   C1403   1.082   1_554 S
N644   Zn654   2.007   .     S
N645   Zn655   2.006   .     S
O646   Zn654   1.996   .     S
O647   Zn655   1.995   .     S
O648   Zn654   1.970   .     S
O649   Zn655   1.934   .     S
O650   Zn654   1.995   .     S
O651   Zn655   1.996   .     S
O652   Zn654   1.934   .     S
O653   Zn655   1.970   .     S
O656   C657    1.416   .     S
C657   H658    1.109   .     S
C657   H659    1.117   .     S
C657   C746    1.530   .     S
C660   H662    1.110   .     S
C660   C663    1.527   .     S
C660   H661    1.112   .     S
C663   H665    1.110   .     S
C663   H664    1.111   .     S
H666   C233    1.111   1_565 S
O667   C668    1.421   .     S
C668   H670    1.112   .     S
C668   C671    1.541   .     S
C668   H669    1.111   .     S
C671   H673    1.111   .     S
C671   H672    1.108   .     S
C671   C674    1.525   .     S
C674   H159    1.111   1_565 S
C674   H160    1.111   1_565 S
C674   H161    1.109   1_565 S
O678   C679    1.412   .     S
C679   H680    1.114   .     S
C679   H681    1.117   .     S
C679   C682    1.529   .     S
C682   C685    1.526   .     S
C682   H684    1.111   .     S
H683   C768    1.112   .     S
C685   H686    1.111   .     S
H687   C771    1.111   .     S
H688   C771    1.111   .     S
C689   O732    1.280   .     A
C689   C705    1.417   .     S
C689   O733    1.283   .     A
C690   C691    1.406   .     A
C690   C1466   1.411   .     S
C690   C1490   1.414   .     S
C691   C695    1.415   .     A
C691   C698    1.418   .     A
C692   C696    1.387   .     A
C692   C1464   1.411   1_554 S
C692   C1467   1.411   1_554 S
C693   C694    1.390   .     A
C693   C1466   1.411   .     S
C693   C1486   1.405   .     S
C694   C695    1.393   .     A
C694   H724    1.083   .     S
C695   H728    1.077   .     S
C696   O753    1.392   .     S
C696   C713    1.403   .     A
C697   C713    1.404   .     A
C697   H717    1.082   .     S
C697   C712    1.400   .     A
C698   C714    1.415   .     A
C698   C700    1.470   .     S
C699   C705    1.396   .     A
C699   H729    1.084   .     S
C699   C185    1.371   1_565 S
C700   O735    1.295   .     A
C700   O734    1.291   .     A
C701   C702    1.397   .     A
C701   H718    1.083   .     S
C702   C710    1.417   .     S
C702   C703    1.396   .     A
C703   H719    1.084   .     S
C704   C705    1.397   .     A
C704   H720    1.084   .     S
C704   C187    1.367   1_565 S
C706   N731    1.370   .     A
C706   O742    1.385   .     S
C706   C535    1.427   1_655 S
C707   N730    1.365   .     A
C707   H721    1.080   .     S
C708   H722    1.082   .     S
C708   N730    1.363   .     A
C709   N731    1.366   .     A
C709   H723    1.075   .     S
C709   C536    1.412   1_655 S
C710   O736    1.280   .     A
C710   O737    1.283   .     A
C711   O739    1.294   .     A
C711   O738    1.287   .     A
C711   C713    1.457   .     S
C712   C1467   1.405   1_554 S
C712   H1499   1.083   1_554 S
C714   C715    1.394   .     A
C714   O764    1.384   .     S
C715   C1490   1.388   .     S
C715   H1501   1.082   .     S
C716   H726    1.080   .     S
C716   C1489   1.388   1_554 S
C716   C1464   1.414   1_554 S
H725   C1486   1.083   .     S
H727   C1489   1.082   1_554 S
N730   Zn740   2.007   .     S
N731   Zn741   2.006   .     S
O732   Zn740   1.996   .     S
O733   Zn741   1.995   .     S
O734   Zn740   1.970   .     S
O735   Zn741   1.934   .     S
O736   Zn740   1.995   .     S
O737   Zn741   1.996   .     S
O738   Zn740   1.934   .     S
O739   Zn741   1.970   .     S
O742   C743    1.416   .     S
C743   H744    1.109   .     S
C743   H745    1.117   .     S
C743   C574    1.530   1_655 S
C746   H748    1.110   .     S
C746   C749    1.527   .     S
C746   H747    1.112   .     S
C749   H751    1.110   .     S
C749   H750    1.111   .     S
H752   C61     1.111   1_665 S
O753   C754    1.421   .     S
C754   H756    1.112   .     S
C754   C757    1.541   .     S
C754   H755    1.111   .     S
C757   H759    1.111   .     S
C757   H758    1.108   .     S
C757   C760    1.525   .     S
C760   H245    1.111   1_565 S
C760   H246    1.111   1_565 S
C760   H247    1.109   1_565 S
O764   C765    1.412   .     S
C765   H766    1.114   .     S
C765   H767    1.117   .     S
C765   C768    1.529   .     S
C768   C771    1.526   .     S
C768   H770    1.111   .     S
H769   C596    1.112   1_655 S
C771   H772    1.111   .     S
H773   C599    1.111   1_655 S
H774   C599    1.111   1_655 S
C775   O818    1.280   .     A
C775   C791    1.417   .     S
C775   O819    1.283   .     A
C776   C777    1.406   .     A
C776   C4      1.411   1_556 S
C776   C28     1.414   1_556 S
C777   C781    1.415   .     A
C777   C784    1.418   .     A
C778   C782    1.387   .     A
C779   C780    1.390   .     A
C779   C4      1.411   1_556 S
C779   C24     1.405   1_556 S
C780   C781    1.393   .     A
C780   H810    1.083   .     S
C781   H814    1.077   .     S
C782   O839    1.392   .     S
C782   C799    1.403   .     A
C783   C799    1.404   .     A
C783   H803    1.082   .     S
C783   C798    1.400   .     A
C784   C800    1.415   .     A
C784   C786    1.470   .     S
C785   C791    1.396   .     A
C785   H815    1.084   .     S
C785   C1045   1.371   .     S
C786   O821    1.295   .     A
C786   O820    1.291   .     A
C787   C788    1.397   .     A
C787   H804    1.083   .     S
C787   C1301   1.371   1_545 S
C788   C796    1.417   .     S
C788   C789    1.396   .     A
C789   H805    1.084   .     S
C789   C1306   1.367   1_545 S
C790   C791    1.397   .     A
C790   H806    1.084   .     S
C790   C1047   1.367   .     S
C792   N817    1.370   .     A
C792   O828    1.385   .     S
C792   C879    1.427   .     S
C793   N816    1.365   .     A
C793   H807    1.080   .     S
C793   C964    1.427   1_455 S
C794   H808    1.082   .     S
C794   N816    1.363   .     A
C794   C967    1.412   1_455 S
C795   N817    1.366   .     A
C795   H809    1.075   .     S
C795   C880    1.412   .     S
C796   O822    1.280   .     A
C796   O823    1.283   .     A
C797   O825    1.294   .     A
C797   O824    1.287   .     A
C797   C799    1.457   .     S
C800   C801    1.394   .     A
C800   O850    1.384   .     S
C801   C28     1.388   1_556 S
C801   H39     1.082   1_556 S
C802   H812    1.080   .     S
H811   C24     1.083   1_556 S
N816   Zn826   2.007   .     S
N817   Zn827   2.006   .     S
O818   Zn826   1.996   .     S
O819   Zn827   1.995   .     S
O820   Zn826   1.970   .     S
O821   Zn827   1.934   .     S
O822   Zn826   1.995   .     S
O823   Zn827   1.996   .     S
O824   Zn826   1.934   .     S
O825   Zn827   1.970   .     S
O828   C829    1.416   .     S
C829   H830    1.109   .     S
C829   H831    1.117   .     S
C829   C918    1.530   .     S
C832   H834    1.110   .     S
C832   C835    1.527   .     S
C832   H833    1.112   .     S
C832   C1001   1.530   1_455 S
C835   H837    1.110   .     S
C835   H836    1.111   .     S
C835   H1526   1.111   1_445 S
H838   C1179   1.111   .     S
O839   C840    1.421   .     S
C840   H842    1.112   .     S
C840   C843    1.541   .     S
C840   H841    1.111   .     S
C843   H845    1.111   .     S
C843   H844    1.108   .     S
C843   C846    1.525   .     S
C846   H1105   1.111   .     S
C846   H1106   1.111   .     S
C846   H1107   1.109   .     S
H847   C1362   1.111   1_545 S
H848   C1362   1.111   1_545 S
H849   C1362   1.109   1_545 S
O850   C851    1.412   .     S
C851   H852    1.114   .     S
C851   H853    1.117   .     S
C851   C854    1.529   .     S
C854   C857    1.526   .     S
C854   H856    1.111   .     S
C854   H1027   1.112   1_455 S
H855   C940    1.112   .     S
C857   H858    1.111   .     S
C857   H1031   1.111   1_455 S
C857   H1032   1.111   1_455 S
H859   C943    1.111   .     S
H860   C943    1.111   .     S
C861   O904    1.280   .     A
C861   C877    1.417   .     S
C861   O905    1.283   .     A
C862   C863    1.406   .     A
C862   C90     1.411   1_556 S
C862   C114    1.414   1_556 S
C863   C867    1.415   .     A
C863   C870    1.418   .     A
C864   C868    1.387   .     A
C865   C866    1.390   .     A
C865   C90     1.411   1_556 S
C865   C110    1.405   1_556 S
C866   C867    1.393   .     A
C866   H896    1.083   .     S
C867   H900    1.077   .     S
C868   O925    1.392   .     S
C868   C885    1.403   .     A
C869   C885    1.404   .     A
C869   H889    1.082   .     S
C869   C884    1.400   .     A
C870   C886    1.415   .     A
C870   C872    1.470   .     S
C871   C877    1.396   .     A
C871   H901    1.084   .     S
C871   C1131   1.371   .     S
C872   O907    1.295   .     A
C872   O906    1.291   .     A
C873   C874    1.397   .     A
C873   H890    1.083   .     S
C873   C1387   1.371   1_545 S
C874   C882    1.417   .     S
C874   C875    1.396   .     A
C875   H891    1.084   .     S
C875   C1392   1.367   1_545 S
C876   C877    1.397   .     A
C876   H892    1.084   .     S
C876   C1133   1.367   .     S
C878   N903    1.370   .     A
C878   O914    1.385   .     S
C878   C965    1.427   .     S
C879   N902    1.365   .     A
C879   H893    1.080   .     S
C880   H894    1.082   .     S
C880   N902    1.363   .     A
C881   N903    1.366   .     A
C881   H895    1.075   .     S
C881   C966    1.412   .     S
C882   O908    1.280   .     A
C882   O909    1.283   .     A
C883   O911    1.294   .     A
C883   O910    1.287   .     A
C883   C885    1.457   .     S
C886   C887    1.394   .     A
C886   O936    1.384   .     S
C887   C114    1.388   1_556 S
C887   H125    1.082   1_556 S
C888   H898    1.080   .     S
H897   C110    1.083   1_556 S
N902   Zn912   2.007   .     S
N903   Zn913   2.006   .     S
O904   Zn912   1.996   .     S
O905   Zn913   1.995   .     S
O906   Zn912   1.970   .     S
O907   Zn913   1.934   .     S
O908   Zn912   1.995   .     S
O909   Zn913   1.996   .     S
O910   Zn912   1.934   .     S
O911   Zn913   1.970   .     S
O914   C915    1.416   .     S
C915   H916    1.109   .     S
C915   H917    1.117   .     S
C915   C1004   1.530   .     S
C918   H920    1.110   .     S
C918   C921    1.527   .     S
C918   H919    1.112   .     S
C921   H923    1.110   .     S
C921   H922    1.111   .     S
C921   H1354   1.111   1_545 S
H924   C1265   1.111   .     S
O925   C926    1.421   .     S
C926   H928    1.112   .     S
C926   C929    1.541   .     S
C926   H927    1.111   .     S
C929   H931    1.111   .     S
C929   H930    1.108   .     S
C929   C932    1.525   .     S
C932   H1191   1.111   .     S
C932   H1192   1.111   .     S
C932   H1193   1.109   .     S
H933   C1448   1.111   1_545 S
H934   C1448   1.111   1_545 S
H935   C1448   1.109   1_545 S
O936   C937    1.412   .     S
C937   H938    1.114   .     S
C937   H939    1.117   .     S
C937   C940    1.529   .     S
C940   C943    1.526   .     S
C940   H942    1.111   .     S
H941   C1026   1.112   .     S
C943   H944    1.111   .     S
H945   C1029   1.111   .     S
H946   C1029   1.111   .     S
C947   O990    1.280   .     A
C947   C963    1.417   .     S
C947   O991    1.283   .     A
C948   C949    1.406   .     A
C948   C176    1.411   1_556 S
C948   C200    1.414   1_556 S
C949   C953    1.415   .     A
C949   C956    1.418   .     A
C950   C954    1.387   .     A
C951   C952    1.390   .     A
C951   C176    1.411   1_556 S
C951   C196    1.405   1_556 S
C952   C953    1.393   .     A
C952   H982    1.083   .     S
C953   H986    1.077   .     S
C954   O1011   1.392   .     S
C954   C971    1.403   .     A
C955   C971    1.404   .     A
C955   H975    1.082   .     S
C955   C970    1.400   .     A
C956   C972    1.415   .     A
C956   C958    1.470   .     S
C957   C963    1.396   .     A
C957   H987    1.084   .     S
C957   C1217   1.371   .     S
C958   O993    1.295   .     A
C958   O992    1.291   .     A
C959   C960    1.397   .     A
C959   H976    1.083   .     S
C959   C1473   1.371   1_545 S
C960   C968    1.417   .     S
C960   C961    1.396   .     A
C961   H977    1.084   .     S
C961   C1478   1.367   1_545 S
C962   C963    1.397   .     A
C962   H978    1.084   .     S
C962   C1219   1.367   .     S
C964   N989    1.370   .     A
C964   O1000   1.385   .     S
C964   C793    1.427   1_655 S
C965   N988    1.365   .     A
C965   H979    1.080   .     S
C966   H980    1.082   .     S
C966   N988    1.363   .     A
C967   N989    1.366   .     A
C967   H981    1.075   .     S
C967   C794    1.412   1_655 S
C968   O994    1.280   .     A
C968   O995    1.283   .     A
C969   O997    1.294   .     A
C969   O996    1.287   .     A
C969   C971    1.457   .     S
C972   C973    1.394   .     A
C972   O1022   1.384   .     S
C973   C200    1.388   1_556 S
C973   H211    1.082   1_556 S
C974   H984    1.080   .     S
H983   C196    1.083   1_556 S
N988   Zn998   2.007   .     S
N989   Zn999   2.006   .     S
O990   Zn998   1.996   .     S
O991   Zn999   1.995   .     S
O992   Zn998   1.970   .     S
O993   Zn999   1.934   .     S
O994   Zn998   1.995   .     S
O995   Zn999   1.996   .     S
O996   Zn998   1.934   .     S
O997   Zn999   1.970   .     S
O1000  C1001   1.416   .     S
C1001  H1002   1.109   .     S
C1001  H1003   1.117   .     S
C1001  C832    1.530   1_655 S
C1004  H1006   1.110   .     S
C1004  C1007   1.527   .     S
C1004  H1005   1.112   .     S
C1007  H1009   1.110   .     S
C1007  H1008   1.111   .     S
C1007  H1440   1.111   1_545 S
H1010  C1093   1.111   1_655 S
O1011  C1012   1.421   .     S
C1012  H1014   1.112   .     S
C1012  C1015   1.541   .     S
C1012  H1013   1.111   .     S
C1015  H1017   1.111   .     S
C1015  H1016   1.108   .     S
C1015  C1018   1.525   .     S
C1018  H1277   1.111   .     S
C1018  H1278   1.111   .     S
C1018  H1279   1.109   .     S
H1019  C1534   1.111   1_545 S
H1020  C1534   1.111   1_545 S
H1021  C1534   1.109   1_545 S
O1022  C1023   1.412   .     S
C1023  H1024   1.114   .     S
C1023  H1025   1.117   .     S
C1023  C1026   1.529   .     S
C1026  C1029   1.526   .     S
C1026  H1028   1.111   .     S
H1027  C854    1.112   1_655 S
C1029  H1030   1.111   .     S
H1031  C857    1.111   1_655 S
H1032  C857    1.111   1_655 S
C1033  O1076   1.280   .     A
C1033  C1049   1.417   .     S
C1033  O1077   1.283   .     A
C1034  C1035   1.406   .     A
C1034  C262    1.411   1_556 S
C1034  C286    1.414   1_556 S
C1035  C1039   1.415   .     A
C1035  C1042   1.418   .     A
C1036  C1040   1.387   .     A
C1037  C1038   1.390   .     A
C1037  C262    1.411   1_556 S
C1037  C282    1.405   1_556 S
C1038  C1039   1.393   .     A
C1038  H1068   1.083   .     S
C1039  H1072   1.077   .     S
C1040  O1097   1.392   .     S
C1040  C1057   1.403   .     A
C1041  C1057   1.404   .     A
C1041  H1061   1.082   .     S
C1041  C1056   1.400   .     A
C1042  C1058   1.415   .     A
C1042  C1044   1.470   .     S
C1043  C1049   1.396   .     A
C1043  H1073   1.084   .     S
C1043  C1303   1.371   .     S
C1044  O1079   1.295   .     A
C1044  O1078   1.291   .     A
C1045  C1046   1.397   .     A
C1045  H1062   1.083   .     S
C1046  C1054   1.417   .     S
C1046  C1047   1.396   .     A
C1047  H1063   1.084   .     S
C1048  C1049   1.397   .     A
C1048  H1064   1.084   .     S
C1048  C1305   1.367   .     S
C1050  N1075   1.370   .     A
C1050  O1086   1.385   .     S
C1050  C1137   1.427   .     S
C1051  N1074   1.365   .     A
C1051  H1065   1.080   .     S
C1051  C1222   1.427   1_455 S
C1052  H1066   1.082   .     S
C1052  N1074   1.363   .     A
C1052  C1225   1.412   1_455 S
C1053  N1075   1.366   .     A
C1053  H1067   1.075   .     S
C1053  C1138   1.412   .     S
C1054  O1080   1.280   .     A
C1054  O1081   1.283   .     A
C1055  O1083   1.294   .     A
C1055  O1082   1.287   .     A
C1055  C1057   1.457   .     S
C1058  C1059   1.394   .     A
C1058  O1108   1.384   .     S
C1059  C286    1.388   1_556 S
C1059  H297    1.082   1_556 S
C1060  H1070   1.080   .     S
H1069  C282    1.083   1_556 S
N1074  Zn1084  2.007   .     S
N1075  Zn1085  2.006   .     S
O1076  Zn1084  1.996   .     S
O1077  Zn1085  1.995   .     S
O1078  Zn1084  1.970   .     S
O1079  Zn1085  1.934   .     S
O1080  Zn1084  1.995   .     S
O1081  Zn1085  1.996   .     S
O1082  Zn1084  1.934   .     S
O1083  Zn1085  1.970   .     S
O1086  C1087   1.416   .     S
C1087  H1088   1.109   .     S
C1087  H1089   1.117   .     S
C1087  C1176   1.530   .     S
C1090  H1092   1.110   .     S
C1090  C1093   1.527   .     S
C1090  H1091   1.112   .     S
C1090  C1259   1.530   1_455 S
C1093  H1095   1.110   .     S
C1093  H1094   1.111   .     S
C1093  H1010   1.111   1_455 S
H1096  C1437   1.111   .     S
O1097  C1098   1.421   .     S
C1098  H1100   1.112   .     S
C1098  C1101   1.541   .     S
C1098  H1099   1.111   .     S
C1101  H1103   1.111   .     S
C1101  H1102   1.108   .     S
C1101  C1104   1.525   .     S
C1104  H1363   1.111   .     S
C1104  H1364   1.111   .     S
C1104  H1365   1.109   .     S
O1108  C1109   1.412   .     S
C1109  H1110   1.114   .     S
C1109  H1111   1.117   .     S
C1109  C1112   1.529   .     S
C1112  C1115   1.526   .     S
C1112  H1114   1.111   .     S
C1112  H1285   1.112   1_455 S
H1113  C1198   1.112   .     S
C1115  H1116   1.111   .     S
C1115  H1289   1.111   1_455 S
C1115  H1290   1.111   1_455 S
H1117  C1201   1.111   .     S
H1118  C1201   1.111   .     S
C1119  O1162   1.280   .     A
C1119  C1135   1.417   .     S
C1119  O1163   1.283   .     A
C1120  C1121   1.406   .     A
C1120  C348    1.411   1_556 S
C1120  C372    1.414   1_556 S
C1121  C1125   1.415   .     A
C1121  C1128   1.418   .     A
C1122  C1126   1.387   .     A
C1123  C1124   1.390   .     A
C1123  C348    1.411   1_556 S
C1123  C368    1.405   1_556 S
C1124  C1125   1.393   .     A
C1124  H1154   1.083   .     S
C1125  H1158   1.077   .     S
C1126  O1183   1.392   .     S
C1126  C1143   1.403   .     A
C1127  C1143   1.404   .     A
C1127  H1147   1.082   .     S
C1127  C1142   1.400   .     A
C1128  C1144   1.415   .     A
C1128  C1130   1.470   .     S
C1129  C1135   1.396   .     A
C1129  H1159   1.084   .     S
C1129  C1389   1.371   .     S
C1130  O1165   1.295   .     A
C1130  O1164   1.291   .     A
C1131  C1132   1.397   .     A
C1131  H1148   1.083   .     S
C1132  C1140   1.417   .     S
C1132  C1133   1.396   .     A
C1133  H1149   1.084   .     S
C1134  C1135   1.397   .     A
C1134  H1150   1.084   .     S
C1134  C1391   1.367   .     S
C1136  N1161   1.370   .     A
C1136  O1172   1.385   .     S
C1136  C1223   1.427   .     S
C1137  N1160   1.365   .     A
C1137  H1151   1.080   .     S
C1138  H1152   1.082   .     S
C1138  N1160   1.363   .     A
C1139  N1161   1.366   .     A
C1139  H1153   1.075   .     S
C1139  C1224   1.412   .     S
C1140  O1166   1.280   .     A
C1140  O1167   1.283   .     A
C1141  O1169   1.294   .     A
C1141  O1168   1.287   .     A
C1141  C1143   1.457   .     S
C1144  C1145   1.394   .     A
C1144  O1194   1.384   .     S
C1145  C372    1.388   1_556 S
C1145  H383    1.082   1_556 S
C1146  H1156   1.080   .     S
H1155  C368    1.083   1_556 S
N1160  Zn1170  2.007   .     S
N1161  Zn1171  2.006   .     S
O1162  Zn1170  1.996   .     S
O1163  Zn1171  1.995   .     S
O1164  Zn1170  1.970   .     S
O1165  Zn1171  1.934   .     S
O1166  Zn1170  1.995   .     S
O1167  Zn1171  1.996   .     S
O1168  Zn1170  1.934   .     S
O1169  Zn1171  1.970   .     S
O1172  C1173   1.416   .     S
C1173  H1174   1.109   .     S
C1173  H1175   1.117   .     S
C1173  C1262   1.530   .     S
C1176  H1178   1.110   .     S
C1176  C1179   1.527   .     S
C1176  H1177   1.112   .     S
C1179  H1181   1.110   .     S
C1179  H1180   1.111   .     S
H1182  C1523   1.111   .     S
O1183  C1184   1.421   .     S
C1184  H1186   1.112   .     S
C1184  C1187   1.541   .     S
C1184  H1185   1.111   .     S
C1187  H1189   1.111   .     S
C1187  H1188   1.108   .     S
C1187  C1190   1.525   .     S
C1190  H1449   1.111   .     S
C1190  H1450   1.111   .     S
C1190  H1451   1.109   .     S
O1194  C1195   1.412   .     S
C1195  H1196   1.114   .     S
C1195  H1197   1.117   .     S
C1195  C1198   1.529   .     S
C1198  C1201   1.526   .     S
C1198  H1200   1.111   .     S
H1199  C1284   1.112   .     S
C1201  H1202   1.111   .     S
H1203  C1287   1.111   .     S
H1204  C1287   1.111   .     S
C1205  O1248   1.280   .     A
C1205  C1221   1.417   .     S
C1205  O1249   1.283   .     A
C1206  C1207   1.406   .     A
C1206  C434    1.411   1_556 S
C1206  C458    1.414   1_556 S
C1207  C1211   1.415   .     A
C1207  C1214   1.418   .     A
C1208  C1212   1.387   .     A
C1209  C1210   1.390   .     A
C1209  C434    1.411   1_556 S
C1209  C454    1.405   1_556 S
C1210  C1211   1.393   .     A
C1210  H1240   1.083   .     S
C1211  H1244   1.077   .     S
C1212  O1269   1.392   .     S
C1212  C1229   1.403   .     A
C1213  C1229   1.404   .     A
C1213  H1233   1.082   .     S
C1213  C1228   1.400   .     A
C1214  C1230   1.415   .     A
C1214  C1216   1.470   .     S
C1215  C1221   1.396   .     A
C1215  H1245   1.084   .     S
C1215  C1475   1.371   .     S
C1216  O1251   1.295   .     A
C1216  O1250   1.291   .     A
C1217  C1218   1.397   .     A
C1217  H1234   1.083   .     S
C1218  C1226   1.417   .     S
C1218  C1219   1.396   .     A
C1219  H1235   1.084   .     S
C1220  C1221   1.397   .     A
C1220  H1236   1.084   .     S
C1220  C1477   1.367   .     S
C1222  N1247   1.370   .     A
C1222  O1258   1.385   .     S
C1222  C1051   1.427   1_655 S
C1223  N1246   1.365   .     A
C1223  H1237   1.080   .     S
C1224  H1238   1.082   .     S
C1224  N1246   1.363   .     A
C1225  N1247   1.366   .     A
C1225  H1239   1.075   .     S
C1225  C1052   1.412   1_655 S
C1226  O1252   1.280   .     A
C1226  O1253   1.283   .     A
C1227  O1255   1.294   .     A
C1227  O1254   1.287   .     A
C1227  C1229   1.457   .     S
C1230  C1231   1.394   .     A
C1230  O1280   1.384   .     S
C1231  C458    1.388   1_556 S
C1231  H469    1.082   1_556 S
C1232  H1242   1.080   .     S
H1241  C454    1.083   1_556 S
N1246  Zn1256  2.007   .     S
N1247  Zn1257  2.006   .     S
O1248  Zn1256  1.996   .     S
O1249  Zn1257  1.995   .     S
O1250  Zn1256  1.970   .     S
O1251  Zn1257  1.934   .     S
O1252  Zn1256  1.995   .     S
O1253  Zn1257  1.996   .     S
O1254  Zn1256  1.934   .     S
O1255  Zn1257  1.970   .     S
O1258  C1259   1.416   .     S
C1259  H1260   1.109   .     S
C1259  H1261   1.117   .     S
C1259  C1090   1.530   1_655 S
C1262  H1264   1.110   .     S
C1262  C1265   1.527   .     S
C1262  H1263   1.112   .     S
C1265  H1267   1.110   .     S
C1265  H1266   1.111   .     S
H1268  C1351   1.111   1_655 S
O1269  C1270   1.421   .     S
C1270  H1272   1.112   .     S
C1270  C1273   1.541   .     S
C1270  H1271   1.111   .     S
C1273  H1275   1.111   .     S
C1273  H1274   1.108   .     S
C1273  C1276   1.525   .     S
C1276  H1535   1.111   .     S
C1276  H1536   1.111   .     S
C1276  H1537   1.109   .     S
O1280  C1281   1.412   .     S
C1281  H1282   1.114   .     S
C1281  H1283   1.117   .     S
C1281  C1284   1.529   .     S
C1284  C1287   1.526   .     S
C1284  H1286   1.111   .     S
H1285  C1112   1.112   1_655 S
C1287  H1288   1.111   .     S
H1289  C1115   1.111   1_655 S
H1290  C1115   1.111   1_655 S
C1291  O1334   1.280   .     A
C1291  C1307   1.417   .     S
C1291  O1335   1.283   .     A
C1292  C1293   1.406   .     A
C1292  C520    1.411   1_556 S
C1292  C544    1.414   1_556 S
C1293  C1297   1.415   .     A
C1293  C1300   1.418   .     A
C1294  C1298   1.387   .     A
C1295  C1296   1.390   .     A
C1295  C520    1.411   1_556 S
C1295  C540    1.405   1_556 S
C1296  C1297   1.393   .     A
C1296  H1326   1.083   .     S
C1297  H1330   1.077   .     S
C1298  O1355   1.392   .     S
C1298  C1315   1.403   .     A
C1299  C1315   1.404   .     A
C1299  H1319   1.082   .     S
C1299  C1314   1.400   .     A
C1300  C1316   1.415   .     A
C1300  C1302   1.470   .     S
C1301  C1307   1.396   .     A
C1301  H1331   1.084   .     S
C1301  C787    1.371   1_565 S
C1302  O1337   1.295   .     A
C1302  O1336   1.291   .     A
C1303  C1304   1.397   .     A
C1303  H1320   1.083   .     S
C1304  C1312   1.417   .     S
C1304  C1305   1.396   .     A
C1305  H1321   1.084   .     S
C1306  C1307   1.397   .     A
C1306  H1322   1.084   .     S
C1306  C789    1.367   1_565 S
C1308  N1333   1.370   .     A
C1308  O1344   1.385   .     S
C1308  C1395   1.427   .     S
C1309  N1332   1.365   .     A
C1309  H1323   1.080   .     S
C1309  C1480   1.427   1_455 S
C1310  H1324   1.082   .     S
C1310  N1332   1.363   .     A
C1310  C1483   1.412   1_455 S
C1311  N1333   1.366   .     A
C1311  H1325   1.075   .     S
C1311  C1396   1.412   .     S
C1312  O1338   1.280   .     A
C1312  O1339   1.283   .     A
C1313  O1341   1.294   .     A
C1313  O1340   1.287   .     A
C1313  C1315   1.457   .     S
C1316  C1317   1.394   .     A
C1316  O1366   1.384   .     S
C1317  C544    1.388   1_556 S
C1317  H555    1.082   1_556 S
C1318  H1328   1.080   .     S
H1327  C540    1.083   1_556 S
N1332  Zn1342  2.007   .     S
N1333  Zn1343  2.006   .     S
O1334  Zn1342  1.996   .     S
O1335  Zn1343  1.995   .     S
O1336  Zn1342  1.970   .     S
O1337  Zn1343  1.934   .     S
O1338  Zn1342  1.995   .     S
O1339  Zn1343  1.996   .     S
O1340  Zn1342  1.934   .     S
O1341  Zn1343  1.970   .     S
O1344  C1345   1.416   .     S
C1345  H1346   1.109   .     S
C1345  H1347   1.117   .     S
C1345  C1434   1.530   .     S
C1348  H1350   1.110   .     S
C1348  C1351   1.527   .     S
C1348  H1349   1.112   .     S
C1348  C1517   1.530   1_455 S
C1351  H1353   1.110   .     S
C1351  H1352   1.111   .     S
C1351  H1268   1.111   1_455 S
H1354  C921    1.111   1_565 S
O1355  C1356   1.421   .     S
C1356  H1358   1.112   .     S
C1356  C1359   1.541   .     S
C1356  H1357   1.111   .     S
C1359  H1361   1.111   .     S
C1359  H1360   1.108   .     S
C1359  C1362   1.525   .     S
C1362  H847    1.111   1_565 S
C1362  H848    1.111   1_565 S
C1362  H849    1.109   1_565 S
O1366  C1367   1.412   .     S
C1367  H1368   1.114   .     S
C1367  H1369   1.117   .     S
C1367  C1370   1.529   .     S
C1370  C1373   1.526   .     S
C1370  H1372   1.111   .     S
C1370  H1543   1.112   1_455 S
H1371  C1456   1.112   .     S
C1373  H1374   1.111   .     S
C1373  H1547   1.111   1_455 S
C1373  H1548   1.111   1_455 S
H1375  C1459   1.111   .     S
H1376  C1459   1.111   .     S
C1377  O1420   1.280   .     A
C1377  C1393   1.417   .     S
C1377  O1421   1.283   .     A
C1378  C1379   1.406   .     A
C1378  C606    1.411   1_556 S
C1378  C630    1.414   1_556 S
C1379  C1383   1.415   .     A
C1379  C1386   1.418   .     A
C1380  C1384   1.387   .     A
C1381  C1382   1.390   .     A
C1381  C606    1.411   1_556 S
C1381  C626    1.405   1_556 S
C1382  C1383   1.393   .     A
C1382  H1412   1.083   .     S
C1383  H1416   1.077   .     S
C1384  O1441   1.392   .     S
C1384  C1401   1.403   .     A
C1385  C1401   1.404   .     A
C1385  H1405   1.082   .     S
C1385  C1400   1.400   .     A
C1386  C1402   1.415   .     A
C1386  C1388   1.470   .     S
C1387  C1393   1.396   .     A
C1387  H1417   1.084   .     S
C1387  C873    1.371   1_565 S
C1388  O1423   1.295   .     A
C1388  O1422   1.291   .     A
C1389  C1390   1.397   .     A
C1389  H1406   1.083   .     S
C1390  C1398   1.417   .     S
C1390  C1391   1.396   .     A
C1391  H1407   1.084   .     S
C1392  C1393   1.397   .     A
C1392  H1408   1.084   .     S
C1392  C875    1.367   1_565 S
C1394  N1419   1.370   .     A
C1394  O1430   1.385   .     S
C1394  C1481   1.427   .     S
C1395  N1418   1.365   .     A
C1395  H1409   1.080   .     S
C1396  H1410   1.082   .     S
C1396  N1418   1.363   .     A
C1397  N1419   1.366   .     A
C1397  H1411   1.075   .     S
C1397  C1482   1.412   .     S
C1398  O1424   1.280   .     A
C1398  O1425   1.283   .     A
C1399  O1427   1.294   .     A
C1399  O1426   1.287   .     A
C1399  C1401   1.457   .     S
C1402  C1403   1.394   .     A
C1402  O1452   1.384   .     S
C1403  C630    1.388   1_556 S
C1403  H641    1.082   1_556 S
C1404  H1414   1.080   .     S
H1413  C626    1.083   1_556 S
N1418  Zn1428  2.007   .     S
N1419  Zn1429  2.006   .     S
O1420  Zn1428  1.996   .     S
O1421  Zn1429  1.995   .     S
O1422  Zn1428  1.970   .     S
O1423  Zn1429  1.934   .     S
O1424  Zn1428  1.995   .     S
O1425  Zn1429  1.996   .     S
O1426  Zn1428  1.934   .     S
O1427  Zn1429  1.970   .     S
O1430  C1431   1.416   .     S
C1431  H1432   1.109   .     S
C1431  H1433   1.117   .     S
C1431  C1520   1.530   .     S
C1434  H1436   1.110   .     S
C1434  C1437   1.527   .     S
C1434  H1435   1.112   .     S
C1437  H1439   1.110   .     S
C1437  H1438   1.111   .     S
H1440  C1007   1.111   1_565 S
O1441  C1442   1.421   .     S
C1442  H1444   1.112   .     S
C1442  C1445   1.541   .     S
C1442  H1443   1.111   .     S
C1445  H1447   1.111   .     S
C1445  H1446   1.108   .     S
C1445  C1448   1.525   .     S
C1448  H933    1.111   1_565 S
C1448  H934    1.111   1_565 S
C1448  H935    1.109   1_565 S
O1452  C1453   1.412   .     S
C1453  H1454   1.114   .     S
C1453  H1455   1.117   .     S
C1453  C1456   1.529   .     S
C1456  C1459   1.526   .     S
C1456  H1458   1.111   .     S
H1457  C1542   1.112   .     S
C1459  H1460   1.111   .     S
H1461  C1545   1.111   .     S
H1462  C1545   1.111   .     S
C1463  O1506   1.280   .     A
C1463  C1479   1.417   .     S
C1463  O1507   1.283   .     A
C1464  C1465   1.406   .     A
C1464  C692    1.411   1_556 S
C1464  C716    1.414   1_556 S
C1465  C1469   1.415   .     A
C1465  C1472   1.418   .     A
C1466  C1470   1.387   .     A
C1467  C1468   1.390   .     A
C1467  C692    1.411   1_556 S
C1467  C712    1.405   1_556 S
C1468  C1469   1.393   .     A
C1468  H1498   1.083   .     S
C1469  H1502   1.077   .     S
C1470  O1527   1.392   .     S
C1470  C1487   1.403   .     A
C1471  C1487   1.404   .     A
C1471  H1491   1.082   .     S
C1471  C1486   1.400   .     A
C1472  C1488   1.415   .     A
C1472  C1474   1.470   .     S
C1473  C1479   1.396   .     A
C1473  H1503   1.084   .     S
C1473  C959    1.371   1_565 S
C1474  O1509   1.295   .     A
C1474  O1508   1.291   .     A
C1475  C1476   1.397   .     A
C1475  H1492   1.083   .     S
C1476  C1484   1.417   .     S
C1476  C1477   1.396   .     A
C1477  H1493   1.084   .     S
C1478  C1479   1.397   .     A
C1478  H1494   1.084   .     S
C1478  C961    1.367   1_565 S
C1480  N1505   1.370   .     A
C1480  O1516   1.385   .     S
C1480  C1309   1.427   1_655 S
C1481  N1504   1.365   .     A
C1481  H1495   1.080   .     S
C1482  H1496   1.082   .     S
C1482  N1504   1.363   .     A
C1483  N1505   1.366   .     A
C1483  H1497   1.075   .     S
C1483  C1310   1.412   1_655 S
C1484  O1510   1.280   .     A
C1484  O1511   1.283   .     A
C1485  O1513   1.294   .     A
C1485  O1512   1.287   .     A
C1485  C1487   1.457   .     S
C1488  C1489   1.394   .     A
C1488  O1538   1.384   .     S
C1489  C716    1.388   1_556 S
C1489  H727    1.082   1_556 S
C1490  H1500   1.080   .     S
H1499  C712    1.083   1_556 S
N1504  Zn1514  2.007   .     S
N1505  Zn1515  2.006   .     S
O1506  Zn1514  1.996   .     S
O1507  Zn1515  1.995   .     S
O1508  Zn1514  1.970   .     S
O1509  Zn1515  1.934   .     S
O1510  Zn1514  1.995   .     S
O1511  Zn1515  1.996   .     S
O1512  Zn1514  1.934   .     S
O1513  Zn1515  1.970   .     S
O1516  C1517   1.416   .     S
C1517  H1518   1.109   .     S
C1517  H1519   1.117   .     S
C1517  C1348   1.530   1_655 S
C1520  H1522   1.110   .     S
C1520  C1523   1.527   .     S
C1520  H1521   1.112   .     S
C1523  H1525   1.110   .     S
C1523  H1524   1.111   .     S
H1526  C835    1.111   1_665 S
O1527  C1528   1.421   .     S
C1528  H1530   1.112   .     S
C1528  C1531   1.541   .     S
C1528  H1529   1.111   .     S
C1531  H1533   1.111   .     S
C1531  H1532   1.108   .     S
C1531  C1534   1.525   .     S
C1534  H1019   1.111   1_565 S
C1534  H1020   1.111   1_565 S
C1534  H1021   1.109   1_565 S
O1538  C1539   1.412   .     S
C1539  H1540   1.114   .     S
C1539  H1541   1.117   .     S
C1539  C1542   1.529   .     S
C1542  C1545   1.526   .     S
C1542  H1544   1.111   .     S
H1543  C1370   1.112   1_655 S
C1545  H1546   1.111   .     S
H1547  C1373   1.111   1_655 S
H1548  C1373   1.111   1_655 S
