data_str_m3_o10_o18_pcu_sym.137
_audit_creation_date              2020-01-03
_audit_creation_method            'Materials Studio'
_symmetry_space_group_name_H-M    'P1'
_symmetry_Int_Tables_number       1
_symmetry_cell_setting            triclinic
loop_
_symmetry_equiv_pos_as_xyz
  x,y,z
_cell_length_a                    23.5004
_cell_length_b                    25.6882
_cell_length_c                    27.3355
_cell_angle_alpha                 93.4035
_cell_angle_beta                  92.5326
_cell_angle_gamma                 94.3269
loop_
_atom_site_label
_atom_site_type_symbol
_atom_site_fract_x
_atom_site_fract_y
_atom_site_fract_z
_atom_site_U_iso_or_equiv
_atom_site_adp_type
_atom_site_occupancy
C1     C     0.01509   0.26492   0.24872   0.00000  Uiso   1.00
C2     C     0.31228   0.16080   0.15877   0.00000  Uiso   1.00
C3     C     0.03008   0.17522   0.39477   0.00000  Uiso   1.00
C4     C     0.30095   0.14881   0.10637   0.00000  Uiso   1.00
C5     C     0.01354   0.21111   0.47631   0.00000  Uiso   1.00
C6     C     0.30553   0.09278   0.03254   0.00000  Uiso   1.00
C7     C     0.32929   0.20303   0.42690   0.00000  Uiso   1.00
C8     C     0.32799   0.10998   0.07929   0.00000  Uiso   1.00
C9     C     0.07811   0.15302   0.41327   0.00000  Uiso   1.00
C10    C     0.25367   0.17025   0.08592   0.00000  Uiso   1.00
C11    C     0.09649   0.16117   0.46249   0.00000  Uiso   1.00
C12    C     0.31823   0.06841   0.25117   0.00000  Uiso   1.00
C13    C     0.22616   0.14803   0.04262   0.00000  Uiso   1.00
C14    C     0.06454   0.19240   0.49377   0.00000  Uiso   1.00
C15    C     0.25413   0.11043   0.01459   0.00000  Uiso   1.00
C16    C     0.14816   0.14242   0.48028   0.00000  Uiso   1.00
C17    C     0.17117   0.16150   0.02723   0.00000  Uiso   1.00
C18    C     0.13743   0.19148   0.05813   0.00000  Uiso   1.00
C19    C     0.17748   0.10525   0.45280   0.00000  Uiso   1.00
C20    C     0.08461   0.20590   0.04175   0.00000  Uiso   1.00
C21    C     0.22945   0.08946   0.46992   0.00000  Uiso   1.00
C22    C     0.02291   0.31951   0.24787   0.00000  Uiso   1.00
C23    C     0.31038   0.01381   0.25183   0.00000  Uiso   1.00
C24    C     0.02082   0.17138   0.34142   0.00000  Uiso   1.00
H25    H     0.06005   0.22889   0.06643   0.00000  Uiso   1.00
H26    H     0.26721   0.32990   0.25565   0.00000  Uiso   1.00
H27    H     0.16242   0.12462   0.21364   0.00000  Uiso   1.00
H28    H     0.17091   0.20873   0.28634   0.00000  Uiso   1.00
H29    H     0.25010   0.06026   0.44828   0.00000  Uiso   1.00
H30    H     0.23736   0.20280   0.10615   0.00000  Uiso   1.00
H31    H     0.10307   0.13243   0.38752   0.00000  Uiso   1.00
H32    H     0.32186   0.23399   0.00069   0.00000  Uiso   1.00
H33    H     0.32641   0.06331   0.01147   0.00000  Uiso   1.00
H34    H     0.14963   0.20282   0.09594   0.00000  Uiso   1.00
H35    H     0.16021   0.08573   0.41878   0.00000  Uiso   1.00
H36    H     0.06607   0.00341   0.24402   0.00000  Uiso   1.00
I37    I     0.06513   0.07117   0.10665   0.00000  Uiso   1.00
I38    I     0.25438   0.23897   0.40499   0.00000  Uiso   1.00
N39    N     0.14695   0.15216   0.23740   0.00000  Uiso   1.00
N40    N     0.18638   0.18117   0.26261   0.00000  Uiso   1.00
O41    O     0.29719   0.24631   0.25310   0.00000  Uiso   1.00
O42    O     0.03614   0.08702   0.24691   0.00000  Uiso   1.00
O43    O     0.05822   0.23702   0.24502   0.00000  Uiso   1.00
O44    O     0.27512   0.09632   0.25499   0.00000  Uiso   1.00
O45    O     0.30328   0.17397   0.32247   0.00000  Uiso   1.00
O46    O     0.03005   0.15937   0.17753   0.00000  Uiso   1.00
O47    O     0.06431   0.16467   0.31439   0.00000  Uiso   1.00
O48    O     0.26902   0.16866   0.18561   0.00000  Uiso   1.00
Zn49   Zn    0.27033   0.17287   0.25540   0.00000  Uiso   1.00
Zn50   Zn    0.06300   0.16046   0.24461   0.00000  Uiso   1.00
C51    C     0.34842   0.26492   0.24872   0.00000  Uiso   1.00
C52    C     0.64561   0.16080   0.15877   0.00000  Uiso   1.00
C53    C     0.36341   0.17522   0.39477   0.00000  Uiso   1.00
C54    C     0.63429   0.14881   0.10637   0.00000  Uiso   1.00
C55    C     0.34687   0.21111   0.47631   0.00000  Uiso   1.00
C56    C     0.63886   0.09278   0.03254   0.00000  Uiso   1.00
C57    C     0.66263   0.20303   0.42690   0.00000  Uiso   1.00
C58    C     0.66132   0.10998   0.07929   0.00000  Uiso   1.00
C59    C     0.41144   0.15302   0.41327   0.00000  Uiso   1.00
C60    C     0.58700   0.17025   0.08592   0.00000  Uiso   1.00
C61    C     0.42982   0.16117   0.46249   0.00000  Uiso   1.00
C62    C     0.65156   0.06841   0.25117   0.00000  Uiso   1.00
C63    C     0.55950   0.14803   0.04262   0.00000  Uiso   1.00
C64    C     0.39787   0.19240   0.49377   0.00000  Uiso   1.00
C65    C     0.58746   0.11043   0.01459   0.00000  Uiso   1.00
C66    C     0.48150   0.14242   0.48028   0.00000  Uiso   1.00
C67    C     0.50451   0.16150   0.02723   0.00000  Uiso   1.00
C68    C     0.47076   0.19148   0.05813   0.00000  Uiso   1.00
C69    C     0.51081   0.10525   0.45280   0.00000  Uiso   1.00
C70    C     0.41794   0.20590   0.04175   0.00000  Uiso   1.00
C71    C     0.56278   0.08946   0.46992   0.00000  Uiso   1.00
C72    C     0.35624   0.31951   0.24787   0.00000  Uiso   1.00
C73    C     0.64371   0.01381   0.25183   0.00000  Uiso   1.00
C74    C     0.35415   0.17138   0.34142   0.00000  Uiso   1.00
H75    H     0.39338   0.22889   0.06643   0.00000  Uiso   1.00
H76    H     0.60054   0.32990   0.25565   0.00000  Uiso   1.00
H77    H     0.49575   0.12462   0.21364   0.00000  Uiso   1.00
H78    H     0.50425   0.20873   0.28634   0.00000  Uiso   1.00
H79    H     0.58343   0.06026   0.44828   0.00000  Uiso   1.00
H80    H     0.57069   0.20280   0.10615   0.00000  Uiso   1.00
H81    H     0.43640   0.13243   0.38752   0.00000  Uiso   1.00
H82    H     0.65519   0.23399   0.00069   0.00000  Uiso   1.00
H83    H     0.65975   0.06331   0.01147   0.00000  Uiso   1.00
H84    H     0.48297   0.20282   0.09594   0.00000  Uiso   1.00
H85    H     0.49354   0.08573   0.41878   0.00000  Uiso   1.00
H86    H     0.39941   0.00341   0.24402   0.00000  Uiso   1.00
I87    I     0.39846   0.07117   0.10665   0.00000  Uiso   1.00
I88    I     0.58771   0.23897   0.40499   0.00000  Uiso   1.00
N89    N     0.48029   0.15216   0.23740   0.00000  Uiso   1.00
N90    N     0.51971   0.18117   0.26261   0.00000  Uiso   1.00
O91    O     0.63052   0.24631   0.25310   0.00000  Uiso   1.00
O92    O     0.36948   0.08702   0.24691   0.00000  Uiso   1.00
O93    O     0.39155   0.23702   0.24502   0.00000  Uiso   1.00
O94    O     0.60845   0.09632   0.25499   0.00000  Uiso   1.00
O95    O     0.63662   0.17397   0.32247   0.00000  Uiso   1.00
O96    O     0.36338   0.15937   0.17753   0.00000  Uiso   1.00
O97    O     0.39764   0.16467   0.31439   0.00000  Uiso   1.00
O98    O     0.60236   0.16866   0.18561   0.00000  Uiso   1.00
Zn99   Zn    0.60366   0.17287   0.25540   0.00000  Uiso   1.00
Zn100  Zn    0.39634   0.16046   0.24461   0.00000  Uiso   1.00
C101   C     0.68176   0.26492   0.24872   0.00000  Uiso   1.00
C102   C     0.97894   0.16080   0.15877   0.00000  Uiso   1.00
C103   C     0.69675   0.17522   0.39477   0.00000  Uiso   1.00
C104   C     0.96762   0.14881   0.10637   0.00000  Uiso   1.00
C105   C     0.68020   0.21111   0.47631   0.00000  Uiso   1.00
C106   C     0.97220   0.09278   0.03254   0.00000  Uiso   1.00
C107   C     0.99596   0.20303   0.42690   0.00000  Uiso   1.00
C108   C     0.99465   0.10998   0.07929   0.00000  Uiso   1.00
C109   C     0.74478   0.15302   0.41327   0.00000  Uiso   1.00
C110   C     0.92033   0.17025   0.08592   0.00000  Uiso   1.00
C111   C     0.76315   0.16117   0.46249   0.00000  Uiso   1.00
C112   C     0.98489   0.06841   0.25117   0.00000  Uiso   1.00
C113   C     0.89283   0.14803   0.04262   0.00000  Uiso   1.00
C114   C     0.73120   0.19240   0.49377   0.00000  Uiso   1.00
C115   C     0.92079   0.11043   0.01459   0.00000  Uiso   1.00
C116   C     0.81483   0.14242   0.48028   0.00000  Uiso   1.00
C117   C     0.83784   0.16150   0.02723   0.00000  Uiso   1.00
C118   C     0.80409   0.19148   0.05813   0.00000  Uiso   1.00
C119   C     0.84415   0.10525   0.45280   0.00000  Uiso   1.00
C120   C     0.75128   0.20590   0.04175   0.00000  Uiso   1.00
C121   C     0.89611   0.08946   0.46992   0.00000  Uiso   1.00
C122   C     0.68958   0.31951   0.24787   0.00000  Uiso   1.00
C123   C     0.97704   0.01381   0.25183   0.00000  Uiso   1.00
C124   C     0.68749   0.17138   0.34142   0.00000  Uiso   1.00
H125   H     0.72672   0.22889   0.06643   0.00000  Uiso   1.00
H126   H     0.93388   0.32990   0.25565   0.00000  Uiso   1.00
H127   H     0.82908   0.12462   0.21364   0.00000  Uiso   1.00
H128   H     0.83758   0.20873   0.28634   0.00000  Uiso   1.00
H129   H     0.91676   0.06026   0.44828   0.00000  Uiso   1.00
H130   H     0.90402   0.20280   0.10615   0.00000  Uiso   1.00
H131   H     0.76973   0.13243   0.38752   0.00000  Uiso   1.00
H132   H     0.98853   0.23399   0.00069   0.00000  Uiso   1.00
H133   H     0.99308   0.06331   0.01147   0.00000  Uiso   1.00
H134   H     0.81630   0.20282   0.09594   0.00000  Uiso   1.00
H135   H     0.82687   0.08573   0.41878   0.00000  Uiso   1.00
H136   H     0.73274   0.00341   0.24402   0.00000  Uiso   1.00
I137   I     0.73179   0.07117   0.10665   0.00000  Uiso   1.00
I138   I     0.92105   0.23897   0.40499   0.00000  Uiso   1.00
N139   N     0.81362   0.15216   0.23740   0.00000  Uiso   1.00
N140   N     0.85305   0.18117   0.26261   0.00000  Uiso   1.00
O141   O     0.96386   0.24631   0.25310   0.00000  Uiso   1.00
O142   O     0.70281   0.08702   0.24691   0.00000  Uiso   1.00
O143   O     0.72488   0.23702   0.24502   0.00000  Uiso   1.00
O144   O     0.94178   0.09632   0.25499   0.00000  Uiso   1.00
O145   O     0.96995   0.17397   0.32247   0.00000  Uiso   1.00
O146   O     0.69672   0.15937   0.17753   0.00000  Uiso   1.00
O147   O     0.73098   0.16467   0.31439   0.00000  Uiso   1.00
O148   O     0.93569   0.16866   0.18561   0.00000  Uiso   1.00
Zn149  Zn    0.93700   0.17287   0.25540   0.00000  Uiso   1.00
Zn150  Zn    0.72967   0.16046   0.24461   0.00000  Uiso   1.00
C151   C     0.01509   0.59825   0.24872   0.00000  Uiso   1.00
C152   C     0.31228   0.49413   0.15877   0.00000  Uiso   1.00
C153   C     0.03008   0.50855   0.39477   0.00000  Uiso   1.00
C154   C     0.30095   0.48215   0.10637   0.00000  Uiso   1.00
C155   C     0.01354   0.54445   0.47631   0.00000  Uiso   1.00
C156   C     0.30553   0.42611   0.03254   0.00000  Uiso   1.00
C157   C     0.32929   0.53636   0.42690   0.00000  Uiso   1.00
C158   C     0.32799   0.44332   0.07929   0.00000  Uiso   1.00
C159   C     0.07811   0.48635   0.41327   0.00000  Uiso   1.00
C160   C     0.25367   0.50358   0.08592   0.00000  Uiso   1.00
C161   C     0.09649   0.49450   0.46249   0.00000  Uiso   1.00
C162   C     0.31823   0.40174   0.25117   0.00000  Uiso   1.00
C163   C     0.22616   0.48137   0.04262   0.00000  Uiso   1.00
C164   C     0.06454   0.52574   0.49377   0.00000  Uiso   1.00
C165   C     0.25413   0.44377   0.01459   0.00000  Uiso   1.00
C166   C     0.14816   0.47575   0.48028   0.00000  Uiso   1.00
C167   C     0.17117   0.49483   0.02723   0.00000  Uiso   1.00
C168   C     0.13743   0.52481   0.05813   0.00000  Uiso   1.00
C169   C     0.17748   0.43858   0.45280   0.00000  Uiso   1.00
C170   C     0.08461   0.53923   0.04175   0.00000  Uiso   1.00
C171   C     0.22945   0.42280   0.46992   0.00000  Uiso   1.00
C172   C     0.02291   0.65284   0.24787   0.00000  Uiso   1.00
C173   C     0.31038   0.34714   0.25183   0.00000  Uiso   1.00
C174   C     0.02082   0.50472   0.34142   0.00000  Uiso   1.00
H175   H     0.06005   0.56223   0.06643   0.00000  Uiso   1.00
H176   H     0.26721   0.66323   0.25565   0.00000  Uiso   1.00
H177   H     0.16242   0.45795   0.21364   0.00000  Uiso   1.00
H178   H     0.17091   0.54206   0.28634   0.00000  Uiso   1.00
H179   H     0.25010   0.39360   0.44828   0.00000  Uiso   1.00
H180   H     0.23736   0.53614   0.10615   0.00000  Uiso   1.00
H181   H     0.10307   0.46577   0.38752   0.00000  Uiso   1.00
H182   H     0.32186   0.56732   0.00069   0.00000  Uiso   1.00
H183   H     0.32641   0.39664   0.01147   0.00000  Uiso   1.00
H184   H     0.14963   0.53616   0.09594   0.00000  Uiso   1.00
H185   H     0.16021   0.41906   0.41878   0.00000  Uiso   1.00
H186   H     0.06607   0.33675   0.24402   0.00000  Uiso   1.00
I187   I     0.06513   0.40450   0.10665   0.00000  Uiso   1.00
I188   I     0.25438   0.57230   0.40499   0.00000  Uiso   1.00
N189   N     0.14695   0.48550   0.23740   0.00000  Uiso   1.00
N190   N     0.18638   0.51450   0.26261   0.00000  Uiso   1.00
O191   O     0.29719   0.57964   0.25310   0.00000  Uiso   1.00
O192   O     0.03614   0.42036   0.24691   0.00000  Uiso   1.00
O193   O     0.05822   0.57035   0.24502   0.00000  Uiso   1.00
O194   O     0.27512   0.42965   0.25499   0.00000  Uiso   1.00
O195   O     0.30328   0.50730   0.32247   0.00000  Uiso   1.00
O196   O     0.03005   0.49270   0.17753   0.00000  Uiso   1.00
O197   O     0.06431   0.49801   0.31439   0.00000  Uiso   1.00
O198   O     0.26902   0.50199   0.18561   0.00000  Uiso   1.00
Zn199  Zn    0.27033   0.50621   0.25540   0.00000  Uiso   1.00
Zn200  Zn    0.06300   0.49379   0.24461   0.00000  Uiso   1.00
C201   C     0.34842   0.59825   0.24872   0.00000  Uiso   1.00
C202   C     0.64561   0.49413   0.15877   0.00000  Uiso   1.00
C203   C     0.36341   0.50855   0.39477   0.00000  Uiso   1.00
C204   C     0.63429   0.48215   0.10637   0.00000  Uiso   1.00
C205   C     0.34687   0.54445   0.47631   0.00000  Uiso   1.00
C206   C     0.63886   0.42611   0.03254   0.00000  Uiso   1.00
C207   C     0.66263   0.53636   0.42690   0.00000  Uiso   1.00
C208   C     0.66132   0.44332   0.07929   0.00000  Uiso   1.00
C209   C     0.41144   0.48635   0.41327   0.00000  Uiso   1.00
C210   C     0.58700   0.50358   0.08592   0.00000  Uiso   1.00
C211   C     0.42982   0.49450   0.46249   0.00000  Uiso   1.00
C212   C     0.65156   0.40174   0.25117   0.00000  Uiso   1.00
C213   C     0.55950   0.48137   0.04262   0.00000  Uiso   1.00
C214   C     0.39787   0.52574   0.49377   0.00000  Uiso   1.00
C215   C     0.58746   0.44377   0.01459   0.00000  Uiso   1.00
C216   C     0.48150   0.47575   0.48028   0.00000  Uiso   1.00
C217   C     0.50451   0.49483   0.02723   0.00000  Uiso   1.00
C218   C     0.47076   0.52481   0.05813   0.00000  Uiso   1.00
C219   C     0.51081   0.43858   0.45280   0.00000  Uiso   1.00
C220   C     0.41794   0.53923   0.04175   0.00000  Uiso   1.00
C221   C     0.56278   0.42280   0.46992   0.00000  Uiso   1.00
C222   C     0.35624   0.65284   0.24787   0.00000  Uiso   1.00
C223   C     0.64371   0.34714   0.25183   0.00000  Uiso   1.00
C224   C     0.35415   0.50472   0.34142   0.00000  Uiso   1.00
H225   H     0.39338   0.56223   0.06643   0.00000  Uiso   1.00
H226   H     0.60054   0.66323   0.25565   0.00000  Uiso   1.00
H227   H     0.49575   0.45795   0.21364   0.00000  Uiso   1.00
H228   H     0.50425   0.54206   0.28634   0.00000  Uiso   1.00
H229   H     0.58343   0.39360   0.44828   0.00000  Uiso   1.00
H230   H     0.57069   0.53614   0.10615   0.00000  Uiso   1.00
H231   H     0.43640   0.46577   0.38752   0.00000  Uiso   1.00
H232   H     0.65519   0.56732   0.00069   0.00000  Uiso   1.00
H233   H     0.65975   0.39664   0.01147   0.00000  Uiso   1.00
H234   H     0.48297   0.53616   0.09594   0.00000  Uiso   1.00
H235   H     0.49354   0.41906   0.41878   0.00000  Uiso   1.00
H236   H     0.39941   0.33675   0.24402   0.00000  Uiso   1.00
I237   I     0.39846   0.40450   0.10665   0.00000  Uiso   1.00
I238   I     0.58771   0.57230   0.40499   0.00000  Uiso   1.00
N239   N     0.48029   0.48550   0.23740   0.00000  Uiso   1.00
N240   N     0.51971   0.51450   0.26261   0.00000  Uiso   1.00
O241   O     0.63052   0.57964   0.25310   0.00000  Uiso   1.00
O242   O     0.36948   0.42036   0.24691   0.00000  Uiso   1.00
O243   O     0.39155   0.57035   0.24502   0.00000  Uiso   1.00
O244   O     0.60845   0.42965   0.25499   0.00000  Uiso   1.00
O245   O     0.63662   0.50730   0.32247   0.00000  Uiso   1.00
O246   O     0.36338   0.49270   0.17753   0.00000  Uiso   1.00
O247   O     0.39764   0.49801   0.31439   0.00000  Uiso   1.00
O248   O     0.60236   0.50199   0.18561   0.00000  Uiso   1.00
Zn249  Zn    0.60366   0.50621   0.25540   0.00000  Uiso   1.00
Zn250  Zn    0.39634   0.49379   0.24461   0.00000  Uiso   1.00
C251   C     0.68176   0.59825   0.24872   0.00000  Uiso   1.00
C252   C     0.97894   0.49413   0.15877   0.00000  Uiso   1.00
C253   C     0.69675   0.50855   0.39477   0.00000  Uiso   1.00
C254   C     0.96762   0.48215   0.10637   0.00000  Uiso   1.00
C255   C     0.68020   0.54445   0.47631   0.00000  Uiso   1.00
C256   C     0.97220   0.42611   0.03254   0.00000  Uiso   1.00
C257   C     0.99596   0.53636   0.42690   0.00000  Uiso   1.00
C258   C     0.99465   0.44332   0.07929   0.00000  Uiso   1.00
C259   C     0.74478   0.48635   0.41327   0.00000  Uiso   1.00
C260   C     0.92033   0.50358   0.08592   0.00000  Uiso   1.00
C261   C     0.76315   0.49450   0.46249   0.00000  Uiso   1.00
C262   C     0.98489   0.40174   0.25117   0.00000  Uiso   1.00
C263   C     0.89283   0.48137   0.04262   0.00000  Uiso   1.00
C264   C     0.73120   0.52574   0.49377   0.00000  Uiso   1.00
C265   C     0.92079   0.44377   0.01459   0.00000  Uiso   1.00
C266   C     0.81483   0.47575   0.48028   0.00000  Uiso   1.00
C267   C     0.83784   0.49483   0.02723   0.00000  Uiso   1.00
C268   C     0.80409   0.52481   0.05813   0.00000  Uiso   1.00
C269   C     0.84415   0.43858   0.45280   0.00000  Uiso   1.00
C270   C     0.75128   0.53923   0.04175   0.00000  Uiso   1.00
C271   C     0.89611   0.42280   0.46992   0.00000  Uiso   1.00
C272   C     0.68958   0.65284   0.24787   0.00000  Uiso   1.00
C273   C     0.97704   0.34714   0.25183   0.00000  Uiso   1.00
C274   C     0.68749   0.50472   0.34142   0.00000  Uiso   1.00
H275   H     0.72672   0.56223   0.06643   0.00000  Uiso   1.00
H276   H     0.93388   0.66323   0.25565   0.00000  Uiso   1.00
H277   H     0.82908   0.45795   0.21364   0.00000  Uiso   1.00
H278   H     0.83758   0.54206   0.28634   0.00000  Uiso   1.00
H279   H     0.91676   0.39360   0.44828   0.00000  Uiso   1.00
H280   H     0.90402   0.53614   0.10615   0.00000  Uiso   1.00
H281   H     0.76973   0.46577   0.38752   0.00000  Uiso   1.00
H282   H     0.98853   0.56732   0.00069   0.00000  Uiso   1.00
H283   H     0.99308   0.39664   0.01147   0.00000  Uiso   1.00
H284   H     0.81630   0.53616   0.09594   0.00000  Uiso   1.00
H285   H     0.82687   0.41906   0.41878   0.00000  Uiso   1.00
H286   H     0.73274   0.33675   0.24402   0.00000  Uiso   1.00
I287   I     0.73179   0.40450   0.10665   0.00000  Uiso   1.00
I288   I     0.92105   0.57230   0.40499   0.00000  Uiso   1.00
N289   N     0.81362   0.48550   0.23740   0.00000  Uiso   1.00
N290   N     0.85305   0.51450   0.26261   0.00000  Uiso   1.00
O291   O     0.96386   0.57964   0.25310   0.00000  Uiso   1.00
O292   O     0.70281   0.42036   0.24691   0.00000  Uiso   1.00
O293   O     0.72488   0.57035   0.24502   0.00000  Uiso   1.00
O294   O     0.94178   0.42965   0.25499   0.00000  Uiso   1.00
O295   O     0.96995   0.50730   0.32247   0.00000  Uiso   1.00
O296   O     0.69672   0.49270   0.17753   0.00000  Uiso   1.00
O297   O     0.73098   0.49801   0.31439   0.00000  Uiso   1.00
O298   O     0.93569   0.50199   0.18561   0.00000  Uiso   1.00
Zn299  Zn    0.93700   0.50621   0.25540   0.00000  Uiso   1.00
Zn300  Zn    0.72967   0.49379   0.24461   0.00000  Uiso   1.00
C301   C     0.01509   0.93159   0.24872   0.00000  Uiso   1.00
C302   C     0.31228   0.82747   0.15877   0.00000  Uiso   1.00
C303   C     0.03008   0.84189   0.39477   0.00000  Uiso   1.00
C304   C     0.30095   0.81548   0.10637   0.00000  Uiso   1.00
C305   C     0.01354   0.87778   0.47631   0.00000  Uiso   1.00
C306   C     0.30553   0.75944   0.03254   0.00000  Uiso   1.00
C307   C     0.32929   0.86970   0.42690   0.00000  Uiso   1.00
C308   C     0.32799   0.77665   0.07929   0.00000  Uiso   1.00
C309   C     0.07811   0.81969   0.41327   0.00000  Uiso   1.00
C310   C     0.25367   0.83691   0.08592   0.00000  Uiso   1.00
C311   C     0.09649   0.82784   0.46249   0.00000  Uiso   1.00
C312   C     0.31823   0.73507   0.25117   0.00000  Uiso   1.00
C313   C     0.22616   0.81470   0.04262   0.00000  Uiso   1.00
C314   C     0.06454   0.85907   0.49377   0.00000  Uiso   1.00
C315   C     0.25413   0.77710   0.01459   0.00000  Uiso   1.00
C316   C     0.14816   0.80908   0.48028   0.00000  Uiso   1.00
C317   C     0.17117   0.82816   0.02723   0.00000  Uiso   1.00
C318   C     0.13743   0.85814   0.05813   0.00000  Uiso   1.00
C319   C     0.17748   0.77191   0.45280   0.00000  Uiso   1.00
C320   C     0.08461   0.87256   0.04175   0.00000  Uiso   1.00
C321   C     0.22945   0.75613   0.46992   0.00000  Uiso   1.00
C322   C     0.02291   0.98617   0.24787   0.00000  Uiso   1.00
C323   C     0.31038   0.68048   0.25183   0.00000  Uiso   1.00
C324   C     0.02082   0.83805   0.34142   0.00000  Uiso   1.00
H325   H     0.06005   0.89556   0.06643   0.00000  Uiso   1.00
H326   H     0.26721   0.99657   0.25565   0.00000  Uiso   1.00
H327   H     0.16242   0.79128   0.21364   0.00000  Uiso   1.00
H328   H     0.17091   0.87539   0.28634   0.00000  Uiso   1.00
H329   H     0.25010   0.72693   0.44828   0.00000  Uiso   1.00
H330   H     0.23736   0.86947   0.10615   0.00000  Uiso   1.00
H331   H     0.10307   0.79910   0.38752   0.00000  Uiso   1.00
H332   H     0.32186   0.90065   0.00069   0.00000  Uiso   1.00
H333   H     0.32641   0.72998   0.01147   0.00000  Uiso   1.00
H334   H     0.14963   0.86949   0.09594   0.00000  Uiso   1.00
H335   H     0.16021   0.75239   0.41878   0.00000  Uiso   1.00
H336   H     0.06607   0.67008   0.24402   0.00000  Uiso   1.00
I337   I     0.06513   0.73784   0.10665   0.00000  Uiso   1.00
I338   I     0.25438   0.90563   0.40499   0.00000  Uiso   1.00
N339   N     0.14695   0.81883   0.23740   0.00000  Uiso   1.00
N340   N     0.18638   0.84784   0.26261   0.00000  Uiso   1.00
O341   O     0.29719   0.91298   0.25310   0.00000  Uiso   1.00
O342   O     0.03614   0.75369   0.24691   0.00000  Uiso   1.00
O343   O     0.05822   0.90368   0.24502   0.00000  Uiso   1.00
O344   O     0.27512   0.76298   0.25499   0.00000  Uiso   1.00
O345   O     0.30328   0.84063   0.32247   0.00000  Uiso   1.00
O346   O     0.03005   0.82603   0.17753   0.00000  Uiso   1.00
O347   O     0.06431   0.83134   0.31439   0.00000  Uiso   1.00
O348   O     0.26902   0.83533   0.18561   0.00000  Uiso   1.00
Zn349  Zn    0.27033   0.83954   0.25540   0.00000  Uiso   1.00
Zn350  Zn    0.06300   0.82713   0.24461   0.00000  Uiso   1.00
C351   C     0.34842   0.93159   0.24872   0.00000  Uiso   1.00
C352   C     0.64561   0.82747   0.15877   0.00000  Uiso   1.00
C353   C     0.36341   0.84189   0.39477   0.00000  Uiso   1.00
C354   C     0.63429   0.81548   0.10637   0.00000  Uiso   1.00
C355   C     0.34687   0.87778   0.47631   0.00000  Uiso   1.00
C356   C     0.63886   0.75944   0.03254   0.00000  Uiso   1.00
C357   C     0.66263   0.86970   0.42690   0.00000  Uiso   1.00
C358   C     0.66132   0.77665   0.07929   0.00000  Uiso   1.00
C359   C     0.41144   0.81969   0.41327   0.00000  Uiso   1.00
C360   C     0.58700   0.83691   0.08592   0.00000  Uiso   1.00
C361   C     0.42982   0.82784   0.46249   0.00000  Uiso   1.00
C362   C     0.65156   0.73507   0.25117   0.00000  Uiso   1.00
C363   C     0.55950   0.81470   0.04262   0.00000  Uiso   1.00
C364   C     0.39787   0.85907   0.49377   0.00000  Uiso   1.00
C365   C     0.58746   0.77710   0.01459   0.00000  Uiso   1.00
C366   C     0.48150   0.80908   0.48028   0.00000  Uiso   1.00
C367   C     0.50451   0.82816   0.02723   0.00000  Uiso   1.00
C368   C     0.47076   0.85814   0.05813   0.00000  Uiso   1.00
C369   C     0.51081   0.77191   0.45280   0.00000  Uiso   1.00
C370   C     0.41794   0.87256   0.04175   0.00000  Uiso   1.00
C371   C     0.56278   0.75613   0.46992   0.00000  Uiso   1.00
C372   C     0.35624   0.98617   0.24787   0.00000  Uiso   1.00
C373   C     0.64371   0.68048   0.25183   0.00000  Uiso   1.00
C374   C     0.35415   0.83805   0.34142   0.00000  Uiso   1.00
H375   H     0.39338   0.89556   0.06643   0.00000  Uiso   1.00
H376   H     0.60054   0.99657   0.25565   0.00000  Uiso   1.00
H377   H     0.49575   0.79128   0.21364   0.00000  Uiso   1.00
H378   H     0.50425   0.87539   0.28634   0.00000  Uiso   1.00
H379   H     0.58343   0.72693   0.44828   0.00000  Uiso   1.00
H380   H     0.57069   0.86947   0.10615   0.00000  Uiso   1.00
H381   H     0.43640   0.79910   0.38752   0.00000  Uiso   1.00
H382   H     0.65519   0.90065   0.00069   0.00000  Uiso   1.00
H383   H     0.65975   0.72998   0.01147   0.00000  Uiso   1.00
H384   H     0.48297   0.86949   0.09594   0.00000  Uiso   1.00
H385   H     0.49354   0.75239   0.41878   0.00000  Uiso   1.00
H386   H     0.39941   0.67008   0.24402   0.00000  Uiso   1.00
I387   I     0.39846   0.73784   0.10665   0.00000  Uiso   1.00
I388   I     0.58771   0.90563   0.40499   0.00000  Uiso   1.00
N389   N     0.48029   0.81883   0.23740   0.00000  Uiso   1.00
N390   N     0.51971   0.84784   0.26261   0.00000  Uiso   1.00
O391   O     0.63052   0.91298   0.25310   0.00000  Uiso   1.00
O392   O     0.36948   0.75369   0.24691   0.00000  Uiso   1.00
O393   O     0.39155   0.90368   0.24502   0.00000  Uiso   1.00
O394   O     0.60845   0.76298   0.25499   0.00000  Uiso   1.00
O395   O     0.63662   0.84063   0.32247   0.00000  Uiso   1.00
O396   O     0.36338   0.82603   0.17753   0.00000  Uiso   1.00
O397   O     0.39764   0.83134   0.31439   0.00000  Uiso   1.00
O398   O     0.60236   0.83533   0.18561   0.00000  Uiso   1.00
Zn399  Zn    0.60366   0.83954   0.25540   0.00000  Uiso   1.00
Zn400  Zn    0.39634   0.82713   0.24461   0.00000  Uiso   1.00
C401   C     0.68176   0.93159   0.24872   0.00000  Uiso   1.00
C402   C     0.97894   0.82747   0.15877   0.00000  Uiso   1.00
C403   C     0.69675   0.84189   0.39477   0.00000  Uiso   1.00
C404   C     0.96762   0.81548   0.10637   0.00000  Uiso   1.00
C405   C     0.68020   0.87778   0.47631   0.00000  Uiso   1.00
C406   C     0.97220   0.75944   0.03254   0.00000  Uiso   1.00
C407   C     0.99596   0.86970   0.42690   0.00000  Uiso   1.00
C408   C     0.99465   0.77665   0.07929   0.00000  Uiso   1.00
C409   C     0.74478   0.81969   0.41327   0.00000  Uiso   1.00
C410   C     0.92033   0.83691   0.08592   0.00000  Uiso   1.00
C411   C     0.76315   0.82784   0.46249   0.00000  Uiso   1.00
C412   C     0.98489   0.73507   0.25117   0.00000  Uiso   1.00
C413   C     0.89283   0.81470   0.04262   0.00000  Uiso   1.00
C414   C     0.73120   0.85907   0.49377   0.00000  Uiso   1.00
C415   C     0.92079   0.77710   0.01459   0.00000  Uiso   1.00
C416   C     0.81483   0.80908   0.48028   0.00000  Uiso   1.00
C417   C     0.83784   0.82816   0.02723   0.00000  Uiso   1.00
C418   C     0.80409   0.85814   0.05813   0.00000  Uiso   1.00
C419   C     0.84415   0.77191   0.45280   0.00000  Uiso   1.00
C420   C     0.75128   0.87256   0.04175   0.00000  Uiso   1.00
C421   C     0.89611   0.75613   0.46992   0.00000  Uiso   1.00
C422   C     0.68958   0.98617   0.24787   0.00000  Uiso   1.00
C423   C     0.97704   0.68048   0.25183   0.00000  Uiso   1.00
C424   C     0.68749   0.83805   0.34142   0.00000  Uiso   1.00
H425   H     0.72672   0.89556   0.06643   0.00000  Uiso   1.00
H426   H     0.93388   0.99657   0.25565   0.00000  Uiso   1.00
H427   H     0.82908   0.79128   0.21364   0.00000  Uiso   1.00
H428   H     0.83758   0.87539   0.28634   0.00000  Uiso   1.00
H429   H     0.91676   0.72693   0.44828   0.00000  Uiso   1.00
H430   H     0.90402   0.86947   0.10615   0.00000  Uiso   1.00
H431   H     0.76973   0.79910   0.38752   0.00000  Uiso   1.00
H432   H     0.98853   0.90065   0.00069   0.00000  Uiso   1.00
H433   H     0.99308   0.72998   0.01147   0.00000  Uiso   1.00
H434   H     0.81630   0.86949   0.09594   0.00000  Uiso   1.00
H435   H     0.82687   0.75239   0.41878   0.00000  Uiso   1.00
H436   H     0.73274   0.67008   0.24402   0.00000  Uiso   1.00
I437   I     0.73179   0.73784   0.10665   0.00000  Uiso   1.00
I438   I     0.92105   0.90563   0.40499   0.00000  Uiso   1.00
N439   N     0.81362   0.81883   0.23740   0.00000  Uiso   1.00
N440   N     0.85305   0.84784   0.26261   0.00000  Uiso   1.00
O441   O     0.96386   0.91298   0.25310   0.00000  Uiso   1.00
O442   O     0.70281   0.75369   0.24691   0.00000  Uiso   1.00
O443   O     0.72488   0.90368   0.24502   0.00000  Uiso   1.00
O444   O     0.94178   0.76298   0.25499   0.00000  Uiso   1.00
O445   O     0.96995   0.84063   0.32247   0.00000  Uiso   1.00
O446   O     0.69672   0.82603   0.17753   0.00000  Uiso   1.00
O447   O     0.73098   0.83134   0.31439   0.00000  Uiso   1.00
O448   O     0.93569   0.83533   0.18561   0.00000  Uiso   1.00
Zn449  Zn    0.93700   0.83954   0.25540   0.00000  Uiso   1.00
Zn450  Zn    0.72967   0.82713   0.24461   0.00000  Uiso   1.00
C451   C     0.01509   0.26492   0.74872   0.00000  Uiso   1.00
C452   C     0.31228   0.16080   0.65877   0.00000  Uiso   1.00
C453   C     0.03008   0.17522   0.89477   0.00000  Uiso   1.00
C454   C     0.30095   0.14881   0.60637   0.00000  Uiso   1.00
C455   C     0.01354   0.21111   0.97631   0.00000  Uiso   1.00
C456   C     0.30553   0.09278   0.53254   0.00000  Uiso   1.00
C457   C     0.32929   0.20303   0.92690   0.00000  Uiso   1.00
C458   C     0.32799   0.10998   0.57929   0.00000  Uiso   1.00
C459   C     0.07811   0.15302   0.91327   0.00000  Uiso   1.00
C460   C     0.25367   0.17025   0.58592   0.00000  Uiso   1.00
C461   C     0.09649   0.16117   0.96249   0.00000  Uiso   1.00
C462   C     0.31823   0.06841   0.75117   0.00000  Uiso   1.00
C463   C     0.22616   0.14803   0.54262   0.00000  Uiso   1.00
C464   C     0.06454   0.19240   0.99377   0.00000  Uiso   1.00
C465   C     0.25413   0.11043   0.51459   0.00000  Uiso   1.00
C466   C     0.14816   0.14242   0.98028   0.00000  Uiso   1.00
C467   C     0.17117   0.16150   0.52723   0.00000  Uiso   1.00
C468   C     0.13743   0.19148   0.55813   0.00000  Uiso   1.00
C469   C     0.17748   0.10525   0.95280   0.00000  Uiso   1.00
C470   C     0.08461   0.20590   0.54175   0.00000  Uiso   1.00
C471   C     0.22945   0.08946   0.96992   0.00000  Uiso   1.00
C472   C     0.02291   0.31951   0.74787   0.00000  Uiso   1.00
C473   C     0.31038   0.01381   0.75183   0.00000  Uiso   1.00
C474   C     0.02082   0.17138   0.84142   0.00000  Uiso   1.00
H475   H     0.06005   0.22889   0.56643   0.00000  Uiso   1.00
H476   H     0.26721   0.32990   0.75565   0.00000  Uiso   1.00
H477   H     0.16242   0.12462   0.71364   0.00000  Uiso   1.00
H478   H     0.17091   0.20873   0.78634   0.00000  Uiso   1.00
H479   H     0.25010   0.06026   0.94828   0.00000  Uiso   1.00
H480   H     0.23736   0.20280   0.60615   0.00000  Uiso   1.00
H481   H     0.10307   0.13243   0.88752   0.00000  Uiso   1.00
H482   H     0.32186   0.23399   0.50069   0.00000  Uiso   1.00
H483   H     0.32641   0.06331   0.51147   0.00000  Uiso   1.00
H484   H     0.14963   0.20282   0.59594   0.00000  Uiso   1.00
H485   H     0.16021   0.08573   0.91878   0.00000  Uiso   1.00
H486   H     0.06607   0.00341   0.74402   0.00000  Uiso   1.00
I487   I     0.06513   0.07117   0.60665   0.00000  Uiso   1.00
I488   I     0.25438   0.23897   0.90499   0.00000  Uiso   1.00
N489   N     0.14695   0.15216   0.73740   0.00000  Uiso   1.00
N490   N     0.18638   0.18117   0.76261   0.00000  Uiso   1.00
O491   O     0.29719   0.24631   0.75310   0.00000  Uiso   1.00
O492   O     0.03614   0.08702   0.74691   0.00000  Uiso   1.00
O493   O     0.05822   0.23702   0.74502   0.00000  Uiso   1.00
O494   O     0.27512   0.09632   0.75499   0.00000  Uiso   1.00
O495   O     0.30328   0.17397   0.82247   0.00000  Uiso   1.00
O496   O     0.03005   0.15937   0.67753   0.00000  Uiso   1.00
O497   O     0.06431   0.16467   0.81439   0.00000  Uiso   1.00
O498   O     0.26902   0.16866   0.68561   0.00000  Uiso   1.00
Zn499  Zn    0.27033   0.17287   0.75540   0.00000  Uiso   1.00
Zn500  Zn    0.06300   0.16046   0.74461   0.00000  Uiso   1.00
C501   C     0.34842   0.26492   0.74872   0.00000  Uiso   1.00
C502   C     0.64561   0.16080   0.65877   0.00000  Uiso   1.00
C503   C     0.36341   0.17522   0.89477   0.00000  Uiso   1.00
C504   C     0.63429   0.14881   0.60637   0.00000  Uiso   1.00
C505   C     0.34687   0.21111   0.97631   0.00000  Uiso   1.00
C506   C     0.63886   0.09278   0.53254   0.00000  Uiso   1.00
C507   C     0.66263   0.20303   0.92690   0.00000  Uiso   1.00
C508   C     0.66132   0.10998   0.57929   0.00000  Uiso   1.00
C509   C     0.41144   0.15302   0.91327   0.00000  Uiso   1.00
C510   C     0.58700   0.17025   0.58592   0.00000  Uiso   1.00
C511   C     0.42982   0.16117   0.96249   0.00000  Uiso   1.00
C512   C     0.65156   0.06841   0.75117   0.00000  Uiso   1.00
C513   C     0.55950   0.14803   0.54262   0.00000  Uiso   1.00
C514   C     0.39787   0.19240   0.99377   0.00000  Uiso   1.00
C515   C     0.58746   0.11043   0.51459   0.00000  Uiso   1.00
C516   C     0.48150   0.14242   0.98028   0.00000  Uiso   1.00
C517   C     0.50451   0.16150   0.52723   0.00000  Uiso   1.00
C518   C     0.47076   0.19148   0.55813   0.00000  Uiso   1.00
C519   C     0.51081   0.10525   0.95280   0.00000  Uiso   1.00
C520   C     0.41794   0.20590   0.54175   0.00000  Uiso   1.00
C521   C     0.56278   0.08946   0.96992   0.00000  Uiso   1.00
C522   C     0.35624   0.31951   0.74787   0.00000  Uiso   1.00
C523   C     0.64371   0.01381   0.75183   0.00000  Uiso   1.00
C524   C     0.35415   0.17138   0.84142   0.00000  Uiso   1.00
H525   H     0.39338   0.22889   0.56643   0.00000  Uiso   1.00
H526   H     0.60054   0.32990   0.75565   0.00000  Uiso   1.00
H527   H     0.49575   0.12462   0.71364   0.00000  Uiso   1.00
H528   H     0.50425   0.20873   0.78634   0.00000  Uiso   1.00
H529   H     0.58343   0.06026   0.94828   0.00000  Uiso   1.00
H530   H     0.57069   0.20280   0.60615   0.00000  Uiso   1.00
H531   H     0.43640   0.13243   0.88752   0.00000  Uiso   1.00
H532   H     0.65519   0.23399   0.50069   0.00000  Uiso   1.00
H533   H     0.65975   0.06331   0.51147   0.00000  Uiso   1.00
H534   H     0.48297   0.20282   0.59594   0.00000  Uiso   1.00
H535   H     0.49354   0.08573   0.91878   0.00000  Uiso   1.00
H536   H     0.39941   0.00341   0.74402   0.00000  Uiso   1.00
I537   I     0.39846   0.07117   0.60665   0.00000  Uiso   1.00
I538   I     0.58771   0.23897   0.90499   0.00000  Uiso   1.00
N539   N     0.48029   0.15216   0.73740   0.00000  Uiso   1.00
N540   N     0.51971   0.18117   0.76261   0.00000  Uiso   1.00
O541   O     0.63052   0.24631   0.75310   0.00000  Uiso   1.00
O542   O     0.36948   0.08702   0.74691   0.00000  Uiso   1.00
O543   O     0.39155   0.23702   0.74502   0.00000  Uiso   1.00
O544   O     0.60845   0.09632   0.75499   0.00000  Uiso   1.00
O545   O     0.63662   0.17397   0.82247   0.00000  Uiso   1.00
O546   O     0.36338   0.15937   0.67753   0.00000  Uiso   1.00
O547   O     0.39764   0.16467   0.81439   0.00000  Uiso   1.00
O548   O     0.60236   0.16866   0.68561   0.00000  Uiso   1.00
Zn549  Zn    0.60366   0.17287   0.75540   0.00000  Uiso   1.00
Zn550  Zn    0.39634   0.16046   0.74461   0.00000  Uiso   1.00
C551   C     0.68176   0.26492   0.74872   0.00000  Uiso   1.00
C552   C     0.97894   0.16080   0.65877   0.00000  Uiso   1.00
C553   C     0.69675   0.17522   0.89477   0.00000  Uiso   1.00
C554   C     0.96762   0.14881   0.60637   0.00000  Uiso   1.00
C555   C     0.68020   0.21111   0.97631   0.00000  Uiso   1.00
C556   C     0.97220   0.09278   0.53254   0.00000  Uiso   1.00
C557   C     0.99596   0.20303   0.92690   0.00000  Uiso   1.00
C558   C     0.99465   0.10998   0.57929   0.00000  Uiso   1.00
C559   C     0.74478   0.15302   0.91327   0.00000  Uiso   1.00
C560   C     0.92033   0.17025   0.58592   0.00000  Uiso   1.00
C561   C     0.76315   0.16117   0.96249   0.00000  Uiso   1.00
C562   C     0.98489   0.06841   0.75117   0.00000  Uiso   1.00
C563   C     0.89283   0.14803   0.54262   0.00000  Uiso   1.00
C564   C     0.73120   0.19240   0.99377   0.00000  Uiso   1.00
C565   C     0.92079   0.11043   0.51459   0.00000  Uiso   1.00
C566   C     0.81483   0.14242   0.98028   0.00000  Uiso   1.00
C567   C     0.83784   0.16150   0.52723   0.00000  Uiso   1.00
C568   C     0.80409   0.19148   0.55813   0.00000  Uiso   1.00
C569   C     0.84415   0.10525   0.95280   0.00000  Uiso   1.00
C570   C     0.75128   0.20590   0.54175   0.00000  Uiso   1.00
C571   C     0.89611   0.08946   0.96992   0.00000  Uiso   1.00
C572   C     0.68958   0.31951   0.74787   0.00000  Uiso   1.00
C573   C     0.97704   0.01381   0.75183   0.00000  Uiso   1.00
C574   C     0.68749   0.17138   0.84142   0.00000  Uiso   1.00
H575   H     0.72672   0.22889   0.56643   0.00000  Uiso   1.00
H576   H     0.93388   0.32990   0.75565   0.00000  Uiso   1.00
H577   H     0.82908   0.12462   0.71364   0.00000  Uiso   1.00
H578   H     0.83758   0.20873   0.78634   0.00000  Uiso   1.00
H579   H     0.91676   0.06026   0.94828   0.00000  Uiso   1.00
H580   H     0.90402   0.20280   0.60615   0.00000  Uiso   1.00
H581   H     0.76973   0.13243   0.88752   0.00000  Uiso   1.00
H582   H     0.98853   0.23399   0.50069   0.00000  Uiso   1.00
H583   H     0.99308   0.06331   0.51147   0.00000  Uiso   1.00
H584   H     0.81630   0.20282   0.59594   0.00000  Uiso   1.00
H585   H     0.82687   0.08573   0.91878   0.00000  Uiso   1.00
H586   H     0.73274   0.00341   0.74402   0.00000  Uiso   1.00
I587   I     0.73179   0.07117   0.60665   0.00000  Uiso   1.00
I588   I     0.92105   0.23897   0.90499   0.00000  Uiso   1.00
N589   N     0.81362   0.15216   0.73740   0.00000  Uiso   1.00
N590   N     0.85305   0.18117   0.76261   0.00000  Uiso   1.00
O591   O     0.96386   0.24631   0.75310   0.00000  Uiso   1.00
O592   O     0.70281   0.08702   0.74691   0.00000  Uiso   1.00
O593   O     0.72488   0.23702   0.74502   0.00000  Uiso   1.00
O594   O     0.94178   0.09632   0.75499   0.00000  Uiso   1.00
O595   O     0.96995   0.17397   0.82247   0.00000  Uiso   1.00
O596   O     0.69672   0.15937   0.67753   0.00000  Uiso   1.00
O597   O     0.73098   0.16467   0.81439   0.00000  Uiso   1.00
O598   O     0.93569   0.16866   0.68561   0.00000  Uiso   1.00
Zn599  Zn    0.93700   0.17287   0.75540   0.00000  Uiso   1.00
Zn600  Zn    0.72967   0.16046   0.74461   0.00000  Uiso   1.00
C601   C     0.01509   0.59825   0.74872   0.00000  Uiso   1.00
C602   C     0.31228   0.49413   0.65877   0.00000  Uiso   1.00
C603   C     0.03008   0.50855   0.89477   0.00000  Uiso   1.00
C604   C     0.30095   0.48215   0.60637   0.00000  Uiso   1.00
C605   C     0.01354   0.54445   0.97631   0.00000  Uiso   1.00
C606   C     0.30553   0.42611   0.53254   0.00000  Uiso   1.00
C607   C     0.32929   0.53636   0.92690   0.00000  Uiso   1.00
C608   C     0.32799   0.44332   0.57929   0.00000  Uiso   1.00
C609   C     0.07811   0.48635   0.91327   0.00000  Uiso   1.00
C610   C     0.25367   0.50358   0.58592   0.00000  Uiso   1.00
C611   C     0.09649   0.49450   0.96249   0.00000  Uiso   1.00
C612   C     0.31823   0.40174   0.75117   0.00000  Uiso   1.00
C613   C     0.22616   0.48137   0.54262   0.00000  Uiso   1.00
C614   C     0.06454   0.52574   0.99377   0.00000  Uiso   1.00
C615   C     0.25413   0.44377   0.51459   0.00000  Uiso   1.00
C616   C     0.14816   0.47575   0.98028   0.00000  Uiso   1.00
C617   C     0.17117   0.49483   0.52723   0.00000  Uiso   1.00
C618   C     0.13743   0.52481   0.55813   0.00000  Uiso   1.00
C619   C     0.17748   0.43858   0.95280   0.00000  Uiso   1.00
C620   C     0.08461   0.53923   0.54175   0.00000  Uiso   1.00
C621   C     0.22945   0.42280   0.96992   0.00000  Uiso   1.00
C622   C     0.02291   0.65284   0.74787   0.00000  Uiso   1.00
C623   C     0.31038   0.34714   0.75183   0.00000  Uiso   1.00
C624   C     0.02082   0.50472   0.84142   0.00000  Uiso   1.00
H625   H     0.06005   0.56223   0.56643   0.00000  Uiso   1.00
H626   H     0.26721   0.66323   0.75565   0.00000  Uiso   1.00
H627   H     0.16242   0.45795   0.71364   0.00000  Uiso   1.00
H628   H     0.17091   0.54206   0.78634   0.00000  Uiso   1.00
H629   H     0.25010   0.39360   0.94828   0.00000  Uiso   1.00
H630   H     0.23736   0.53614   0.60615   0.00000  Uiso   1.00
H631   H     0.10307   0.46577   0.88752   0.00000  Uiso   1.00
H632   H     0.32186   0.56732   0.50069   0.00000  Uiso   1.00
H633   H     0.32641   0.39664   0.51147   0.00000  Uiso   1.00
H634   H     0.14963   0.53616   0.59594   0.00000  Uiso   1.00
H635   H     0.16021   0.41906   0.91878   0.00000  Uiso   1.00
H636   H     0.06607   0.33675   0.74402   0.00000  Uiso   1.00
I637   I     0.06513   0.40450   0.60665   0.00000  Uiso   1.00
I638   I     0.25438   0.57230   0.90499   0.00000  Uiso   1.00
N639   N     0.14695   0.48550   0.73740   0.00000  Uiso   1.00
N640   N     0.18638   0.51450   0.76261   0.00000  Uiso   1.00
O641   O     0.29719   0.57964   0.75310   0.00000  Uiso   1.00
O642   O     0.03614   0.42036   0.74691   0.00000  Uiso   1.00
O643   O     0.05822   0.57035   0.74502   0.00000  Uiso   1.00
O644   O     0.27512   0.42965   0.75499   0.00000  Uiso   1.00
O645   O     0.30328   0.50730   0.82247   0.00000  Uiso   1.00
O646   O     0.03005   0.49270   0.67753   0.00000  Uiso   1.00
O647   O     0.06431   0.49801   0.81439   0.00000  Uiso   1.00
O648   O     0.26902   0.50199   0.68561   0.00000  Uiso   1.00
Zn649  Zn    0.27033   0.50621   0.75540   0.00000  Uiso   1.00
Zn650  Zn    0.06300   0.49379   0.74461   0.00000  Uiso   1.00
C651   C     0.34842   0.59825   0.74872   0.00000  Uiso   1.00
C652   C     0.64561   0.49413   0.65877   0.00000  Uiso   1.00
C653   C     0.36341   0.50855   0.89477   0.00000  Uiso   1.00
C654   C     0.63429   0.48215   0.60637   0.00000  Uiso   1.00
C655   C     0.34687   0.54445   0.97631   0.00000  Uiso   1.00
C656   C     0.63886   0.42611   0.53254   0.00000  Uiso   1.00
C657   C     0.66263   0.53636   0.92690   0.00000  Uiso   1.00
C658   C     0.66132   0.44332   0.57929   0.00000  Uiso   1.00
C659   C     0.41144   0.48635   0.91327   0.00000  Uiso   1.00
C660   C     0.58700   0.50358   0.58592   0.00000  Uiso   1.00
C661   C     0.42982   0.49450   0.96249   0.00000  Uiso   1.00
C662   C     0.65156   0.40174   0.75117   0.00000  Uiso   1.00
C663   C     0.55950   0.48137   0.54262   0.00000  Uiso   1.00
C664   C     0.39787   0.52574   0.99377   0.00000  Uiso   1.00
C665   C     0.58746   0.44377   0.51459   0.00000  Uiso   1.00
C666   C     0.48150   0.47575   0.98028   0.00000  Uiso   1.00
C667   C     0.50451   0.49483   0.52723   0.00000  Uiso   1.00
C668   C     0.47076   0.52481   0.55813   0.00000  Uiso   1.00
C669   C     0.51081   0.43858   0.95280   0.00000  Uiso   1.00
C670   C     0.41794   0.53923   0.54175   0.00000  Uiso   1.00
C671   C     0.56278   0.42280   0.96992   0.00000  Uiso   1.00
C672   C     0.35624   0.65284   0.74787   0.00000  Uiso   1.00
C673   C     0.64371   0.34714   0.75183   0.00000  Uiso   1.00
C674   C     0.35415   0.50472   0.84142   0.00000  Uiso   1.00
H675   H     0.39338   0.56223   0.56643   0.00000  Uiso   1.00
H676   H     0.60054   0.66323   0.75565   0.00000  Uiso   1.00
H677   H     0.49575   0.45795   0.71364   0.00000  Uiso   1.00
H678   H     0.50425   0.54206   0.78634   0.00000  Uiso   1.00
H679   H     0.58343   0.39360   0.94828   0.00000  Uiso   1.00
H680   H     0.57069   0.53614   0.60615   0.00000  Uiso   1.00
H681   H     0.43640   0.46577   0.88752   0.00000  Uiso   1.00
H682   H     0.65519   0.56732   0.50069   0.00000  Uiso   1.00
H683   H     0.65975   0.39664   0.51147   0.00000  Uiso   1.00
H684   H     0.48297   0.53616   0.59594   0.00000  Uiso   1.00
H685   H     0.49354   0.41906   0.91878   0.00000  Uiso   1.00
H686   H     0.39941   0.33675   0.74402   0.00000  Uiso   1.00
I687   I     0.39846   0.40450   0.60665   0.00000  Uiso   1.00
I688   I     0.58771   0.57230   0.90499   0.00000  Uiso   1.00
N689   N     0.48029   0.48550   0.73740   0.00000  Uiso   1.00
N690   N     0.51971   0.51450   0.76261   0.00000  Uiso   1.00
O691   O     0.63052   0.57964   0.75310   0.00000  Uiso   1.00
O692   O     0.36948   0.42036   0.74691   0.00000  Uiso   1.00
O693   O     0.39155   0.57035   0.74502   0.00000  Uiso   1.00
O694   O     0.60845   0.42965   0.75499   0.00000  Uiso   1.00
O695   O     0.63662   0.50730   0.82247   0.00000  Uiso   1.00
O696   O     0.36338   0.49270   0.67753   0.00000  Uiso   1.00
O697   O     0.39764   0.49801   0.81439   0.00000  Uiso   1.00
O698   O     0.60236   0.50199   0.68561   0.00000  Uiso   1.00
Zn699  Zn    0.60366   0.50621   0.75540   0.00000  Uiso   1.00
Zn700  Zn    0.39634   0.49379   0.74461   0.00000  Uiso   1.00
C701   C     0.68176   0.59825   0.74872   0.00000  Uiso   1.00
C702   C     0.97894   0.49413   0.65877   0.00000  Uiso   1.00
C703   C     0.69675   0.50855   0.89477   0.00000  Uiso   1.00
C704   C     0.96762   0.48215   0.60637   0.00000  Uiso   1.00
C705   C     0.68020   0.54445   0.97631   0.00000  Uiso   1.00
C706   C     0.97220   0.42611   0.53254   0.00000  Uiso   1.00
C707   C     0.99596   0.53636   0.92690   0.00000  Uiso   1.00
C708   C     0.99465   0.44332   0.57929   0.00000  Uiso   1.00
C709   C     0.74478   0.48635   0.91327   0.00000  Uiso   1.00
C710   C     0.92033   0.50358   0.58592   0.00000  Uiso   1.00
C711   C     0.76315   0.49450   0.96249   0.00000  Uiso   1.00
C712   C     0.98489   0.40174   0.75117   0.00000  Uiso   1.00
C713   C     0.89283   0.48137   0.54262   0.00000  Uiso   1.00
C714   C     0.73120   0.52574   0.99377   0.00000  Uiso   1.00
C715   C     0.92079   0.44377   0.51459   0.00000  Uiso   1.00
C716   C     0.81483   0.47575   0.98028   0.00000  Uiso   1.00
C717   C     0.83784   0.49483   0.52723   0.00000  Uiso   1.00
C718   C     0.80409   0.52481   0.55813   0.00000  Uiso   1.00
C719   C     0.84415   0.43858   0.95280   0.00000  Uiso   1.00
C720   C     0.75128   0.53923   0.54175   0.00000  Uiso   1.00
C721   C     0.89611   0.42280   0.96992   0.00000  Uiso   1.00
C722   C     0.68958   0.65284   0.74787   0.00000  Uiso   1.00
C723   C     0.97704   0.34714   0.75183   0.00000  Uiso   1.00
C724   C     0.68749   0.50472   0.84142   0.00000  Uiso   1.00
H725   H     0.72672   0.56223   0.56643   0.00000  Uiso   1.00
H726   H     0.93388   0.66323   0.75565   0.00000  Uiso   1.00
H727   H     0.82908   0.45795   0.71364   0.00000  Uiso   1.00
H728   H     0.83758   0.54206   0.78634   0.00000  Uiso   1.00
H729   H     0.91676   0.39360   0.94828   0.00000  Uiso   1.00
H730   H     0.90402   0.53614   0.60615   0.00000  Uiso   1.00
H731   H     0.76973   0.46577   0.88752   0.00000  Uiso   1.00
H732   H     0.98853   0.56732   0.50069   0.00000  Uiso   1.00
H733   H     0.99308   0.39664   0.51147   0.00000  Uiso   1.00
H734   H     0.81630   0.53616   0.59594   0.00000  Uiso   1.00
H735   H     0.82687   0.41906   0.91878   0.00000  Uiso   1.00
H736   H     0.73274   0.33675   0.74402   0.00000  Uiso   1.00
I737   I     0.73179   0.40450   0.60665   0.00000  Uiso   1.00
I738   I     0.92105   0.57230   0.90499   0.00000  Uiso   1.00
N739   N     0.81362   0.48550   0.73740   0.00000  Uiso   1.00
N740   N     0.85305   0.51450   0.76261   0.00000  Uiso   1.00
O741   O     0.96386   0.57964   0.75310   0.00000  Uiso   1.00
O742   O     0.70281   0.42036   0.74691   0.00000  Uiso   1.00
O743   O     0.72488   0.57035   0.74502   0.00000  Uiso   1.00
O744   O     0.94178   0.42965   0.75499   0.00000  Uiso   1.00
O745   O     0.96995   0.50730   0.82247   0.00000  Uiso   1.00
O746   O     0.69672   0.49270   0.67753   0.00000  Uiso   1.00
O747   O     0.73098   0.49801   0.81439   0.00000  Uiso   1.00
O748   O     0.93569   0.50199   0.68561   0.00000  Uiso   1.00
Zn749  Zn    0.93700   0.50621   0.75540   0.00000  Uiso   1.00
Zn750  Zn    0.72967   0.49379   0.74461   0.00000  Uiso   1.00
C751   C     0.01509   0.93159   0.74872   0.00000  Uiso   1.00
C752   C     0.31228   0.82747   0.65877   0.00000  Uiso   1.00
C753   C     0.03008   0.84189   0.89477   0.00000  Uiso   1.00
C754   C     0.30095   0.81548   0.60637   0.00000  Uiso   1.00
C755   C     0.01354   0.87778   0.97631   0.00000  Uiso   1.00
C756   C     0.30553   0.75944   0.53254   0.00000  Uiso   1.00
C757   C     0.32929   0.86970   0.92690   0.00000  Uiso   1.00
C758   C     0.32799   0.77665   0.57929   0.00000  Uiso   1.00
C759   C     0.07811   0.81969   0.91327   0.00000  Uiso   1.00
C760   C     0.25367   0.83691   0.58592   0.00000  Uiso   1.00
C761   C     0.09649   0.82784   0.96249   0.00000  Uiso   1.00
C762   C     0.31823   0.73507   0.75117   0.00000  Uiso   1.00
C763   C     0.22616   0.81470   0.54262   0.00000  Uiso   1.00
C764   C     0.06454   0.85907   0.99377   0.00000  Uiso   1.00
C765   C     0.25413   0.77710   0.51459   0.00000  Uiso   1.00
C766   C     0.14816   0.80908   0.98028   0.00000  Uiso   1.00
C767   C     0.17117   0.82816   0.52723   0.00000  Uiso   1.00
C768   C     0.13743   0.85814   0.55813   0.00000  Uiso   1.00
C769   C     0.17748   0.77191   0.95280   0.00000  Uiso   1.00
C770   C     0.08461   0.87256   0.54175   0.00000  Uiso   1.00
C771   C     0.22945   0.75613   0.96992   0.00000  Uiso   1.00
C772   C     0.02291   0.98617   0.74787   0.00000  Uiso   1.00
C773   C     0.31038   0.68048   0.75183   0.00000  Uiso   1.00
C774   C     0.02082   0.83805   0.84142   0.00000  Uiso   1.00
H775   H     0.06005   0.89556   0.56643   0.00000  Uiso   1.00
H776   H     0.26721   0.99657   0.75565   0.00000  Uiso   1.00
H777   H     0.16242   0.79128   0.71364   0.00000  Uiso   1.00
H778   H     0.17091   0.87539   0.78634   0.00000  Uiso   1.00
H779   H     0.25010   0.72693   0.94828   0.00000  Uiso   1.00
H780   H     0.23736   0.86947   0.60615   0.00000  Uiso   1.00
H781   H     0.10307   0.79910   0.88752   0.00000  Uiso   1.00
H782   H     0.32186   0.90065   0.50069   0.00000  Uiso   1.00
H783   H     0.32641   0.72998   0.51147   0.00000  Uiso   1.00
H784   H     0.14963   0.86949   0.59594   0.00000  Uiso   1.00
H785   H     0.16021   0.75239   0.91878   0.00000  Uiso   1.00
H786   H     0.06607   0.67008   0.74402   0.00000  Uiso   1.00
I787   I     0.06513   0.73784   0.60665   0.00000  Uiso   1.00
I788   I     0.25438   0.90563   0.90499   0.00000  Uiso   1.00
N789   N     0.14695   0.81883   0.73740   0.00000  Uiso   1.00
N790   N     0.18638   0.84784   0.76261   0.00000  Uiso   1.00
O791   O     0.29719   0.91298   0.75310   0.00000  Uiso   1.00
O792   O     0.03614   0.75369   0.74691   0.00000  Uiso   1.00
O793   O     0.05822   0.90368   0.74502   0.00000  Uiso   1.00
O794   O     0.27512   0.76298   0.75499   0.00000  Uiso   1.00
O795   O     0.30328   0.84063   0.82247   0.00000  Uiso   1.00
O796   O     0.03005   0.82603   0.67753   0.00000  Uiso   1.00
O797   O     0.06431   0.83134   0.81439   0.00000  Uiso   1.00
O798   O     0.26902   0.83533   0.68561   0.00000  Uiso   1.00
Zn799  Zn    0.27033   0.83954   0.75540   0.00000  Uiso   1.00
Zn800  Zn    0.06300   0.82713   0.74461   0.00000  Uiso   1.00
C801   C     0.34842   0.93159   0.74872   0.00000  Uiso   1.00
C802   C     0.64561   0.82747   0.65877   0.00000  Uiso   1.00
C803   C     0.36341   0.84189   0.89477   0.00000  Uiso   1.00
C804   C     0.63429   0.81548   0.60637   0.00000  Uiso   1.00
C805   C     0.34687   0.87778   0.97631   0.00000  Uiso   1.00
C806   C     0.63886   0.75944   0.53254   0.00000  Uiso   1.00
C807   C     0.66263   0.86970   0.92690   0.00000  Uiso   1.00
C808   C     0.66132   0.77665   0.57929   0.00000  Uiso   1.00
C809   C     0.41144   0.81969   0.91327   0.00000  Uiso   1.00
C810   C     0.58700   0.83691   0.58592   0.00000  Uiso   1.00
C811   C     0.42982   0.82784   0.96249   0.00000  Uiso   1.00
C812   C     0.65156   0.73507   0.75117   0.00000  Uiso   1.00
C813   C     0.55950   0.81470   0.54262   0.00000  Uiso   1.00
C814   C     0.39787   0.85907   0.99377   0.00000  Uiso   1.00
C815   C     0.58746   0.77710   0.51459   0.00000  Uiso   1.00
C816   C     0.48150   0.80908   0.98028   0.00000  Uiso   1.00
C817   C     0.50451   0.82816   0.52723   0.00000  Uiso   1.00
C818   C     0.47076   0.85814   0.55813   0.00000  Uiso   1.00
C819   C     0.51081   0.77191   0.95280   0.00000  Uiso   1.00
C820   C     0.41794   0.87256   0.54175   0.00000  Uiso   1.00
C821   C     0.56278   0.75613   0.96992   0.00000  Uiso   1.00
C822   C     0.35624   0.98617   0.74787   0.00000  Uiso   1.00
C823   C     0.64371   0.68048   0.75183   0.00000  Uiso   1.00
C824   C     0.35415   0.83805   0.84142   0.00000  Uiso   1.00
H825   H     0.39338   0.89556   0.56643   0.00000  Uiso   1.00
H826   H     0.60054   0.99657   0.75565   0.00000  Uiso   1.00
H827   H     0.49575   0.79128   0.71364   0.00000  Uiso   1.00
H828   H     0.50425   0.87539   0.78634   0.00000  Uiso   1.00
H829   H     0.58343   0.72693   0.94828   0.00000  Uiso   1.00
H830   H     0.57069   0.86947   0.60615   0.00000  Uiso   1.00
H831   H     0.43640   0.79910   0.88752   0.00000  Uiso   1.00
H832   H     0.65519   0.90065   0.50069   0.00000  Uiso   1.00
H833   H     0.65975   0.72998   0.51147   0.00000  Uiso   1.00
H834   H     0.48297   0.86949   0.59594   0.00000  Uiso   1.00
H835   H     0.49354   0.75239   0.91878   0.00000  Uiso   1.00
H836   H     0.39941   0.67008   0.74402   0.00000  Uiso   1.00
I837   I     0.39846   0.73784   0.60665   0.00000  Uiso   1.00
I838   I     0.58771   0.90563   0.90499   0.00000  Uiso   1.00
N839   N     0.48029   0.81883   0.73740   0.00000  Uiso   1.00
N840   N     0.51971   0.84784   0.76261   0.00000  Uiso   1.00
O841   O     0.63052   0.91298   0.75310   0.00000  Uiso   1.00
O842   O     0.36948   0.75369   0.74691   0.00000  Uiso   1.00
O843   O     0.39155   0.90368   0.74502   0.00000  Uiso   1.00
O844   O     0.60845   0.76298   0.75499   0.00000  Uiso   1.00
O845   O     0.63662   0.84063   0.82247   0.00000  Uiso   1.00
O846   O     0.36338   0.82603   0.67753   0.00000  Uiso   1.00
O847   O     0.39764   0.83134   0.81439   0.00000  Uiso   1.00
O848   O     0.60236   0.83533   0.68561   0.00000  Uiso   1.00
Zn849  Zn    0.60366   0.83954   0.75540   0.00000  Uiso   1.00
Zn850  Zn    0.39634   0.82713   0.74461   0.00000  Uiso   1.00
C851   C     0.68176   0.93159   0.74872   0.00000  Uiso   1.00
C852   C     0.97894   0.82747   0.65877   0.00000  Uiso   1.00
C853   C     0.69675   0.84189   0.89477   0.00000  Uiso   1.00
C854   C     0.96762   0.81548   0.60637   0.00000  Uiso   1.00
C855   C     0.68020   0.87778   0.97631   0.00000  Uiso   1.00
C856   C     0.97220   0.75944   0.53254   0.00000  Uiso   1.00
C857   C     0.99596   0.86970   0.92690   0.00000  Uiso   1.00
C858   C     0.99465   0.77665   0.57929   0.00000  Uiso   1.00
C859   C     0.74478   0.81969   0.91327   0.00000  Uiso   1.00
C860   C     0.92033   0.83691   0.58592   0.00000  Uiso   1.00
C861   C     0.76315   0.82784   0.96249   0.00000  Uiso   1.00
C862   C     0.98489   0.73507   0.75117   0.00000  Uiso   1.00
C863   C     0.89283   0.81470   0.54262   0.00000  Uiso   1.00
C864   C     0.73120   0.85907   0.99377   0.00000  Uiso   1.00
C865   C     0.92079   0.77710   0.51459   0.00000  Uiso   1.00
C866   C     0.81483   0.80908   0.98028   0.00000  Uiso   1.00
C867   C     0.83784   0.82816   0.52723   0.00000  Uiso   1.00
C868   C     0.80409   0.85814   0.55813   0.00000  Uiso   1.00
C869   C     0.84415   0.77191   0.95280   0.00000  Uiso   1.00
C870   C     0.75128   0.87256   0.54175   0.00000  Uiso   1.00
C871   C     0.89611   0.75613   0.96992   0.00000  Uiso   1.00
C872   C     0.68958   0.98617   0.74787   0.00000  Uiso   1.00
C873   C     0.97704   0.68048   0.75183   0.00000  Uiso   1.00
C874   C     0.68749   0.83805   0.84142   0.00000  Uiso   1.00
H875   H     0.72672   0.89556   0.56643   0.00000  Uiso   1.00
H876   H     0.93388   0.99657   0.75565   0.00000  Uiso   1.00
H877   H     0.82908   0.79128   0.71364   0.00000  Uiso   1.00
H878   H     0.83758   0.87539   0.78634   0.00000  Uiso   1.00
H879   H     0.91676   0.72693   0.94828   0.00000  Uiso   1.00
H880   H     0.90402   0.86947   0.60615   0.00000  Uiso   1.00
H881   H     0.76973   0.79910   0.88752   0.00000  Uiso   1.00
H882   H     0.98853   0.90065   0.50069   0.00000  Uiso   1.00
H883   H     0.99308   0.72998   0.51147   0.00000  Uiso   1.00
H884   H     0.81630   0.86949   0.59594   0.00000  Uiso   1.00
H885   H     0.82687   0.75239   0.91878   0.00000  Uiso   1.00
H886   H     0.73274   0.67008   0.74402   0.00000  Uiso   1.00
I887   I     0.73179   0.73784   0.60665   0.00000  Uiso   1.00
I888   I     0.92105   0.90563   0.90499   0.00000  Uiso   1.00
N889   N     0.81362   0.81883   0.73740   0.00000  Uiso   1.00
N890   N     0.85305   0.84784   0.76261   0.00000  Uiso   1.00
O891   O     0.96386   0.91298   0.75310   0.00000  Uiso   1.00
O892   O     0.70281   0.75369   0.74691   0.00000  Uiso   1.00
O893   O     0.72488   0.90368   0.74502   0.00000  Uiso   1.00
O894   O     0.94178   0.76298   0.75499   0.00000  Uiso   1.00
O895   O     0.96995   0.84063   0.82247   0.00000  Uiso   1.00
O896   O     0.69672   0.82603   0.67753   0.00000  Uiso   1.00
O897   O     0.73098   0.83134   0.81439   0.00000  Uiso   1.00
O898   O     0.93569   0.83533   0.68561   0.00000  Uiso   1.00
Zn899  Zn    0.93700   0.83954   0.75540   0.00000  Uiso   1.00
Zn900  Zn    0.72967   0.82713   0.74461   0.00000  Uiso   1.00
loop_
_geom_bond_atom_site_label_1
_geom_bond_atom_site_label_2
_geom_bond_distance
_geom_bond_site_symmetry_2
_ccdc_geom_bond_type
C1     C22     1.402   .     S
C1     O43     1.289   .     A
C1     O141    1.275   1_455 S
C2     C4      1.456   .     S
C2     O48     1.301   .     A
C2     O96     1.289   .     S
C3     C9      1.391   .     A
C3     C24     1.461   .     S
C3     C107    1.414   1_455 S
C4     C8      1.413   .     A
C4     C10     1.387   .     A
C5     C14     1.400   .     A
C5     C107    1.394   1_455 S
C5     H582    1.084   1_455 S
C6     H33     1.084   .     S
C6     C8      1.395   .     A
C6     C15     1.401   .     A
C7     I38     2.128   .     S
C7     C53     1.414   .     S
C7     C55     1.394   .     S
C8     I87     2.127   .     S
C9     C11     1.394   .     A
C9     H31     1.076   .     S
C10    H30     1.079   .     S
C10    C13     1.393   .     A
C11    C16     1.417   .     A
C11    C14     1.416   .     A
C12    O44     1.289   .     A
C12    C23     1.402   .     S
C12    O92     1.275   .     S
C13    C17     1.415   .     A
C13    C15     1.416   .     A
C14    C470    1.389   .     S
C15    C471    1.389   1_554 S
C16    C19     1.418   .     A
C16    C467    1.415   .     S
C17    C18     1.418   .     A
C17    C466    1.415   1_554 S
C18    C20     1.385   .     A
C18    H34     1.078   .     S
C19    H35     1.078   .     S
C19    C21     1.386   .     A
C20    H25     1.084   .     S
C20    C464    1.389   1_554 S
C21    H29     1.084   .     S
C21    C465    1.389   .     S
C22    C273    1.340   1_455 S
C22    H186    1.088   .     S
C23    C372    1.340   1_545 S
C23    H326    1.088   1_545 S
C24    O47     1.303   .     A
C24    O145    1.290   1_455 S
H26    C173    1.088   .     S
H27    N39     1.029   .     S
H28    N40     1.029   .     S
H32    C505    1.084   1_554 S
H36    C322    1.088   1_545 S
I37    C108    2.127   1_455 S
N39    Zn50    2.017   .     S
N39    N40     1.291   .     D
N40    Zn49    2.017   .     S
O41    Zn49    1.949   .     S
O41    C51     1.275   .     S
O42    Zn50    1.949   .     S
O42    C112    1.275   1_455 S
O43    Zn50    1.978   .     S
O44    Zn49    1.978   .     S
O45    Zn49    1.956   .     S
O45    C74     1.290   .     S
O46    Zn50    1.956   .     S
O46    C102    1.289   1_455 S
O47    Zn50    1.903   .     S
O48    Zn49    1.903   .     S
C51    C72     1.402   .     S
C51    O93     1.289   .     A
C52    C54     1.456   .     S
C52    O98     1.301   .     A
C52    O146    1.289   .     S
C53    C59     1.391   .     A
C53    C74     1.461   .     S
C54    C58     1.413   .     A
C54    C60     1.387   .     A
C55    C64     1.400   .     A
C55    H482    1.084   .     S
C56    H83     1.084   .     S
C56    C58     1.395   .     A
C56    C65     1.401   .     A
C57    I88     2.128   .     S
C57    C103    1.414   .     S
C57    C105    1.394   .     S
C58    I137    2.127   .     S
C59    C61     1.394   .     A
C59    H81     1.076   .     S
C60    H80     1.079   .     S
C60    C63     1.393   .     A
C61    C66     1.417   .     A
C61    C64     1.416   .     A
C62    O94     1.289   .     A
C62    C73     1.402   .     S
C62    O142    1.275   .     S
C63    C67     1.415   .     A
C63    C65     1.416   .     A
C64    C520    1.389   .     S
C65    C521    1.389   1_554 S
C66    C69     1.418   .     A
C66    C517    1.415   .     S
C67    C68     1.418   .     A
C67    C516    1.415   1_554 S
C68    C70     1.385   .     A
C68    H84     1.078   .     S
C69    H85     1.078   .     S
C69    C71     1.386   .     A
C70    H75     1.084   .     S
C70    C514    1.389   1_554 S
C71    H79     1.084   .     S
C71    C515    1.389   .     S
C72    C173    1.340   .     S
C72    H236    1.088   .     S
C73    C422    1.340   1_545 S
C73    H376    1.088   1_545 S
C74    O97     1.303   .     A
H76    C223    1.088   .     S
H77    N89     1.029   .     S
H78    N90     1.029   .     S
H82    C555    1.084   1_554 S
H86    C372    1.088   1_545 S
N89    Zn100   2.017   .     S
N89    N90     1.291   .     D
N90    Zn99    2.017   .     S
O91    Zn99    1.949   .     S
O91    C101    1.275   .     S
O92    Zn100   1.949   .     S
O93    Zn100   1.978   .     S
O94    Zn99    1.978   .     S
O95    Zn99    1.956   .     S
O95    C124    1.290   .     S
O96    Zn100   1.956   .     S
O97    Zn100   1.903   .     S
O98    Zn99    1.903   .     S
C101   C122    1.402   .     S
C101   O143    1.289   .     A
C102   C104    1.456   .     S
C102   O148    1.301   .     A
C102   O46     1.289   1_655 S
C103   C109    1.391   .     A
C103   C124    1.461   .     S
C104   C108    1.413   .     A
C104   C110    1.387   .     A
C105   C114    1.400   .     A
C105   H532    1.084   .     S
C106   H133    1.084   .     S
C106   C108    1.395   .     A
C106   C115    1.401   .     A
C107   I138    2.128   .     S
C107   C3      1.414   1_655 S
C107   C5      1.394   1_655 S
C108   I37     2.127   1_655 S
C109   C111    1.394   .     A
C109   H131    1.076   .     S
C110   H130    1.079   .     S
C110   C113    1.393   .     A
C111   C116    1.417   .     A
C111   C114    1.416   .     A
C112   O144    1.289   .     A
C112   C123    1.402   .     S
C112   O42     1.275   1_655 S
C113   C117    1.415   .     A
C113   C115    1.416   .     A
C114   C570    1.389   .     S
C115   C571    1.389   1_554 S
C116   C119    1.418   .     A
C116   C567    1.415   .     S
C117   C118    1.418   .     A
C117   C566    1.415   1_554 S
C118   C120    1.385   .     A
C118   H134    1.078   .     S
C119   H135    1.078   .     S
C119   C121    1.386   .     A
C120   H125    1.084   .     S
C120   C564    1.389   1_554 S
C121   H129    1.084   .     S
C121   C565    1.389   .     S
C122   C223    1.340   .     S
C122   H286    1.088   .     S
C123   C322    1.340   1_645 S
C123   H426    1.088   1_545 S
C124   O147    1.303   .     A
H126   C273    1.088   .     S
H127   N139    1.029   .     S
H128   N140    1.029   .     S
H132   C455    1.084   1_654 S
H136   C422    1.088   1_545 S
N139   Zn150   2.017   .     S
N139   N140    1.291   .     D
N140   Zn149   2.017   .     S
O141   Zn149   1.949   .     S
O141   C1      1.275   1_655 S
O142   Zn150   1.949   .     S
O143   Zn150   1.978   .     S
O144   Zn149   1.978   .     S
O145   Zn149   1.956   .     S
O145   C24     1.290   1_655 S
O146   Zn150   1.956   .     S
O147   Zn150   1.903   .     S
O148   Zn149   1.903   .     S
C151   C172    1.402   .     S
C151   O193    1.289   .     A
C151   O291    1.275   1_455 S
C152   C154    1.456   .     S
C152   O198    1.301   .     A
C152   O246    1.289   .     S
C153   C159    1.391   .     A
C153   C174    1.461   .     S
C153   C257    1.414   1_455 S
C154   C158    1.413   .     A
C154   C160    1.387   .     A
C155   C164    1.400   .     A
C155   C257    1.394   1_455 S
C155   H732    1.084   1_455 S
C156   H183    1.084   .     S
C156   C158    1.395   .     A
C156   C165    1.401   .     A
C157   I188    2.128   .     S
C157   C203    1.414   .     S
C157   C205    1.394   .     S
C158   I237    2.127   .     S
C159   C161    1.394   .     A
C159   H181    1.076   .     S
C160   H180    1.079   .     S
C160   C163    1.393   .     A
C161   C166    1.417   .     A
C161   C164    1.416   .     A
C162   O194    1.289   .     A
C162   C173    1.402   .     S
C162   O242    1.275   .     S
C163   C167    1.415   .     A
C163   C165    1.416   .     A
C164   C620    1.389   .     S
C165   C621    1.389   1_554 S
C166   C169    1.418   .     A
C166   C617    1.415   .     S
C167   C168    1.418   .     A
C167   C616    1.415   1_554 S
C168   C170    1.385   .     A
C168   H184    1.078   .     S
C169   H185    1.078   .     S
C169   C171    1.386   .     A
C170   H175    1.084   .     S
C170   C614    1.389   1_554 S
C171   H179    1.084   .     S
C171   C615    1.389   .     S
C172   C423    1.340   1_455 S
C172   H336    1.088   .     S
C174   O197    1.303   .     A
C174   O295    1.290   1_455 S
H176   C323    1.088   .     S
H177   N189    1.029   .     S
H178   N190    1.029   .     S
H182   C655    1.084   1_554 S
I187   C258    2.127   1_455 S
N189   Zn200   2.017   .     S
N189   N190    1.291   .     D
N190   Zn199   2.017   .     S
O191   Zn199   1.949   .     S
O191   C201    1.275   .     S
O192   Zn200   1.949   .     S
O192   C262    1.275   1_455 S
O193   Zn200   1.978   .     S
O194   Zn199   1.978   .     S
O195   Zn199   1.956   .     S
O195   C224    1.290   .     S
O196   Zn200   1.956   .     S
O196   C252    1.289   1_455 S
O197   Zn200   1.903   .     S
O198   Zn199   1.903   .     S
C201   C222    1.402   .     S
C201   O243    1.289   .     A
C202   C204    1.456   .     S
C202   O248    1.301   .     A
C202   O296    1.289   .     S
C203   C209    1.391   .     A
C203   C224    1.461   .     S
C204   C208    1.413   .     A
C204   C210    1.387   .     A
C205   C214    1.400   .     A
C205   H632    1.084   .     S
C206   H233    1.084   .     S
C206   C208    1.395   .     A
C206   C215    1.401   .     A
C207   I238    2.128   .     S
C207   C253    1.414   .     S
C207   C255    1.394   .     S
C208   I287    2.127   .     S
C209   C211    1.394   .     A
C209   H231    1.076   .     S
C210   H230    1.079   .     S
C210   C213    1.393   .     A
C211   C216    1.417   .     A
C211   C214    1.416   .     A
C212   O244    1.289   .     A
C212   C223    1.402   .     S
C212   O292    1.275   .     S
C213   C217    1.415   .     A
C213   C215    1.416   .     A
C214   C670    1.389   .     S
C215   C671    1.389   1_554 S
C216   C219    1.418   .     A
C216   C667    1.415   .     S
C217   C218    1.418   .     A
C217   C666    1.415   1_554 S
C218   C220    1.385   .     A
C218   H234    1.078   .     S
C219   H235    1.078   .     S
C219   C221    1.386   .     A
C220   H225    1.084   .     S
C220   C664    1.389   1_554 S
C221   H229    1.084   .     S
C221   C665    1.389   .     S
C222   C323    1.340   .     S
C222   H386    1.088   .     S
C224   O247    1.303   .     A
H226   C373    1.088   .     S
H227   N239    1.029   .     S
H228   N240    1.029   .     S
H232   C705    1.084   1_554 S
N239   Zn250   2.017   .     S
N239   N240    1.291   .     D
N240   Zn249   2.017   .     S
O241   Zn249   1.949   .     S
O241   C251    1.275   .     S
O242   Zn250   1.949   .     S
O243   Zn250   1.978   .     S
O244   Zn249   1.978   .     S
O245   Zn249   1.956   .     S
O245   C274    1.290   .     S
O246   Zn250   1.956   .     S
O247   Zn250   1.903   .     S
O248   Zn249   1.903   .     S
C251   C272    1.402   .     S
C251   O293    1.289   .     A
C252   C254    1.456   .     S
C252   O298    1.301   .     A
C252   O196    1.289   1_655 S
C253   C259    1.391   .     A
C253   C274    1.461   .     S
C254   C258    1.413   .     A
C254   C260    1.387   .     A
C255   C264    1.400   .     A
C255   H682    1.084   .     S
C256   H283    1.084   .     S
C256   C258    1.395   .     A
C256   C265    1.401   .     A
C257   I288    2.128   .     S
C257   C153    1.414   1_655 S
C257   C155    1.394   1_655 S
C258   I187    2.127   1_655 S
C259   C261    1.394   .     A
C259   H281    1.076   .     S
C260   H280    1.079   .     S
C260   C263    1.393   .     A
C261   C266    1.417   .     A
C261   C264    1.416   .     A
C262   O294    1.289   .     A
C262   C273    1.402   .     S
C262   O192    1.275   1_655 S
C263   C267    1.415   .     A
C263   C265    1.416   .     A
C264   C720    1.389   .     S
C265   C721    1.389   1_554 S
C266   C269    1.418   .     A
C266   C717    1.415   .     S
C267   C268    1.418   .     A
C267   C716    1.415   1_554 S
C268   C270    1.385   .     A
C268   H284    1.078   .     S
C269   H285    1.078   .     S
C269   C271    1.386   .     A
C270   H275    1.084   .     S
C270   C714    1.389   1_554 S
C271   H279    1.084   .     S
C271   C715    1.389   .     S
C272   C373    1.340   .     S
C272   H436    1.088   .     S
C273   C22     1.340   1_655 S
C274   O297    1.303   .     A
H276   C423    1.088   .     S
H277   N289    1.029   .     S
H278   N290    1.029   .     S
H282   C605    1.084   1_654 S
N289   Zn300   2.017   .     S
N289   N290    1.291   .     D
N290   Zn299   2.017   .     S
O291   Zn299   1.949   .     S
O291   C151    1.275   1_655 S
O292   Zn300   1.949   .     S
O293   Zn300   1.978   .     S
O294   Zn299   1.978   .     S
O295   Zn299   1.956   .     S
O295   C174    1.290   1_655 S
O296   Zn300   1.956   .     S
O297   Zn300   1.903   .     S
O298   Zn299   1.903   .     S
C301   C322    1.402   .     S
C301   O343    1.289   .     A
C301   O441    1.275   1_455 S
C302   C304    1.456   .     S
C302   O348    1.301   .     A
C302   O396    1.289   .     S
C303   C309    1.391   .     A
C303   C324    1.461   .     S
C303   C407    1.414   1_455 S
C304   C308    1.413   .     A
C304   C310    1.387   .     A
C305   C314    1.400   .     A
C305   C407    1.394   1_455 S
C305   H882    1.084   1_455 S
C306   H333    1.084   .     S
C306   C308    1.395   .     A
C306   C315    1.401   .     A
C307   I338    2.128   .     S
C307   C353    1.414   .     S
C307   C355    1.394   .     S
C308   I387    2.127   .     S
C309   C311    1.394   .     A
C309   H331    1.076   .     S
C310   H330    1.079   .     S
C310   C313    1.393   .     A
C311   C316    1.417   .     A
C311   C314    1.416   .     A
C312   O344    1.289   .     A
C312   C323    1.402   .     S
C312   O392    1.275   .     S
C313   C317    1.415   .     A
C313   C315    1.416   .     A
C314   C770    1.389   .     S
C315   C771    1.389   1_554 S
C316   C319    1.418   .     A
C316   C767    1.415   .     S
C317   C318    1.418   .     A
C317   C766    1.415   1_554 S
C318   C320    1.385   .     A
C318   H334    1.078   .     S
C319   H335    1.078   .     S
C319   C321    1.386   .     A
C320   H325    1.084   .     S
C320   C764    1.389   1_554 S
C321   H329    1.084   .     S
C321   C765    1.389   .     S
C322   C123    1.340   1_465 S
C322   H36     1.088   1_565 S
C324   O347    1.303   .     A
C324   O445    1.290   1_455 S
H326   C23     1.088   1_565 S
H327   N339    1.029   .     S
H328   N340    1.029   .     S
H332   C805    1.084   1_554 S
I337   C408    2.127   1_455 S
N339   Zn350   2.017   .     S
N339   N340    1.291   .     D
N340   Zn349   2.017   .     S
O341   Zn349   1.949   .     S
O341   C351    1.275   .     S
O342   Zn350   1.949   .     S
O342   C412    1.275   1_455 S
O343   Zn350   1.978   .     S
O344   Zn349   1.978   .     S
O345   Zn349   1.956   .     S
O345   C374    1.290   .     S
O346   Zn350   1.956   .     S
O346   C402    1.289   1_455 S
O347   Zn350   1.903   .     S
O348   Zn349   1.903   .     S
C351   C372    1.402   .     S
C351   O393    1.289   .     A
C352   C354    1.456   .     S
C352   O398    1.301   .     A
C352   O446    1.289   .     S
C353   C359    1.391   .     A
C353   C374    1.461   .     S
C354   C358    1.413   .     A
C354   C360    1.387   .     A
C355   C364    1.400   .     A
C355   H782    1.084   .     S
C356   H383    1.084   .     S
C356   C358    1.395   .     A
C356   C365    1.401   .     A
C357   I388    2.128   .     S
C357   C403    1.414   .     S
C357   C405    1.394   .     S
C358   I437    2.127   .     S
C359   C361    1.394   .     A
C359   H381    1.076   .     S
C360   H380    1.079   .     S
C360   C363    1.393   .     A
C361   C366    1.417   .     A
C361   C364    1.416   .     A
C362   O394    1.289   .     A
C362   C373    1.402   .     S
C362   O442    1.275   .     S
C363   C367    1.415   .     A
C363   C365    1.416   .     A
C364   C820    1.389   .     S
C365   C821    1.389   1_554 S
C366   C369    1.418   .     A
C366   C817    1.415   .     S
C367   C368    1.418   .     A
C367   C816    1.415   1_554 S
C368   C370    1.385   .     A
C368   H384    1.078   .     S
C369   H385    1.078   .     S
C369   C371    1.386   .     A
C370   H375    1.084   .     S
C370   C814    1.389   1_554 S
C371   H379    1.084   .     S
C371   C815    1.389   .     S
C372   C23     1.340   1_565 S
C372   H86     1.088   1_565 S
C374   O397    1.303   .     A
H376   C73     1.088   1_565 S
H377   N389    1.029   .     S
H378   N390    1.029   .     S
H382   C855    1.084   1_554 S
N389   Zn400   2.017   .     S
N389   N390    1.291   .     D
N390   Zn399   2.017   .     S
O391   Zn399   1.949   .     S
O391   C401    1.275   .     S
O392   Zn400   1.949   .     S
O393   Zn400   1.978   .     S
O394   Zn399   1.978   .     S
O395   Zn399   1.956   .     S
O395   C424    1.290   .     S
O396   Zn400   1.956   .     S
O397   Zn400   1.903   .     S
O398   Zn399   1.903   .     S
C401   C422    1.402   .     S
C401   O443    1.289   .     A
C402   C404    1.456   .     S
C402   O448    1.301   .     A
C402   O346    1.289   1_655 S
C403   C409    1.391   .     A
C403   C424    1.461   .     S
C404   C408    1.413   .     A
C404   C410    1.387   .     A
C405   C414    1.400   .     A
C405   H832    1.084   .     S
C406   H433    1.084   .     S
C406   C408    1.395   .     A
C406   C415    1.401   .     A
C407   I438    2.128   .     S
C407   C303    1.414   1_655 S
C407   C305    1.394   1_655 S
C408   I337    2.127   1_655 S
C409   C411    1.394   .     A
C409   H431    1.076   .     S
C410   H430    1.079   .     S
C410   C413    1.393   .     A
C411   C416    1.417   .     A
C411   C414    1.416   .     A
C412   O444    1.289   .     A
C412   C423    1.402   .     S
C412   O342    1.275   1_655 S
C413   C417    1.415   .     A
C413   C415    1.416   .     A
C414   C870    1.389   .     S
C415   C871    1.389   1_554 S
C416   C419    1.418   .     A
C416   C867    1.415   .     S
C417   C418    1.418   .     A
C417   C866    1.415   1_554 S
C418   C420    1.385   .     A
C418   H434    1.078   .     S
C419   H435    1.078   .     S
C419   C421    1.386   .     A
C420   H425    1.084   .     S
C420   C864    1.389   1_554 S
C421   H429    1.084   .     S
C421   C865    1.389   .     S
C422   C73     1.340   1_565 S
C422   H136    1.088   1_565 S
C423   C172    1.340   1_655 S
C424   O447    1.303   .     A
H426   C123    1.088   1_565 S
H427   N439    1.029   .     S
H428   N440    1.029   .     S
H432   C755    1.084   1_654 S
N439   Zn450   2.017   .     S
N439   N440    1.291   .     D
N440   Zn449   2.017   .     S
O441   Zn449   1.949   .     S
O441   C301    1.275   1_655 S
O442   Zn450   1.949   .     S
O443   Zn450   1.978   .     S
O444   Zn449   1.978   .     S
O445   Zn449   1.956   .     S
O445   C324    1.290   1_655 S
O446   Zn450   1.956   .     S
O447   Zn450   1.903   .     S
O448   Zn449   1.903   .     S
C451   C472    1.402   .     S
C451   O493    1.289   .     A
C451   O591    1.275   1_455 S
C452   C454    1.456   .     S
C452   O498    1.301   .     A
C452   O546    1.289   .     S
C453   C459    1.391   .     A
C453   C474    1.461   .     S
C453   C557    1.414   1_455 S
C454   C458    1.413   .     A
C454   C460    1.387   .     A
C455   C464    1.400   .     A
C455   C557    1.394   1_455 S
C455   H132    1.084   1_456 S
C456   H483    1.084   .     S
C456   C458    1.395   .     A
C456   C465    1.401   .     A
C457   I488    2.128   .     S
C457   C503    1.414   .     S
C457   C505    1.394   .     S
C458   I537    2.127   .     S
C459   C461    1.394   .     A
C459   H481    1.076   .     S
C460   H480    1.079   .     S
C460   C463    1.393   .     A
C461   C466    1.417   .     A
C461   C464    1.416   .     A
C462   O494    1.289   .     A
C462   C473    1.402   .     S
C462   O542    1.275   .     S
C463   C467    1.415   .     A
C463   C465    1.416   .     A
C464   C20     1.389   1_556 S
C466   C469    1.418   .     A
C466   C17     1.415   1_556 S
C467   C468    1.418   .     A
C468   C470    1.385   .     A
C468   H484    1.078   .     S
C469   H485    1.078   .     S
C469   C471    1.386   .     A
C470   H475    1.084   .     S
C471   H479    1.084   .     S
C471   C15     1.389   1_556 S
C472   C723    1.340   1_455 S
C472   H636    1.088   .     S
C473   C822    1.340   1_545 S
C473   H776    1.088   1_545 S
C474   O497    1.303   .     A
C474   O595    1.290   1_455 S
H476   C623    1.088   .     S
H477   N489    1.029   .     S
H478   N490    1.029   .     S
H486   C772    1.088   1_545 S
I487   C558    2.127   1_455 S
N489   Zn500   2.017   .     S
N489   N490    1.291   .     D
N490   Zn499   2.017   .     S
O491   Zn499   1.949   .     S
O491   C501    1.275   .     S
O492   Zn500   1.949   .     S
O492   C562    1.275   1_455 S
O493   Zn500   1.978   .     S
O494   Zn499   1.978   .     S
O495   Zn499   1.956   .     S
O495   C524    1.290   .     S
O496   Zn500   1.956   .     S
O496   C552    1.289   1_455 S
O497   Zn500   1.903   .     S
O498   Zn499   1.903   .     S
C501   C522    1.402   .     S
C501   O543    1.289   .     A
C502   C504    1.456   .     S
C502   O548    1.301   .     A
C502   O596    1.289   .     S
C503   C509    1.391   .     A
C503   C524    1.461   .     S
C504   C508    1.413   .     A
C504   C510    1.387   .     A
C505   C514    1.400   .     A
C505   H32     1.084   1_556 S
C506   H533    1.084   .     S
C506   C508    1.395   .     A
C506   C515    1.401   .     A
C507   I538    2.128   .     S
C507   C553    1.414   .     S
C507   C555    1.394   .     S
C508   I587    2.127   .     S
C509   C511    1.394   .     A
C509   H531    1.076   .     S
C510   H530    1.079   .     S
C510   C513    1.393   .     A
C511   C516    1.417   .     A
C511   C514    1.416   .     A
C512   O544    1.289   .     A
C512   C523    1.402   .     S
C512   O592    1.275   .     S
C513   C517    1.415   .     A
C513   C515    1.416   .     A
C514   C70     1.389   1_556 S
C516   C519    1.418   .     A
C516   C67     1.415   1_556 S
C517   C518    1.418   .     A
C518   C520    1.385   .     A
C518   H534    1.078   .     S
C519   H535    1.078   .     S
C519   C521    1.386   .     A
C520   H525    1.084   .     S
C521   H529    1.084   .     S
C521   C65     1.389   1_556 S
C522   C623    1.340   .     S
C522   H686    1.088   .     S
C523   C872    1.340   1_545 S
C523   H826    1.088   1_545 S
C524   O547    1.303   .     A
H526   C673    1.088   .     S
H527   N539    1.029   .     S
H528   N540    1.029   .     S
H536   C822    1.088   1_545 S
N539   Zn550   2.017   .     S
N539   N540    1.291   .     D
N540   Zn549   2.017   .     S
O541   Zn549   1.949   .     S
O541   C551    1.275   .     S
O542   Zn550   1.949   .     S
O543   Zn550   1.978   .     S
O544   Zn549   1.978   .     S
O545   Zn549   1.956   .     S
O545   C574    1.290   .     S
O546   Zn550   1.956   .     S
O547   Zn550   1.903   .     S
O548   Zn549   1.903   .     S
C551   C572    1.402   .     S
C551   O593    1.289   .     A
C552   C554    1.456   .     S
C552   O598    1.301   .     A
C552   O496    1.289   1_655 S
C553   C559    1.391   .     A
C553   C574    1.461   .     S
C554   C558    1.413   .     A
C554   C560    1.387   .     A
C555   C564    1.400   .     A
C555   H82     1.084   1_556 S
C556   H583    1.084   .     S
C556   C558    1.395   .     A
C556   C565    1.401   .     A
C557   I588    2.128   .     S
C557   C453    1.414   1_655 S
C557   C455    1.394   1_655 S
C558   I487    2.127   1_655 S
C559   C561    1.394   .     A
C559   H581    1.076   .     S
C560   H580    1.079   .     S
C560   C563    1.393   .     A
C561   C566    1.417   .     A
C561   C564    1.416   .     A
C562   O594    1.289   .     A
C562   C573    1.402   .     S
C562   O492    1.275   1_655 S
C563   C567    1.415   .     A
C563   C565    1.416   .     A
C564   C120    1.389   1_556 S
C566   C569    1.418   .     A
C566   C117    1.415   1_556 S
C567   C568    1.418   .     A
C568   C570    1.385   .     A
C568   H584    1.078   .     S
C569   H585    1.078   .     S
C569   C571    1.386   .     A
C570   H575    1.084   .     S
C571   H579    1.084   .     S
C571   C115    1.389   1_556 S
C572   C673    1.340   .     S
C572   H736    1.088   .     S
C573   C772    1.340   1_645 S
C573   H876    1.088   1_545 S
C574   O597    1.303   .     A
H576   C723    1.088   .     S
H577   N589    1.029   .     S
H578   N590    1.029   .     S
H582   C5      1.084   1_655 S
H586   C872    1.088   1_545 S
N589   Zn600   2.017   .     S
N589   N590    1.291   .     D
N590   Zn599   2.017   .     S
O591   Zn599   1.949   .     S
O591   C451    1.275   1_655 S
O592   Zn600   1.949   .     S
O593   Zn600   1.978   .     S
O594   Zn599   1.978   .     S
O595   Zn599   1.956   .     S
O595   C474    1.290   1_655 S
O596   Zn600   1.956   .     S
O597   Zn600   1.903   .     S
O598   Zn599   1.903   .     S
C601   C622    1.402   .     S
C601   O643    1.289   .     A
C601   O741    1.275   1_455 S
C602   C604    1.456   .     S
C602   O648    1.301   .     A
C602   O696    1.289   .     S
C603   C609    1.391   .     A
C603   C624    1.461   .     S
C603   C707    1.414   1_455 S
C604   C608    1.413   .     A
C604   C610    1.387   .     A
C605   C614    1.400   .     A
C605   C707    1.394   1_455 S
C605   H282    1.084   1_456 S
C606   H633    1.084   .     S
C606   C608    1.395   .     A
C606   C615    1.401   .     A
C607   I638    2.128   .     S
C607   C653    1.414   .     S
C607   C655    1.394   .     S
C608   I687    2.127   .     S
C609   C611    1.394   .     A
C609   H631    1.076   .     S
C610   H630    1.079   .     S
C610   C613    1.393   .     A
C611   C616    1.417   .     A
C611   C614    1.416   .     A
C612   O644    1.289   .     A
C612   C623    1.402   .     S
C612   O692    1.275   .     S
C613   C617    1.415   .     A
C613   C615    1.416   .     A
C614   C170    1.389   1_556 S
C616   C619    1.418   .     A
C616   C167    1.415   1_556 S
C617   C618    1.418   .     A
C618   C620    1.385   .     A
C618   H634    1.078   .     S
C619   H635    1.078   .     S
C619   C621    1.386   .     A
C620   H625    1.084   .     S
C621   H629    1.084   .     S
C621   C165    1.389   1_556 S
C622   C873    1.340   1_455 S
C622   H786    1.088   .     S
C624   O647    1.303   .     A
C624   O745    1.290   1_455 S
H626   C773    1.088   .     S
H627   N639    1.029   .     S
H628   N640    1.029   .     S
I637   C708    2.127   1_455 S
N639   Zn650   2.017   .     S
N639   N640    1.291   .     D
N640   Zn649   2.017   .     S
O641   Zn649   1.949   .     S
O641   C651    1.275   .     S
O642   Zn650   1.949   .     S
O642   C712    1.275   1_455 S
O643   Zn650   1.978   .     S
O644   Zn649   1.978   .     S
O645   Zn649   1.956   .     S
O645   C674    1.290   .     S
O646   Zn650   1.956   .     S
O646   C702    1.289   1_455 S
O647   Zn650   1.903   .     S
O648   Zn649   1.903   .     S
C651   C672    1.402   .     S
C651   O693    1.289   .     A
C652   C654    1.456   .     S
C652   O698    1.301   .     A
C652   O746    1.289   .     S
C653   C659    1.391   .     A
C653   C674    1.461   .     S
C654   C658    1.413   .     A
C654   C660    1.387   .     A
C655   C664    1.400   .     A
C655   H182    1.084   1_556 S
C656   H683    1.084   .     S
C656   C658    1.395   .     A
C656   C665    1.401   .     A
C657   I688    2.128   .     S
C657   C703    1.414   .     S
C657   C705    1.394   .     S
C658   I737    2.127   .     S
C659   C661    1.394   .     A
C659   H681    1.076   .     S
C660   H680    1.079   .     S
C660   C663    1.393   .     A
C661   C666    1.417   .     A
C661   C664    1.416   .     A
C662   O694    1.289   .     A
C662   C673    1.402   .     S
C662   O742    1.275   .     S
C663   C667    1.415   .     A
C663   C665    1.416   .     A
C664   C220    1.389   1_556 S
C666   C669    1.418   .     A
C666   C217    1.415   1_556 S
C667   C668    1.418   .     A
C668   C670    1.385   .     A
C668   H684    1.078   .     S
C669   H685    1.078   .     S
C669   C671    1.386   .     A
C670   H675    1.084   .     S
C671   H679    1.084   .     S
C671   C215    1.389   1_556 S
C672   C773    1.340   .     S
C672   H836    1.088   .     S
C674   O697    1.303   .     A
H676   C823    1.088   .     S
H677   N689    1.029   .     S
H678   N690    1.029   .     S
N689   Zn700   2.017   .     S
N689   N690    1.291   .     D
N690   Zn699   2.017   .     S
O691   Zn699   1.949   .     S
O691   C701    1.275   .     S
O692   Zn700   1.949   .     S
O693   Zn700   1.978   .     S
O694   Zn699   1.978   .     S
O695   Zn699   1.956   .     S
O695   C724    1.290   .     S
O696   Zn700   1.956   .     S
O697   Zn700   1.903   .     S
O698   Zn699   1.903   .     S
C701   C722    1.402   .     S
C701   O743    1.289   .     A
C702   C704    1.456   .     S
C702   O748    1.301   .     A
C702   O646    1.289   1_655 S
C703   C709    1.391   .     A
C703   C724    1.461   .     S
C704   C708    1.413   .     A
C704   C710    1.387   .     A
C705   C714    1.400   .     A
C705   H232    1.084   1_556 S
C706   H733    1.084   .     S
C706   C708    1.395   .     A
C706   C715    1.401   .     A
C707   I738    2.128   .     S
C707   C603    1.414   1_655 S
C707   C605    1.394   1_655 S
C708   I637    2.127   1_655 S
C709   C711    1.394   .     A
C709   H731    1.076   .     S
C710   H730    1.079   .     S
C710   C713    1.393   .     A
C711   C716    1.417   .     A
C711   C714    1.416   .     A
C712   O744    1.289   .     A
C712   C723    1.402   .     S
C712   O642    1.275   1_655 S
C713   C717    1.415   .     A
C713   C715    1.416   .     A
C714   C270    1.389   1_556 S
C716   C719    1.418   .     A
C716   C267    1.415   1_556 S
C717   C718    1.418   .     A
C718   C720    1.385   .     A
C718   H734    1.078   .     S
C719   H735    1.078   .     S
C719   C721    1.386   .     A
C720   H725    1.084   .     S
C721   H729    1.084   .     S
C721   C265    1.389   1_556 S
C722   C823    1.340   .     S
C722   H886    1.088   .     S
C723   C472    1.340   1_655 S
C724   O747    1.303   .     A
H726   C873    1.088   .     S
H727   N739    1.029   .     S
H728   N740    1.029   .     S
H732   C155    1.084   1_655 S
N739   Zn750   2.017   .     S
N739   N740    1.291   .     D
N740   Zn749   2.017   .     S
O741   Zn749   1.949   .     S
O741   C601    1.275   1_655 S
O742   Zn750   1.949   .     S
O743   Zn750   1.978   .     S
O744   Zn749   1.978   .     S
O745   Zn749   1.956   .     S
O745   C624    1.290   1_655 S
O746   Zn750   1.956   .     S
O747   Zn750   1.903   .     S
O748   Zn749   1.903   .     S
C751   C772    1.402   .     S
C751   O793    1.289   .     A
C751   O891    1.275   1_455 S
C752   C754    1.456   .     S
C752   O798    1.301   .     A
C752   O846    1.289   .     S
C753   C759    1.391   .     A
C753   C774    1.461   .     S
C753   C857    1.414   1_455 S
C754   C758    1.413   .     A
C754   C760    1.387   .     A
C755   C764    1.400   .     A
C755   C857    1.394   1_455 S
C755   H432    1.084   1_456 S
C756   H783    1.084   .     S
C756   C758    1.395   .     A
C756   C765    1.401   .     A
C757   I788    2.128   .     S
C757   C803    1.414   .     S
C757   C805    1.394   .     S
C758   I837    2.127   .     S
C759   C761    1.394   .     A
C759   H781    1.076   .     S
C760   H780    1.079   .     S
C760   C763    1.393   .     A
C761   C766    1.417   .     A
C761   C764    1.416   .     A
C762   O794    1.289   .     A
C762   C773    1.402   .     S
C762   O842    1.275   .     S
C763   C767    1.415   .     A
C763   C765    1.416   .     A
C764   C320    1.389   1_556 S
C766   C769    1.418   .     A
C766   C317    1.415   1_556 S
C767   C768    1.418   .     A
C768   C770    1.385   .     A
C768   H784    1.078   .     S
C769   H785    1.078   .     S
C769   C771    1.386   .     A
C770   H775    1.084   .     S
C771   H779    1.084   .     S
C771   C315    1.389   1_556 S
C772   C573    1.340   1_465 S
C772   H486    1.088   1_565 S
C774   O797    1.303   .     A
C774   O895    1.290   1_455 S
H776   C473    1.088   1_565 S
H777   N789    1.029   .     S
H778   N790    1.029   .     S
I787   C858    2.127   1_455 S
N789   Zn800   2.017   .     S
N789   N790    1.291   .     D
N790   Zn799   2.017   .     S
O791   Zn799   1.949   .     S
O791   C801    1.275   .     S
O792   Zn800   1.949   .     S
O792   C862    1.275   1_455 S
O793   Zn800   1.978   .     S
O794   Zn799   1.978   .     S
O795   Zn799   1.956   .     S
O795   C824    1.290   .     S
O796   Zn800   1.956   .     S
O796   C852    1.289   1_455 S
O797   Zn800   1.903   .     S
O798   Zn799   1.903   .     S
C801   C822    1.402   .     S
C801   O843    1.289   .     A
C802   C804    1.456   .     S
C802   O848    1.301   .     A
C802   O896    1.289   .     S
C803   C809    1.391   .     A
C803   C824    1.461   .     S
C804   C808    1.413   .     A
C804   C810    1.387   .     A
C805   C814    1.400   .     A
C805   H332    1.084   1_556 S
C806   H833    1.084   .     S
C806   C808    1.395   .     A
C806   C815    1.401   .     A
C807   I838    2.128   .     S
C807   C853    1.414   .     S
C807   C855    1.394   .     S
C808   I887    2.127   .     S
C809   C811    1.394   .     A
C809   H831    1.076   .     S
C810   H830    1.079   .     S
C810   C813    1.393   .     A
C811   C816    1.417   .     A
C811   C814    1.416   .     A
C812   O844    1.289   .     A
C812   C823    1.402   .     S
C812   O892    1.275   .     S
C813   C817    1.415   .     A
C813   C815    1.416   .     A
C814   C370    1.389   1_556 S
C816   C819    1.418   .     A
C816   C367    1.415   1_556 S
C817   C818    1.418   .     A
C818   C820    1.385   .     A
C818   H834    1.078   .     S
C819   H835    1.078   .     S
C819   C821    1.386   .     A
C820   H825    1.084   .     S
C821   H829    1.084   .     S
C821   C365    1.389   1_556 S
C822   C473    1.340   1_565 S
C822   H536    1.088   1_565 S
C824   O847    1.303   .     A
H826   C523    1.088   1_565 S
H827   N839    1.029   .     S
H828   N840    1.029   .     S
N839   Zn850   2.017   .     S
N839   N840    1.291   .     D
N840   Zn849   2.017   .     S
O841   Zn849   1.949   .     S
O841   C851    1.275   .     S
O842   Zn850   1.949   .     S
O843   Zn850   1.978   .     S
O844   Zn849   1.978   .     S
O845   Zn849   1.956   .     S
O845   C874    1.290   .     S
O846   Zn850   1.956   .     S
O847   Zn850   1.903   .     S
O848   Zn849   1.903   .     S
C851   C872    1.402   .     S
C851   O893    1.289   .     A
C852   C854    1.456   .     S
C852   O898    1.301   .     A
C852   O796    1.289   1_655 S
C853   C859    1.391   .     A
C853   C874    1.461   .     S
C854   C858    1.413   .     A
C854   C860    1.387   .     A
C855   C864    1.400   .     A
C855   H382    1.084   1_556 S
C856   H883    1.084   .     S
C856   C858    1.395   .     A
C856   C865    1.401   .     A
C857   I888    2.128   .     S
C857   C753    1.414   1_655 S
C857   C755    1.394   1_655 S
C858   I787    2.127   1_655 S
C859   C861    1.394   .     A
C859   H881    1.076   .     S
C860   H880    1.079   .     S
C860   C863    1.393   .     A
C861   C866    1.417   .     A
C861   C864    1.416   .     A
C862   O894    1.289   .     A
C862   C873    1.402   .     S
C862   O792    1.275   1_655 S
C863   C867    1.415   .     A
C863   C865    1.416   .     A
C864   C420    1.389   1_556 S
C866   C869    1.418   .     A
C866   C417    1.415   1_556 S
C867   C868    1.418   .     A
C868   C870    1.385   .     A
C868   H884    1.078   .     S
C869   H885    1.078   .     S
C869   C871    1.386   .     A
C870   H875    1.084   .     S
C871   H879    1.084   .     S
C871   C415    1.389   1_556 S
C872   C523    1.340   1_565 S
C872   H586    1.088   1_565 S
C873   C622    1.340   1_655 S
C874   O897    1.303   .     A
H876   C573    1.088   1_565 S
H877   N889    1.029   .     S
H878   N890    1.029   .     S
H882   C305    1.084   1_655 S
N889   Zn900   2.017   .     S
N889   N890    1.291   .     D
N890   Zn899   2.017   .     S
O891   Zn899   1.949   .     S
O891   C751    1.275   1_655 S
O892   Zn900   1.949   .     S
O893   Zn900   1.978   .     S
O894   Zn899   1.978   .     S
O895   Zn899   1.956   .     S
O895   C774    1.290   1_655 S
O896   Zn900   1.956   .     S
O897   Zn900   1.903   .     S
O898   Zn899   1.903   .     S
