data_str_m1_o10_o16_pcu_sym.11
_audit_creation_date              2020-01-03
_audit_creation_method            'Materials Studio'
_symmetry_space_group_name_H-M    'P1'
_symmetry_Int_Tables_number       1
_symmetry_cell_setting            triclinic
loop_
_symmetry_equiv_pos_as_xyz
  x,y,z
_cell_length_a                    32.6284
_cell_length_b                    32.6349
_cell_length_c                    30.9249
_cell_angle_alpha                 96.4654
_cell_angle_beta                  74.9331
_cell_angle_gamma                 97.5459
loop_
_atom_site_label
_atom_site_type_symbol
_atom_site_fract_x
_atom_site_fract_y
_atom_site_fract_z
_atom_site_U_iso_or_equiv
_atom_site_adp_type
_atom_site_occupancy
C1     C     0.05299   0.16017   0.26010   0.00000  Uiso   1.00
C2     C     0.17900   0.16583   0.05673   0.00000  Uiso   1.00
C3     C     0.19746   0.09780   0.06348   0.00000  Uiso   1.00
C4     C     0.28055   0.17369   0.24054   0.00000  Uiso   1.00
C5     C     0.14054   0.19239   0.42048   0.00000  Uiso   1.00
C6     C     0.32600   0.17398   0.23646   0.00000  Uiso   1.00
C7     C     0.00767   0.15859   0.26730   0.00000  Uiso   1.00
C8     C     0.17749   0.32190   0.23666   0.00000  Uiso   1.00
C9     C     0.15218   0.01304   0.26720   0.00000  Uiso   1.00
C10    C     0.15670   0.05614   0.26021   0.00000  Uiso   1.00
C11    C     0.17626   0.27783   0.24065   0.00000  Uiso   1.00
C12    C     0.12133   0.24099   0.48581   0.00000  Uiso   1.00
C13    C     0.18515   0.14797   0.12947   0.00000  Uiso   1.00
C14    C     0.14800   0.18414   0.37122   0.00000  Uiso   1.00
C15    C     0.19089   0.08432   0.02137   0.00000  Uiso   1.00
C16    C     0.19122   0.13846   0.08134   0.00000  Uiso   1.00
C17    C     0.12789   0.23106   0.43990   0.00000  Uiso   1.00
C18    C     0.31561   0.14895   0.31311   0.00000  Uiso   1.00
C19    C     0.12738   0.00176   0.31258   0.00000  Uiso   1.00
C20    C     0.11134   0.22181   0.06243   0.00000  Uiso   1.00
C21    C     0.12968   0.21366   0.01344   0.00000  Uiso   1.00
C22    C     0.14849   0.17664   0.49350   0.00000  Uiso   1.00
C23    C     0.14828   0.16379   0.44799   0.00000  Uiso   1.00
C24    C     0.16701   0.15143   0.01659   0.00000  Uiso   1.00
C25    C     0.17532   0.11059   0.49799   0.00000  Uiso   1.00
C26    C     0.16736   0.09606   0.45661   0.00000  Uiso   1.00
C27    C     0.15451   0.12233   0.43171   0.00000  Uiso   1.00
H28    H     0.20605   0.07613   0.08289   0.00000  Uiso   1.00
H29    H     0.27285   0.16668   0.36990   0.00000  Uiso   1.00
H30    H     0.12655   0.31113   0.37016   0.00000  Uiso   1.00
H31    H     0.09824   0.26417   0.11554   0.00000  Uiso   1.00
H32    H     0.19871   0.00134   0.20679   0.00000  Uiso   1.00
H33    H     0.17210   0.06448   0.44287   0.00000  Uiso   1.00
H34    H     0.19633   0.05282   0.00787   0.00000  Uiso   1.00
H35    H     0.17725   0.19761   0.07055   0.00000  Uiso   1.00
H36    H     0.12179   0.25345   0.41964   0.00000  Uiso   1.00
H37    H     0.10806   0.26971   0.00004   0.00000  Uiso   1.00
H38    H     0.14822   0.10903   0.40021   0.00000  Uiso   1.00
H39    H     0.01470   0.18541   0.20632   0.00000  Uiso   1.00
O40    O     0.16667   0.16667   0.25000   0.00000  Uiso   1.00
O41    O     0.15451   0.12637   0.15459   0.00000  Uiso   1.00
O42    O     0.12940   0.20391   0.34968   0.00000  Uiso   1.00
O43    O     0.20824   0.17759   0.14606   0.00000  Uiso   1.00
O44    O     0.17451   0.15880   0.34968   0.00000  Uiso   1.00
O45    O     0.32084   0.11780   0.32875   0.00000  Uiso   1.00
O46    O     0.28785   0.17659   0.33927   0.00000  Uiso   1.00
O47    O     0.09103   0.01132   0.32719   0.00000  Uiso   1.00
O48    O     0.14644   0.31616   0.33964   0.00000  Uiso   1.00
O49    O     0.09428   0.19310   0.08534   0.00000  Uiso   1.00
O50    O     0.11205   0.26256   0.08208   0.00000  Uiso   1.00
O51    O     0.17930   0.08019   0.28214   0.00000  Uiso   1.00
O52    O     0.14632   0.26085   0.27014   0.00000  Uiso   1.00
O53    O     0.07412   0.13291   0.23413   0.00000  Uiso   1.00
O54    O     0.26693   0.19272   0.21361   0.00000  Uiso   1.00
O55    O     0.07071   0.18878   0.28213   0.00000  Uiso   1.00
O56    O     0.25491   0.15226   0.27014   0.00000  Uiso   1.00
O57    O     0.13760   0.06944   0.23413   0.00000  Uiso   1.00
O58    O     0.20345   0.25620   0.21361   0.00000  Uiso   1.00
Zn59   Zn    0.19338   0.13994   0.28734   0.00000  Uiso   1.00
Zn60   Zn    0.13379   0.12458   0.21876   0.00000  Uiso   1.00
Zn61   Zn    0.21056   0.19775   0.20657   0.00000  Uiso   1.00
Zn62   Zn    0.12893   0.20439   0.28734   0.00000  Uiso   1.00
C63    C     0.38632   0.16017   0.26010   0.00000  Uiso   1.00
C64    C     0.51233   0.16583   0.05673   0.00000  Uiso   1.00
C65    C     0.53080   0.09780   0.06348   0.00000  Uiso   1.00
C66    C     0.61388   0.17369   0.24054   0.00000  Uiso   1.00
C67    C     0.47388   0.19239   0.42048   0.00000  Uiso   1.00
C68    C     0.65933   0.17398   0.23646   0.00000  Uiso   1.00
C69    C     0.34100   0.15859   0.26730   0.00000  Uiso   1.00
C70    C     0.51083   0.32190   0.23666   0.00000  Uiso   1.00
C71    C     0.48552   0.01304   0.26720   0.00000  Uiso   1.00
C72    C     0.49004   0.05614   0.26021   0.00000  Uiso   1.00
C73    C     0.50959   0.27783   0.24065   0.00000  Uiso   1.00
C74    C     0.45466   0.24099   0.48581   0.00000  Uiso   1.00
C75    C     0.51848   0.14797   0.12947   0.00000  Uiso   1.00
C76    C     0.48133   0.18414   0.37122   0.00000  Uiso   1.00
C77    C     0.52422   0.08432   0.02137   0.00000  Uiso   1.00
C78    C     0.52456   0.13846   0.08134   0.00000  Uiso   1.00
C79    C     0.46122   0.23106   0.43990   0.00000  Uiso   1.00
C80    C     0.64894   0.14895   0.31311   0.00000  Uiso   1.00
C81    C     0.46071   0.00176   0.31258   0.00000  Uiso   1.00
C82    C     0.44468   0.22181   0.06243   0.00000  Uiso   1.00
C83    C     0.46301   0.21366   0.01344   0.00000  Uiso   1.00
C84    C     0.48183   0.17664   0.49350   0.00000  Uiso   1.00
C85    C     0.48161   0.16379   0.44799   0.00000  Uiso   1.00
C86    C     0.50035   0.15143   0.01659   0.00000  Uiso   1.00
C87    C     0.50865   0.11059   0.49799   0.00000  Uiso   1.00
C88    C     0.50070   0.09606   0.45661   0.00000  Uiso   1.00
C89    C     0.48785   0.12233   0.43171   0.00000  Uiso   1.00
H90    H     0.53939   0.07613   0.08289   0.00000  Uiso   1.00
H91    H     0.60618   0.16668   0.36990   0.00000  Uiso   1.00
H92    H     0.45989   0.31113   0.37016   0.00000  Uiso   1.00
H93    H     0.43158   0.26417   0.11554   0.00000  Uiso   1.00
H94    H     0.53205   0.00134   0.20679   0.00000  Uiso   1.00
H95    H     0.50543   0.06448   0.44287   0.00000  Uiso   1.00
H96    H     0.52966   0.05282   0.00787   0.00000  Uiso   1.00
H97    H     0.51059   0.19761   0.07055   0.00000  Uiso   1.00
H98    H     0.45512   0.25345   0.41964   0.00000  Uiso   1.00
H99    H     0.44139   0.26971   0.00004   0.00000  Uiso   1.00
H100   H     0.48155   0.10903   0.40021   0.00000  Uiso   1.00
H101   H     0.34803   0.18541   0.20632   0.00000  Uiso   1.00
O102   O     0.50000   0.16667   0.25000   0.00000  Uiso   1.00
O103   O     0.48784   0.12637   0.15459   0.00000  Uiso   1.00
O104   O     0.46274   0.20391   0.34968   0.00000  Uiso   1.00
O105   O     0.54157   0.17759   0.14606   0.00000  Uiso   1.00
O106   O     0.50785   0.15880   0.34968   0.00000  Uiso   1.00
O107   O     0.65418   0.11780   0.32875   0.00000  Uiso   1.00
O108   O     0.62118   0.17659   0.33927   0.00000  Uiso   1.00
O109   O     0.42436   0.01132   0.32719   0.00000  Uiso   1.00
O110   O     0.47977   0.31616   0.33964   0.00000  Uiso   1.00
O111   O     0.42762   0.19310   0.08534   0.00000  Uiso   1.00
O112   O     0.44539   0.26256   0.08208   0.00000  Uiso   1.00
O113   O     0.51264   0.08019   0.28214   0.00000  Uiso   1.00
O114   O     0.47965   0.26085   0.27014   0.00000  Uiso   1.00
O115   O     0.40745   0.13291   0.23413   0.00000  Uiso   1.00
O116   O     0.60026   0.19272   0.21361   0.00000  Uiso   1.00
O117   O     0.40405   0.18878   0.28213   0.00000  Uiso   1.00
O118   O     0.58824   0.15226   0.27014   0.00000  Uiso   1.00
O119   O     0.47093   0.06944   0.23413   0.00000  Uiso   1.00
O120   O     0.53678   0.25620   0.21361   0.00000  Uiso   1.00
Zn121  Zn    0.52672   0.13994   0.28734   0.00000  Uiso   1.00
Zn122  Zn    0.46713   0.12458   0.21876   0.00000  Uiso   1.00
Zn123  Zn    0.54389   0.19775   0.20657   0.00000  Uiso   1.00
Zn124  Zn    0.46226   0.20439   0.28734   0.00000  Uiso   1.00
C125   C     0.71965   0.16017   0.26010   0.00000  Uiso   1.00
C126   C     0.84566   0.16583   0.05673   0.00000  Uiso   1.00
C127   C     0.86413   0.09780   0.06348   0.00000  Uiso   1.00
C128   C     0.94722   0.17369   0.24054   0.00000  Uiso   1.00
C129   C     0.80721   0.19239   0.42048   0.00000  Uiso   1.00
C130   C     0.99266   0.17398   0.23646   0.00000  Uiso   1.00
C131   C     0.67433   0.15859   0.26730   0.00000  Uiso   1.00
C132   C     0.84416   0.32190   0.23666   0.00000  Uiso   1.00
C133   C     0.81885   0.01304   0.26720   0.00000  Uiso   1.00
C134   C     0.82337   0.05614   0.26021   0.00000  Uiso   1.00
C135   C     0.84293   0.27783   0.24065   0.00000  Uiso   1.00
C136   C     0.78800   0.24099   0.48581   0.00000  Uiso   1.00
C137   C     0.85181   0.14797   0.12947   0.00000  Uiso   1.00
C138   C     0.81467   0.18414   0.37122   0.00000  Uiso   1.00
C139   C     0.85755   0.08432   0.02137   0.00000  Uiso   1.00
C140   C     0.85789   0.13846   0.08134   0.00000  Uiso   1.00
C141   C     0.79456   0.23106   0.43990   0.00000  Uiso   1.00
C142   C     0.98228   0.14895   0.31311   0.00000  Uiso   1.00
C143   C     0.79404   0.00176   0.31258   0.00000  Uiso   1.00
C144   C     0.77801   0.22181   0.06243   0.00000  Uiso   1.00
C145   C     0.79635   0.21366   0.01344   0.00000  Uiso   1.00
C146   C     0.81516   0.17664   0.49350   0.00000  Uiso   1.00
C147   C     0.81495   0.16379   0.44799   0.00000  Uiso   1.00
C148   C     0.83368   0.15143   0.01659   0.00000  Uiso   1.00
C149   C     0.84198   0.11059   0.49799   0.00000  Uiso   1.00
C150   C     0.83403   0.09606   0.45661   0.00000  Uiso   1.00
C151   C     0.82118   0.12233   0.43171   0.00000  Uiso   1.00
H152   H     0.87272   0.07613   0.08289   0.00000  Uiso   1.00
H153   H     0.93951   0.16668   0.36990   0.00000  Uiso   1.00
H154   H     0.79322   0.31113   0.37016   0.00000  Uiso   1.00
H155   H     0.76491   0.26417   0.11554   0.00000  Uiso   1.00
H156   H     0.86538   0.00134   0.20679   0.00000  Uiso   1.00
H157   H     0.83877   0.06448   0.44287   0.00000  Uiso   1.00
H158   H     0.86299   0.05282   0.00787   0.00000  Uiso   1.00
H159   H     0.84392   0.19761   0.07055   0.00000  Uiso   1.00
H160   H     0.78845   0.25345   0.41964   0.00000  Uiso   1.00
H161   H     0.77472   0.26971   0.00004   0.00000  Uiso   1.00
H162   H     0.81489   0.10903   0.40021   0.00000  Uiso   1.00
H163   H     0.68137   0.18541   0.20632   0.00000  Uiso   1.00
O164   O     0.83333   0.16667   0.25000   0.00000  Uiso   1.00
O165   O     0.82118   0.12637   0.15459   0.00000  Uiso   1.00
O166   O     0.79607   0.20391   0.34968   0.00000  Uiso   1.00
O167   O     0.87491   0.17759   0.14606   0.00000  Uiso   1.00
O168   O     0.84118   0.15880   0.34968   0.00000  Uiso   1.00
O169   O     0.98751   0.11780   0.32875   0.00000  Uiso   1.00
O170   O     0.95451   0.17659   0.33927   0.00000  Uiso   1.00
O171   O     0.75769   0.01132   0.32719   0.00000  Uiso   1.00
O172   O     0.81310   0.31616   0.33964   0.00000  Uiso   1.00
O173   O     0.76095   0.19310   0.08534   0.00000  Uiso   1.00
O174   O     0.77872   0.26256   0.08208   0.00000  Uiso   1.00
O175   O     0.84597   0.08019   0.28214   0.00000  Uiso   1.00
O176   O     0.81298   0.26085   0.27014   0.00000  Uiso   1.00
O177   O     0.74078   0.13291   0.23413   0.00000  Uiso   1.00
O178   O     0.93360   0.19272   0.21361   0.00000  Uiso   1.00
O179   O     0.73738   0.18878   0.28213   0.00000  Uiso   1.00
O180   O     0.92158   0.15226   0.27014   0.00000  Uiso   1.00
O181   O     0.80426   0.06944   0.23413   0.00000  Uiso   1.00
O182   O     0.87012   0.25620   0.21361   0.00000  Uiso   1.00
Zn183  Zn    0.86005   0.13994   0.28734   0.00000  Uiso   1.00
Zn184  Zn    0.80046   0.12458   0.21876   0.00000  Uiso   1.00
Zn185  Zn    0.87723   0.19775   0.20657   0.00000  Uiso   1.00
Zn186  Zn    0.79560   0.20439   0.28734   0.00000  Uiso   1.00
C187   C     0.05299   0.49350   0.26010   0.00000  Uiso   1.00
C188   C     0.17900   0.49916   0.05673   0.00000  Uiso   1.00
C189   C     0.19746   0.43114   0.06348   0.00000  Uiso   1.00
C190   C     0.28055   0.50702   0.24054   0.00000  Uiso   1.00
C191   C     0.14054   0.52572   0.42048   0.00000  Uiso   1.00
C192   C     0.32600   0.50731   0.23646   0.00000  Uiso   1.00
C193   C     0.00767   0.49192   0.26730   0.00000  Uiso   1.00
C194   C     0.17749   0.65523   0.23666   0.00000  Uiso   1.00
C195   C     0.15218   0.34637   0.26720   0.00000  Uiso   1.00
C196   C     0.15670   0.38948   0.26021   0.00000  Uiso   1.00
C197   C     0.17626   0.61117   0.24065   0.00000  Uiso   1.00
C198   C     0.12133   0.57432   0.48581   0.00000  Uiso   1.00
C199   C     0.18515   0.48130   0.12947   0.00000  Uiso   1.00
C200   C     0.14800   0.51747   0.37122   0.00000  Uiso   1.00
C201   C     0.19089   0.41765   0.02137   0.00000  Uiso   1.00
C202   C     0.19122   0.47179   0.08134   0.00000  Uiso   1.00
C203   C     0.12789   0.56439   0.43990   0.00000  Uiso   1.00
C204   C     0.31561   0.48228   0.31311   0.00000  Uiso   1.00
C205   C     0.12738   0.33509   0.31258   0.00000  Uiso   1.00
C206   C     0.11134   0.55515   0.06243   0.00000  Uiso   1.00
C207   C     0.12968   0.54699   0.01344   0.00000  Uiso   1.00
C208   C     0.14849   0.50997   0.49350   0.00000  Uiso   1.00
C209   C     0.14828   0.49713   0.44799   0.00000  Uiso   1.00
C210   C     0.16701   0.48477   0.01659   0.00000  Uiso   1.00
C211   C     0.17532   0.44392   0.49799   0.00000  Uiso   1.00
C212   C     0.16736   0.42940   0.45661   0.00000  Uiso   1.00
C213   C     0.15451   0.45566   0.43171   0.00000  Uiso   1.00
H214   H     0.20605   0.40946   0.08289   0.00000  Uiso   1.00
H215   H     0.27285   0.50001   0.36990   0.00000  Uiso   1.00
H216   H     0.12655   0.64446   0.37016   0.00000  Uiso   1.00
H217   H     0.09824   0.59751   0.11554   0.00000  Uiso   1.00
H218   H     0.19871   0.33467   0.20679   0.00000  Uiso   1.00
H219   H     0.17210   0.39781   0.44287   0.00000  Uiso   1.00
H220   H     0.19633   0.38616   0.00787   0.00000  Uiso   1.00
H221   H     0.17725   0.53094   0.07055   0.00000  Uiso   1.00
H222   H     0.12179   0.58678   0.41964   0.00000  Uiso   1.00
H223   H     0.10806   0.60304   0.00004   0.00000  Uiso   1.00
H224   H     0.14822   0.44236   0.40021   0.00000  Uiso   1.00
H225   H     0.01470   0.51874   0.20632   0.00000  Uiso   1.00
O226   O     0.16667   0.50000   0.25000   0.00000  Uiso   1.00
O227   O     0.15451   0.45970   0.15459   0.00000  Uiso   1.00
O228   O     0.12940   0.53724   0.34968   0.00000  Uiso   1.00
O229   O     0.20824   0.51092   0.14606   0.00000  Uiso   1.00
O230   O     0.17451   0.49213   0.34968   0.00000  Uiso   1.00
O231   O     0.32084   0.45114   0.32875   0.00000  Uiso   1.00
O232   O     0.28785   0.50993   0.33927   0.00000  Uiso   1.00
O233   O     0.09103   0.34465   0.32719   0.00000  Uiso   1.00
O234   O     0.14644   0.64949   0.33964   0.00000  Uiso   1.00
O235   O     0.09428   0.52644   0.08534   0.00000  Uiso   1.00
O236   O     0.11205   0.59590   0.08208   0.00000  Uiso   1.00
O237   O     0.17930   0.41352   0.28214   0.00000  Uiso   1.00
O238   O     0.14632   0.59418   0.27014   0.00000  Uiso   1.00
O239   O     0.07412   0.46625   0.23413   0.00000  Uiso   1.00
O240   O     0.26693   0.52605   0.21361   0.00000  Uiso   1.00
O241   O     0.07071   0.52211   0.28213   0.00000  Uiso   1.00
O242   O     0.25491   0.48559   0.27014   0.00000  Uiso   1.00
O243   O     0.13760   0.40277   0.23413   0.00000  Uiso   1.00
O244   O     0.20345   0.58953   0.21361   0.00000  Uiso   1.00
Zn245  Zn    0.19338   0.47327   0.28734   0.00000  Uiso   1.00
Zn246  Zn    0.13379   0.45791   0.21876   0.00000  Uiso   1.00
Zn247  Zn    0.21056   0.53109   0.20657   0.00000  Uiso   1.00
Zn248  Zn    0.12893   0.53773   0.28734   0.00000  Uiso   1.00
C249   C     0.38632   0.49350   0.26010   0.00000  Uiso   1.00
C250   C     0.51233   0.49916   0.05673   0.00000  Uiso   1.00
C251   C     0.53080   0.43114   0.06348   0.00000  Uiso   1.00
C252   C     0.61388   0.50702   0.24054   0.00000  Uiso   1.00
C253   C     0.47388   0.52572   0.42048   0.00000  Uiso   1.00
C254   C     0.65933   0.50731   0.23646   0.00000  Uiso   1.00
C255   C     0.34100   0.49192   0.26730   0.00000  Uiso   1.00
C256   C     0.51083   0.65523   0.23666   0.00000  Uiso   1.00
C257   C     0.48552   0.34637   0.26720   0.00000  Uiso   1.00
C258   C     0.49004   0.38948   0.26021   0.00000  Uiso   1.00
C259   C     0.50959   0.61117   0.24065   0.00000  Uiso   1.00
C260   C     0.45466   0.57432   0.48581   0.00000  Uiso   1.00
C261   C     0.51848   0.48130   0.12947   0.00000  Uiso   1.00
C262   C     0.48133   0.51747   0.37122   0.00000  Uiso   1.00
C263   C     0.52422   0.41765   0.02137   0.00000  Uiso   1.00
C264   C     0.52456   0.47179   0.08134   0.00000  Uiso   1.00
C265   C     0.46122   0.56439   0.43990   0.00000  Uiso   1.00
C266   C     0.64894   0.48228   0.31311   0.00000  Uiso   1.00
C267   C     0.46071   0.33509   0.31258   0.00000  Uiso   1.00
C268   C     0.44468   0.55515   0.06243   0.00000  Uiso   1.00
C269   C     0.46301   0.54699   0.01344   0.00000  Uiso   1.00
C270   C     0.48183   0.50997   0.49350   0.00000  Uiso   1.00
C271   C     0.48161   0.49713   0.44799   0.00000  Uiso   1.00
C272   C     0.50035   0.48477   0.01659   0.00000  Uiso   1.00
C273   C     0.50865   0.44392   0.49799   0.00000  Uiso   1.00
C274   C     0.50070   0.42940   0.45661   0.00000  Uiso   1.00
C275   C     0.48785   0.45566   0.43171   0.00000  Uiso   1.00
H276   H     0.53939   0.40946   0.08289   0.00000  Uiso   1.00
H277   H     0.60618   0.50001   0.36990   0.00000  Uiso   1.00
H278   H     0.45989   0.64446   0.37016   0.00000  Uiso   1.00
H279   H     0.43158   0.59751   0.11554   0.00000  Uiso   1.00
H280   H     0.53205   0.33467   0.20679   0.00000  Uiso   1.00
H281   H     0.50543   0.39781   0.44287   0.00000  Uiso   1.00
H282   H     0.52966   0.38616   0.00787   0.00000  Uiso   1.00
H283   H     0.51059   0.53094   0.07055   0.00000  Uiso   1.00
H284   H     0.45512   0.58678   0.41964   0.00000  Uiso   1.00
H285   H     0.44139   0.60304   0.00004   0.00000  Uiso   1.00
H286   H     0.48155   0.44236   0.40021   0.00000  Uiso   1.00
H287   H     0.34803   0.51874   0.20632   0.00000  Uiso   1.00
O288   O     0.50000   0.50000   0.25000   0.00000  Uiso   1.00
O289   O     0.48784   0.45970   0.15459   0.00000  Uiso   1.00
O290   O     0.46274   0.53724   0.34968   0.00000  Uiso   1.00
O291   O     0.54157   0.51092   0.14606   0.00000  Uiso   1.00
O292   O     0.50785   0.49213   0.34968   0.00000  Uiso   1.00
O293   O     0.65418   0.45114   0.32875   0.00000  Uiso   1.00
O294   O     0.62118   0.50993   0.33927   0.00000  Uiso   1.00
O295   O     0.42436   0.34465   0.32719   0.00000  Uiso   1.00
O296   O     0.47977   0.64949   0.33964   0.00000  Uiso   1.00
O297   O     0.42762   0.52644   0.08534   0.00000  Uiso   1.00
O298   O     0.44539   0.59590   0.08208   0.00000  Uiso   1.00
O299   O     0.51264   0.41352   0.28214   0.00000  Uiso   1.00
O300   O     0.47965   0.59418   0.27014   0.00000  Uiso   1.00
O301   O     0.40745   0.46625   0.23413   0.00000  Uiso   1.00
O302   O     0.60026   0.52605   0.21361   0.00000  Uiso   1.00
O303   O     0.40405   0.52211   0.28213   0.00000  Uiso   1.00
O304   O     0.58824   0.48559   0.27014   0.00000  Uiso   1.00
O305   O     0.47093   0.40277   0.23413   0.00000  Uiso   1.00
O306   O     0.53678   0.58953   0.21361   0.00000  Uiso   1.00
Zn307  Zn    0.52672   0.47327   0.28734   0.00000  Uiso   1.00
Zn308  Zn    0.46713   0.45791   0.21876   0.00000  Uiso   1.00
Zn309  Zn    0.54389   0.53109   0.20657   0.00000  Uiso   1.00
Zn310  Zn    0.46226   0.53773   0.28734   0.00000  Uiso   1.00
C311   C     0.71965   0.49350   0.26010   0.00000  Uiso   1.00
C312   C     0.84566   0.49916   0.05673   0.00000  Uiso   1.00
C313   C     0.86413   0.43114   0.06348   0.00000  Uiso   1.00
C314   C     0.94722   0.50702   0.24054   0.00000  Uiso   1.00
C315   C     0.80721   0.52572   0.42048   0.00000  Uiso   1.00
C316   C     0.99266   0.50731   0.23646   0.00000  Uiso   1.00
C317   C     0.67433   0.49192   0.26730   0.00000  Uiso   1.00
C318   C     0.84416   0.65523   0.23666   0.00000  Uiso   1.00
C319   C     0.81885   0.34637   0.26720   0.00000  Uiso   1.00
C320   C     0.82337   0.38948   0.26021   0.00000  Uiso   1.00
C321   C     0.84293   0.61117   0.24065   0.00000  Uiso   1.00
C322   C     0.78800   0.57432   0.48581   0.00000  Uiso   1.00
C323   C     0.85181   0.48130   0.12947   0.00000  Uiso   1.00
C324   C     0.81467   0.51747   0.37122   0.00000  Uiso   1.00
C325   C     0.85755   0.41765   0.02137   0.00000  Uiso   1.00
C326   C     0.85789   0.47179   0.08134   0.00000  Uiso   1.00
C327   C     0.79456   0.56439   0.43990   0.00000  Uiso   1.00
C328   C     0.98228   0.48228   0.31311   0.00000  Uiso   1.00
C329   C     0.79404   0.33509   0.31258   0.00000  Uiso   1.00
C330   C     0.77801   0.55515   0.06243   0.00000  Uiso   1.00
C331   C     0.79635   0.54699   0.01344   0.00000  Uiso   1.00
C332   C     0.81516   0.50997   0.49350   0.00000  Uiso   1.00
C333   C     0.81495   0.49713   0.44799   0.00000  Uiso   1.00
C334   C     0.83368   0.48477   0.01659   0.00000  Uiso   1.00
C335   C     0.84198   0.44392   0.49799   0.00000  Uiso   1.00
C336   C     0.83403   0.42940   0.45661   0.00000  Uiso   1.00
C337   C     0.82118   0.45566   0.43171   0.00000  Uiso   1.00
H338   H     0.87272   0.40946   0.08289   0.00000  Uiso   1.00
H339   H     0.93951   0.50001   0.36990   0.00000  Uiso   1.00
H340   H     0.79322   0.64446   0.37016   0.00000  Uiso   1.00
H341   H     0.76491   0.59751   0.11554   0.00000  Uiso   1.00
H342   H     0.86538   0.33467   0.20679   0.00000  Uiso   1.00
H343   H     0.83877   0.39781   0.44287   0.00000  Uiso   1.00
H344   H     0.86299   0.38616   0.00787   0.00000  Uiso   1.00
H345   H     0.84392   0.53094   0.07055   0.00000  Uiso   1.00
H346   H     0.78845   0.58678   0.41964   0.00000  Uiso   1.00
H347   H     0.77472   0.60304   0.00004   0.00000  Uiso   1.00
H348   H     0.81489   0.44236   0.40021   0.00000  Uiso   1.00
H349   H     0.68137   0.51874   0.20632   0.00000  Uiso   1.00
O350   O     0.83333   0.50000   0.25000   0.00000  Uiso   1.00
O351   O     0.82118   0.45970   0.15459   0.00000  Uiso   1.00
O352   O     0.79607   0.53724   0.34968   0.00000  Uiso   1.00
O353   O     0.87491   0.51092   0.14606   0.00000  Uiso   1.00
O354   O     0.84118   0.49213   0.34968   0.00000  Uiso   1.00
O355   O     0.98751   0.45114   0.32875   0.00000  Uiso   1.00
O356   O     0.95451   0.50993   0.33927   0.00000  Uiso   1.00
O357   O     0.75769   0.34465   0.32719   0.00000  Uiso   1.00
O358   O     0.81310   0.64949   0.33964   0.00000  Uiso   1.00
O359   O     0.76095   0.52644   0.08534   0.00000  Uiso   1.00
O360   O     0.77872   0.59590   0.08208   0.00000  Uiso   1.00
O361   O     0.84597   0.41352   0.28214   0.00000  Uiso   1.00
O362   O     0.81298   0.59418   0.27014   0.00000  Uiso   1.00
O363   O     0.74078   0.46625   0.23413   0.00000  Uiso   1.00
O364   O     0.93360   0.52605   0.21361   0.00000  Uiso   1.00
O365   O     0.73738   0.52211   0.28213   0.00000  Uiso   1.00
O366   O     0.92158   0.48559   0.27014   0.00000  Uiso   1.00
O367   O     0.80426   0.40277   0.23413   0.00000  Uiso   1.00
O368   O     0.87012   0.58953   0.21361   0.00000  Uiso   1.00
Zn369  Zn    0.86005   0.47327   0.28734   0.00000  Uiso   1.00
Zn370  Zn    0.80046   0.45791   0.21876   0.00000  Uiso   1.00
Zn371  Zn    0.87723   0.53109   0.20657   0.00000  Uiso   1.00
Zn372  Zn    0.79560   0.53773   0.28734   0.00000  Uiso   1.00
C373   C     0.05299   0.82683   0.26010   0.00000  Uiso   1.00
C374   C     0.17900   0.83249   0.05673   0.00000  Uiso   1.00
C375   C     0.19746   0.76447   0.06348   0.00000  Uiso   1.00
C376   C     0.28055   0.84036   0.24054   0.00000  Uiso   1.00
C377   C     0.14054   0.85905   0.42048   0.00000  Uiso   1.00
C378   C     0.32600   0.84065   0.23646   0.00000  Uiso   1.00
C379   C     0.00767   0.82526   0.26730   0.00000  Uiso   1.00
C380   C     0.17749   0.98856   0.23666   0.00000  Uiso   1.00
C381   C     0.15218   0.67971   0.26720   0.00000  Uiso   1.00
C382   C     0.15670   0.72281   0.26021   0.00000  Uiso   1.00
C383   C     0.17626   0.94450   0.24065   0.00000  Uiso   1.00
C384   C     0.12133   0.90766   0.48581   0.00000  Uiso   1.00
C385   C     0.18515   0.81464   0.12947   0.00000  Uiso   1.00
C386   C     0.14800   0.85080   0.37122   0.00000  Uiso   1.00
C387   C     0.19089   0.75098   0.02137   0.00000  Uiso   1.00
C388   C     0.19122   0.80513   0.08134   0.00000  Uiso   1.00
C389   C     0.12789   0.89773   0.43990   0.00000  Uiso   1.00
C390   C     0.31561   0.81561   0.31311   0.00000  Uiso   1.00
C391   C     0.12738   0.66842   0.31258   0.00000  Uiso   1.00
C392   C     0.11134   0.88848   0.06243   0.00000  Uiso   1.00
C393   C     0.12968   0.88032   0.01344   0.00000  Uiso   1.00
C394   C     0.14849   0.84330   0.49350   0.00000  Uiso   1.00
C395   C     0.14828   0.83046   0.44799   0.00000  Uiso   1.00
C396   C     0.16701   0.81810   0.01659   0.00000  Uiso   1.00
C397   C     0.17532   0.77726   0.49799   0.00000  Uiso   1.00
C398   C     0.16736   0.76273   0.45661   0.00000  Uiso   1.00
C399   C     0.15451   0.78900   0.43171   0.00000  Uiso   1.00
H400   H     0.20605   0.74279   0.08289   0.00000  Uiso   1.00
H401   H     0.27285   0.83335   0.36990   0.00000  Uiso   1.00
H402   H     0.12655   0.97779   0.37016   0.00000  Uiso   1.00
H403   H     0.09824   0.93084   0.11554   0.00000  Uiso   1.00
H404   H     0.19871   0.66800   0.20679   0.00000  Uiso   1.00
H405   H     0.17210   0.73115   0.44287   0.00000  Uiso   1.00
H406   H     0.19633   0.71949   0.00787   0.00000  Uiso   1.00
H407   H     0.17725   0.86428   0.07055   0.00000  Uiso   1.00
H408   H     0.12179   0.92011   0.41964   0.00000  Uiso   1.00
H409   H     0.10806   0.93638   0.00004   0.00000  Uiso   1.00
H410   H     0.14822   0.77569   0.40021   0.00000  Uiso   1.00
H411   H     0.01470   0.85207   0.20632   0.00000  Uiso   1.00
O412   O     0.16667   0.83333   0.25000   0.00000  Uiso   1.00
O413   O     0.15451   0.79304   0.15459   0.00000  Uiso   1.00
O414   O     0.12940   0.87058   0.34968   0.00000  Uiso   1.00
O415   O     0.20824   0.84425   0.14606   0.00000  Uiso   1.00
O416   O     0.17451   0.82546   0.34968   0.00000  Uiso   1.00
O417   O     0.32084   0.78447   0.32875   0.00000  Uiso   1.00
O418   O     0.28785   0.84326   0.33927   0.00000  Uiso   1.00
O419   O     0.09103   0.67799   0.32719   0.00000  Uiso   1.00
O420   O     0.14644   0.98282   0.33964   0.00000  Uiso   1.00
O421   O     0.09428   0.85977   0.08534   0.00000  Uiso   1.00
O422   O     0.11205   0.92923   0.08208   0.00000  Uiso   1.00
O423   O     0.17930   0.74686   0.28214   0.00000  Uiso   1.00
O424   O     0.14632   0.92751   0.27014   0.00000  Uiso   1.00
O425   O     0.07412   0.79958   0.23413   0.00000  Uiso   1.00
O426   O     0.26693   0.85939   0.21361   0.00000  Uiso   1.00
O427   O     0.07071   0.85544   0.28213   0.00000  Uiso   1.00
O428   O     0.25491   0.81892   0.27014   0.00000  Uiso   1.00
O429   O     0.13760   0.73610   0.23413   0.00000  Uiso   1.00
O430   O     0.20345   0.92286   0.21361   0.00000  Uiso   1.00
Zn431  Zn    0.19338   0.80661   0.28734   0.00000  Uiso   1.00
Zn432  Zn    0.13379   0.79124   0.21876   0.00000  Uiso   1.00
Zn433  Zn    0.21056   0.86442   0.20657   0.00000  Uiso   1.00
Zn434  Zn    0.12893   0.87106   0.28734   0.00000  Uiso   1.00
C435   C     0.38632   0.82683   0.26010   0.00000  Uiso   1.00
C436   C     0.51233   0.83249   0.05673   0.00000  Uiso   1.00
C437   C     0.53080   0.76447   0.06348   0.00000  Uiso   1.00
C438   C     0.61388   0.84036   0.24054   0.00000  Uiso   1.00
C439   C     0.47388   0.85905   0.42048   0.00000  Uiso   1.00
C440   C     0.65933   0.84065   0.23646   0.00000  Uiso   1.00
C441   C     0.34100   0.82526   0.26730   0.00000  Uiso   1.00
C442   C     0.51083   0.98856   0.23666   0.00000  Uiso   1.00
C443   C     0.48552   0.67971   0.26720   0.00000  Uiso   1.00
C444   C     0.49004   0.72281   0.26021   0.00000  Uiso   1.00
C445   C     0.50959   0.94450   0.24065   0.00000  Uiso   1.00
C446   C     0.45466   0.90766   0.48581   0.00000  Uiso   1.00
C447   C     0.51848   0.81464   0.12947   0.00000  Uiso   1.00
C448   C     0.48133   0.85080   0.37122   0.00000  Uiso   1.00
C449   C     0.52422   0.75098   0.02137   0.00000  Uiso   1.00
C450   C     0.52456   0.80513   0.08134   0.00000  Uiso   1.00
C451   C     0.46122   0.89773   0.43990   0.00000  Uiso   1.00
C452   C     0.64894   0.81561   0.31311   0.00000  Uiso   1.00
C453   C     0.46071   0.66842   0.31258   0.00000  Uiso   1.00
C454   C     0.44468   0.88848   0.06243   0.00000  Uiso   1.00
C455   C     0.46301   0.88032   0.01344   0.00000  Uiso   1.00
C456   C     0.48183   0.84330   0.49350   0.00000  Uiso   1.00
C457   C     0.48161   0.83046   0.44799   0.00000  Uiso   1.00
C458   C     0.50035   0.81810   0.01659   0.00000  Uiso   1.00
C459   C     0.50865   0.77726   0.49799   0.00000  Uiso   1.00
C460   C     0.50070   0.76273   0.45661   0.00000  Uiso   1.00
C461   C     0.48785   0.78900   0.43171   0.00000  Uiso   1.00
H462   H     0.53939   0.74279   0.08289   0.00000  Uiso   1.00
H463   H     0.60618   0.83335   0.36990   0.00000  Uiso   1.00
H464   H     0.45989   0.97779   0.37016   0.00000  Uiso   1.00
H465   H     0.43158   0.93084   0.11554   0.00000  Uiso   1.00
H466   H     0.53205   0.66800   0.20679   0.00000  Uiso   1.00
H467   H     0.50543   0.73115   0.44287   0.00000  Uiso   1.00
H468   H     0.52966   0.71949   0.00787   0.00000  Uiso   1.00
H469   H     0.51059   0.86428   0.07055   0.00000  Uiso   1.00
H470   H     0.45512   0.92011   0.41964   0.00000  Uiso   1.00
H471   H     0.44139   0.93638   0.00004   0.00000  Uiso   1.00
H472   H     0.48155   0.77569   0.40021   0.00000  Uiso   1.00
H473   H     0.34803   0.85207   0.20632   0.00000  Uiso   1.00
O474   O     0.50000   0.83333   0.25000   0.00000  Uiso   1.00
O475   O     0.48784   0.79304   0.15459   0.00000  Uiso   1.00
O476   O     0.46274   0.87058   0.34968   0.00000  Uiso   1.00
O477   O     0.54157   0.84425   0.14606   0.00000  Uiso   1.00
O478   O     0.50785   0.82546   0.34968   0.00000  Uiso   1.00
O479   O     0.65418   0.78447   0.32875   0.00000  Uiso   1.00
O480   O     0.62118   0.84326   0.33927   0.00000  Uiso   1.00
O481   O     0.42436   0.67799   0.32719   0.00000  Uiso   1.00
O482   O     0.47977   0.98282   0.33964   0.00000  Uiso   1.00
O483   O     0.42762   0.85977   0.08534   0.00000  Uiso   1.00
O484   O     0.44539   0.92923   0.08208   0.00000  Uiso   1.00
O485   O     0.51264   0.74686   0.28214   0.00000  Uiso   1.00
O486   O     0.47965   0.92751   0.27014   0.00000  Uiso   1.00
O487   O     0.40745   0.79958   0.23413   0.00000  Uiso   1.00
O488   O     0.60026   0.85939   0.21361   0.00000  Uiso   1.00
O489   O     0.40405   0.85544   0.28213   0.00000  Uiso   1.00
O490   O     0.58824   0.81892   0.27014   0.00000  Uiso   1.00
O491   O     0.47093   0.73610   0.23413   0.00000  Uiso   1.00
O492   O     0.53678   0.92286   0.21361   0.00000  Uiso   1.00
Zn493  Zn    0.52672   0.80661   0.28734   0.00000  Uiso   1.00
Zn494  Zn    0.46713   0.79124   0.21876   0.00000  Uiso   1.00
Zn495  Zn    0.54389   0.86442   0.20657   0.00000  Uiso   1.00
Zn496  Zn    0.46226   0.87106   0.28734   0.00000  Uiso   1.00
C497   C     0.71965   0.82683   0.26010   0.00000  Uiso   1.00
C498   C     0.84566   0.83249   0.05673   0.00000  Uiso   1.00
C499   C     0.86413   0.76447   0.06348   0.00000  Uiso   1.00
C500   C     0.94722   0.84036   0.24054   0.00000  Uiso   1.00
C501   C     0.80721   0.85905   0.42048   0.00000  Uiso   1.00
C502   C     0.99266   0.84065   0.23646   0.00000  Uiso   1.00
C503   C     0.67433   0.82526   0.26730   0.00000  Uiso   1.00
C504   C     0.84416   0.98856   0.23666   0.00000  Uiso   1.00
C505   C     0.81885   0.67971   0.26720   0.00000  Uiso   1.00
C506   C     0.82337   0.72281   0.26021   0.00000  Uiso   1.00
C507   C     0.84293   0.94450   0.24065   0.00000  Uiso   1.00
C508   C     0.78800   0.90766   0.48581   0.00000  Uiso   1.00
C509   C     0.85181   0.81464   0.12947   0.00000  Uiso   1.00
C510   C     0.81467   0.85080   0.37122   0.00000  Uiso   1.00
C511   C     0.85755   0.75098   0.02137   0.00000  Uiso   1.00
C512   C     0.85789   0.80513   0.08134   0.00000  Uiso   1.00
C513   C     0.79456   0.89773   0.43990   0.00000  Uiso   1.00
C514   C     0.98228   0.81561   0.31311   0.00000  Uiso   1.00
C515   C     0.79404   0.66842   0.31258   0.00000  Uiso   1.00
C516   C     0.77801   0.88848   0.06243   0.00000  Uiso   1.00
C517   C     0.79635   0.88032   0.01344   0.00000  Uiso   1.00
C518   C     0.81516   0.84330   0.49350   0.00000  Uiso   1.00
C519   C     0.81495   0.83046   0.44799   0.00000  Uiso   1.00
C520   C     0.83368   0.81810   0.01659   0.00000  Uiso   1.00
C521   C     0.84198   0.77726   0.49799   0.00000  Uiso   1.00
C522   C     0.83403   0.76273   0.45661   0.00000  Uiso   1.00
C523   C     0.82118   0.78900   0.43171   0.00000  Uiso   1.00
H524   H     0.87272   0.74279   0.08289   0.00000  Uiso   1.00
H525   H     0.93951   0.83335   0.36990   0.00000  Uiso   1.00
H526   H     0.79322   0.97779   0.37016   0.00000  Uiso   1.00
H527   H     0.76491   0.93084   0.11554   0.00000  Uiso   1.00
H528   H     0.86538   0.66800   0.20679   0.00000  Uiso   1.00
H529   H     0.83877   0.73115   0.44287   0.00000  Uiso   1.00
H530   H     0.86299   0.71949   0.00787   0.00000  Uiso   1.00
H531   H     0.84392   0.86428   0.07055   0.00000  Uiso   1.00
H532   H     0.78845   0.92011   0.41964   0.00000  Uiso   1.00
H533   H     0.77472   0.93638   0.00004   0.00000  Uiso   1.00
H534   H     0.81489   0.77569   0.40021   0.00000  Uiso   1.00
H535   H     0.68137   0.85207   0.20632   0.00000  Uiso   1.00
O536   O     0.83333   0.83333   0.25000   0.00000  Uiso   1.00
O537   O     0.82118   0.79304   0.15459   0.00000  Uiso   1.00
O538   O     0.79607   0.87058   0.34968   0.00000  Uiso   1.00
O539   O     0.87491   0.84425   0.14606   0.00000  Uiso   1.00
O540   O     0.84118   0.82546   0.34968   0.00000  Uiso   1.00
O541   O     0.98751   0.78447   0.32875   0.00000  Uiso   1.00
O542   O     0.95451   0.84326   0.33927   0.00000  Uiso   1.00
O543   O     0.75769   0.67799   0.32719   0.00000  Uiso   1.00
O544   O     0.81310   0.98282   0.33964   0.00000  Uiso   1.00
O545   O     0.76095   0.85977   0.08534   0.00000  Uiso   1.00
O546   O     0.77872   0.92923   0.08208   0.00000  Uiso   1.00
O547   O     0.84597   0.74686   0.28214   0.00000  Uiso   1.00
O548   O     0.81298   0.92751   0.27014   0.00000  Uiso   1.00
O549   O     0.74078   0.79958   0.23413   0.00000  Uiso   1.00
O550   O     0.93360   0.85939   0.21361   0.00000  Uiso   1.00
O551   O     0.73738   0.85544   0.28213   0.00000  Uiso   1.00
O552   O     0.92158   0.81892   0.27014   0.00000  Uiso   1.00
O553   O     0.80426   0.73610   0.23413   0.00000  Uiso   1.00
O554   O     0.87012   0.92286   0.21361   0.00000  Uiso   1.00
Zn555  Zn    0.86005   0.80661   0.28734   0.00000  Uiso   1.00
Zn556  Zn    0.80046   0.79124   0.21876   0.00000  Uiso   1.00
Zn557  Zn    0.87723   0.86442   0.20657   0.00000  Uiso   1.00
Zn558  Zn    0.79560   0.87106   0.28734   0.00000  Uiso   1.00
C559   C     0.05299   0.16017   0.76010   0.00000  Uiso   1.00
C560   C     0.17900   0.16583   0.55673   0.00000  Uiso   1.00
C561   C     0.19746   0.09780   0.56348   0.00000  Uiso   1.00
C562   C     0.28055   0.17369   0.74054   0.00000  Uiso   1.00
C563   C     0.14054   0.19239   0.92048   0.00000  Uiso   1.00
C564   C     0.32600   0.17398   0.73646   0.00000  Uiso   1.00
C565   C     0.00767   0.15859   0.76730   0.00000  Uiso   1.00
C566   C     0.17749   0.32190   0.73666   0.00000  Uiso   1.00
C567   C     0.15218   0.01304   0.76720   0.00000  Uiso   1.00
C568   C     0.15670   0.05614   0.76021   0.00000  Uiso   1.00
C569   C     0.17626   0.27783   0.74065   0.00000  Uiso   1.00
C570   C     0.12133   0.24099   0.98581   0.00000  Uiso   1.00
C571   C     0.18515   0.14797   0.62947   0.00000  Uiso   1.00
C572   C     0.14800   0.18414   0.87122   0.00000  Uiso   1.00
C573   C     0.19089   0.08432   0.52137   0.00000  Uiso   1.00
C574   C     0.19122   0.13846   0.58134   0.00000  Uiso   1.00
C575   C     0.12789   0.23106   0.93990   0.00000  Uiso   1.00
C576   C     0.31561   0.14895   0.81311   0.00000  Uiso   1.00
C577   C     0.12738   0.00176   0.81258   0.00000  Uiso   1.00
C578   C     0.11134   0.22181   0.56243   0.00000  Uiso   1.00
C579   C     0.12968   0.21366   0.51344   0.00000  Uiso   1.00
C580   C     0.14849   0.17664   0.99350   0.00000  Uiso   1.00
C581   C     0.14828   0.16379   0.94799   0.00000  Uiso   1.00
C582   C     0.16701   0.15143   0.51659   0.00000  Uiso   1.00
C583   C     0.17532   0.11059   0.99799   0.00000  Uiso   1.00
C584   C     0.16736   0.09606   0.95661   0.00000  Uiso   1.00
C585   C     0.15451   0.12233   0.93171   0.00000  Uiso   1.00
H586   H     0.20605   0.07613   0.58289   0.00000  Uiso   1.00
H587   H     0.27285   0.16668   0.86990   0.00000  Uiso   1.00
H588   H     0.12655   0.31113   0.87016   0.00000  Uiso   1.00
H589   H     0.09824   0.26417   0.61554   0.00000  Uiso   1.00
H590   H     0.19871   0.00134   0.70679   0.00000  Uiso   1.00
H591   H     0.17210   0.06448   0.94287   0.00000  Uiso   1.00
H592   H     0.19633   0.05282   0.50787   0.00000  Uiso   1.00
H593   H     0.17725   0.19761   0.57055   0.00000  Uiso   1.00
H594   H     0.12179   0.25345   0.91964   0.00000  Uiso   1.00
H595   H     0.10806   0.26971   0.50004   0.00000  Uiso   1.00
H596   H     0.14822   0.10903   0.90021   0.00000  Uiso   1.00
H597   H     0.01470   0.18541   0.70632   0.00000  Uiso   1.00
O598   O     0.16667   0.16667   0.75000   0.00000  Uiso   1.00
O599   O     0.15451   0.12637   0.65459   0.00000  Uiso   1.00
O600   O     0.12940   0.20391   0.84968   0.00000  Uiso   1.00
O601   O     0.20824   0.17759   0.64606   0.00000  Uiso   1.00
O602   O     0.17451   0.15880   0.84968   0.00000  Uiso   1.00
O603   O     0.32084   0.11780   0.82875   0.00000  Uiso   1.00
O604   O     0.28785   0.17659   0.83927   0.00000  Uiso   1.00
O605   O     0.09103   0.01132   0.82719   0.00000  Uiso   1.00
O606   O     0.14644   0.31616   0.83964   0.00000  Uiso   1.00
O607   O     0.09428   0.19310   0.58534   0.00000  Uiso   1.00
O608   O     0.11205   0.26256   0.58208   0.00000  Uiso   1.00
O609   O     0.17930   0.08019   0.78214   0.00000  Uiso   1.00
O610   O     0.14632   0.26085   0.77014   0.00000  Uiso   1.00
O611   O     0.07412   0.13291   0.73413   0.00000  Uiso   1.00
O612   O     0.26693   0.19272   0.71361   0.00000  Uiso   1.00
O613   O     0.07071   0.18878   0.78213   0.00000  Uiso   1.00
O614   O     0.25491   0.15226   0.77014   0.00000  Uiso   1.00
O615   O     0.13760   0.06944   0.73413   0.00000  Uiso   1.00
O616   O     0.20345   0.25620   0.71361   0.00000  Uiso   1.00
Zn617  Zn    0.19338   0.13994   0.78734   0.00000  Uiso   1.00
Zn618  Zn    0.13379   0.12458   0.71876   0.00000  Uiso   1.00
Zn619  Zn    0.21056   0.19775   0.70657   0.00000  Uiso   1.00
Zn620  Zn    0.12893   0.20439   0.78734   0.00000  Uiso   1.00
C621   C     0.38632   0.16017   0.76010   0.00000  Uiso   1.00
C622   C     0.51233   0.16583   0.55673   0.00000  Uiso   1.00
C623   C     0.53080   0.09780   0.56348   0.00000  Uiso   1.00
C624   C     0.61388   0.17369   0.74054   0.00000  Uiso   1.00
C625   C     0.47388   0.19239   0.92048   0.00000  Uiso   1.00
C626   C     0.65933   0.17398   0.73646   0.00000  Uiso   1.00
C627   C     0.34100   0.15859   0.76730   0.00000  Uiso   1.00
C628   C     0.51083   0.32190   0.73666   0.00000  Uiso   1.00
C629   C     0.48552   0.01304   0.76720   0.00000  Uiso   1.00
C630   C     0.49004   0.05614   0.76021   0.00000  Uiso   1.00
C631   C     0.50959   0.27783   0.74065   0.00000  Uiso   1.00
C632   C     0.45466   0.24099   0.98581   0.00000  Uiso   1.00
C633   C     0.51848   0.14797   0.62947   0.00000  Uiso   1.00
C634   C     0.48133   0.18414   0.87122   0.00000  Uiso   1.00
C635   C     0.52422   0.08432   0.52137   0.00000  Uiso   1.00
C636   C     0.52456   0.13846   0.58134   0.00000  Uiso   1.00
C637   C     0.46122   0.23106   0.93990   0.00000  Uiso   1.00
C638   C     0.64894   0.14895   0.81311   0.00000  Uiso   1.00
C639   C     0.46071   0.00176   0.81258   0.00000  Uiso   1.00
C640   C     0.44468   0.22181   0.56243   0.00000  Uiso   1.00
C641   C     0.46301   0.21366   0.51344   0.00000  Uiso   1.00
C642   C     0.48183   0.17664   0.99350   0.00000  Uiso   1.00
C643   C     0.48161   0.16379   0.94799   0.00000  Uiso   1.00
C644   C     0.50035   0.15143   0.51659   0.00000  Uiso   1.00
C645   C     0.50865   0.11059   0.99799   0.00000  Uiso   1.00
C646   C     0.50070   0.09606   0.95661   0.00000  Uiso   1.00
C647   C     0.48785   0.12233   0.93171   0.00000  Uiso   1.00
H648   H     0.53939   0.07613   0.58289   0.00000  Uiso   1.00
H649   H     0.60618   0.16668   0.86990   0.00000  Uiso   1.00
H650   H     0.45989   0.31113   0.87016   0.00000  Uiso   1.00
H651   H     0.43158   0.26417   0.61554   0.00000  Uiso   1.00
H652   H     0.53205   0.00134   0.70679   0.00000  Uiso   1.00
H653   H     0.50543   0.06448   0.94287   0.00000  Uiso   1.00
H654   H     0.52966   0.05282   0.50787   0.00000  Uiso   1.00
H655   H     0.51059   0.19761   0.57055   0.00000  Uiso   1.00
H656   H     0.45512   0.25345   0.91964   0.00000  Uiso   1.00
H657   H     0.44139   0.26971   0.50004   0.00000  Uiso   1.00
H658   H     0.48155   0.10903   0.90021   0.00000  Uiso   1.00
H659   H     0.34803   0.18541   0.70632   0.00000  Uiso   1.00
O660   O     0.50000   0.16667   0.75000   0.00000  Uiso   1.00
O661   O     0.48784   0.12637   0.65459   0.00000  Uiso   1.00
O662   O     0.46274   0.20391   0.84968   0.00000  Uiso   1.00
O663   O     0.54157   0.17759   0.64606   0.00000  Uiso   1.00
O664   O     0.50785   0.15880   0.84968   0.00000  Uiso   1.00
O665   O     0.65418   0.11780   0.82875   0.00000  Uiso   1.00
O666   O     0.62118   0.17659   0.83927   0.00000  Uiso   1.00
O667   O     0.42436   0.01132   0.82719   0.00000  Uiso   1.00
O668   O     0.47977   0.31616   0.83964   0.00000  Uiso   1.00
O669   O     0.42762   0.19310   0.58534   0.00000  Uiso   1.00
O670   O     0.44539   0.26256   0.58208   0.00000  Uiso   1.00
O671   O     0.51264   0.08019   0.78214   0.00000  Uiso   1.00
O672   O     0.47965   0.26085   0.77014   0.00000  Uiso   1.00
O673   O     0.40745   0.13291   0.73413   0.00000  Uiso   1.00
O674   O     0.60026   0.19272   0.71361   0.00000  Uiso   1.00
O675   O     0.40405   0.18878   0.78213   0.00000  Uiso   1.00
O676   O     0.58824   0.15226   0.77014   0.00000  Uiso   1.00
O677   O     0.47093   0.06944   0.73413   0.00000  Uiso   1.00
O678   O     0.53678   0.25620   0.71361   0.00000  Uiso   1.00
Zn679  Zn    0.52672   0.13994   0.78734   0.00000  Uiso   1.00
Zn680  Zn    0.46713   0.12458   0.71876   0.00000  Uiso   1.00
Zn681  Zn    0.54389   0.19775   0.70657   0.00000  Uiso   1.00
Zn682  Zn    0.46226   0.20439   0.78734   0.00000  Uiso   1.00
C683   C     0.71965   0.16017   0.76010   0.00000  Uiso   1.00
C684   C     0.84566   0.16583   0.55673   0.00000  Uiso   1.00
C685   C     0.86413   0.09780   0.56348   0.00000  Uiso   1.00
C686   C     0.94722   0.17369   0.74054   0.00000  Uiso   1.00
C687   C     0.80721   0.19239   0.92048   0.00000  Uiso   1.00
C688   C     0.99266   0.17398   0.73646   0.00000  Uiso   1.00
C689   C     0.67433   0.15859   0.76730   0.00000  Uiso   1.00
C690   C     0.84416   0.32190   0.73666   0.00000  Uiso   1.00
C691   C     0.81885   0.01304   0.76720   0.00000  Uiso   1.00
C692   C     0.82337   0.05614   0.76021   0.00000  Uiso   1.00
C693   C     0.84293   0.27783   0.74065   0.00000  Uiso   1.00
C694   C     0.78800   0.24099   0.98581   0.00000  Uiso   1.00
C695   C     0.85181   0.14797   0.62947   0.00000  Uiso   1.00
C696   C     0.81467   0.18414   0.87122   0.00000  Uiso   1.00
C697   C     0.85755   0.08432   0.52137   0.00000  Uiso   1.00
C698   C     0.85789   0.13846   0.58134   0.00000  Uiso   1.00
C699   C     0.79456   0.23106   0.93990   0.00000  Uiso   1.00
C700   C     0.98228   0.14895   0.81311   0.00000  Uiso   1.00
C701   C     0.79404   0.00176   0.81258   0.00000  Uiso   1.00
C702   C     0.77801   0.22181   0.56243   0.00000  Uiso   1.00
C703   C     0.79635   0.21366   0.51344   0.00000  Uiso   1.00
C704   C     0.81516   0.17664   0.99350   0.00000  Uiso   1.00
C705   C     0.81495   0.16379   0.94799   0.00000  Uiso   1.00
C706   C     0.83368   0.15143   0.51659   0.00000  Uiso   1.00
C707   C     0.84198   0.11059   0.99799   0.00000  Uiso   1.00
C708   C     0.83403   0.09606   0.95661   0.00000  Uiso   1.00
C709   C     0.82118   0.12233   0.93171   0.00000  Uiso   1.00
H710   H     0.87272   0.07613   0.58289   0.00000  Uiso   1.00
H711   H     0.93951   0.16668   0.86990   0.00000  Uiso   1.00
H712   H     0.79322   0.31113   0.87016   0.00000  Uiso   1.00
H713   H     0.76491   0.26417   0.61554   0.00000  Uiso   1.00
H714   H     0.86538   0.00134   0.70679   0.00000  Uiso   1.00
H715   H     0.83877   0.06448   0.94287   0.00000  Uiso   1.00
H716   H     0.86299   0.05282   0.50787   0.00000  Uiso   1.00
H717   H     0.84392   0.19761   0.57055   0.00000  Uiso   1.00
H718   H     0.78845   0.25345   0.91964   0.00000  Uiso   1.00
H719   H     0.77472   0.26971   0.50004   0.00000  Uiso   1.00
H720   H     0.81489   0.10903   0.90021   0.00000  Uiso   1.00
H721   H     0.68137   0.18541   0.70632   0.00000  Uiso   1.00
O722   O     0.83333   0.16667   0.75000   0.00000  Uiso   1.00
O723   O     0.82118   0.12637   0.65459   0.00000  Uiso   1.00
O724   O     0.79607   0.20391   0.84968   0.00000  Uiso   1.00
O725   O     0.87491   0.17759   0.64606   0.00000  Uiso   1.00
O726   O     0.84118   0.15880   0.84968   0.00000  Uiso   1.00
O727   O     0.98751   0.11780   0.82875   0.00000  Uiso   1.00
O728   O     0.95451   0.17659   0.83927   0.00000  Uiso   1.00
O729   O     0.75769   0.01132   0.82719   0.00000  Uiso   1.00
O730   O     0.81310   0.31616   0.83964   0.00000  Uiso   1.00
O731   O     0.76095   0.19310   0.58534   0.00000  Uiso   1.00
O732   O     0.77872   0.26256   0.58208   0.00000  Uiso   1.00
O733   O     0.84597   0.08019   0.78214   0.00000  Uiso   1.00
O734   O     0.81298   0.26085   0.77014   0.00000  Uiso   1.00
O735   O     0.74078   0.13291   0.73413   0.00000  Uiso   1.00
O736   O     0.93360   0.19272   0.71361   0.00000  Uiso   1.00
O737   O     0.73738   0.18878   0.78213   0.00000  Uiso   1.00
O738   O     0.92158   0.15226   0.77014   0.00000  Uiso   1.00
O739   O     0.80426   0.06944   0.73413   0.00000  Uiso   1.00
O740   O     0.87012   0.25620   0.71361   0.00000  Uiso   1.00
Zn741  Zn    0.86005   0.13994   0.78734   0.00000  Uiso   1.00
Zn742  Zn    0.80046   0.12458   0.71876   0.00000  Uiso   1.00
Zn743  Zn    0.87723   0.19775   0.70657   0.00000  Uiso   1.00
Zn744  Zn    0.79560   0.20439   0.78734   0.00000  Uiso   1.00
C745   C     0.05299   0.49350   0.76010   0.00000  Uiso   1.00
C746   C     0.17900   0.49916   0.55673   0.00000  Uiso   1.00
C747   C     0.19746   0.43114   0.56348   0.00000  Uiso   1.00
C748   C     0.28055   0.50702   0.74054   0.00000  Uiso   1.00
C749   C     0.14054   0.52572   0.92048   0.00000  Uiso   1.00
C750   C     0.32600   0.50731   0.73646   0.00000  Uiso   1.00
C751   C     0.00767   0.49192   0.76730   0.00000  Uiso   1.00
C752   C     0.17749   0.65523   0.73666   0.00000  Uiso   1.00
C753   C     0.15218   0.34637   0.76720   0.00000  Uiso   1.00
C754   C     0.15670   0.38948   0.76021   0.00000  Uiso   1.00
C755   C     0.17626   0.61117   0.74065   0.00000  Uiso   1.00
C756   C     0.12133   0.57432   0.98581   0.00000  Uiso   1.00
C757   C     0.18515   0.48130   0.62947   0.00000  Uiso   1.00
C758   C     0.14800   0.51747   0.87122   0.00000  Uiso   1.00
C759   C     0.19089   0.41765   0.52137   0.00000  Uiso   1.00
C760   C     0.19122   0.47179   0.58134   0.00000  Uiso   1.00
C761   C     0.12789   0.56439   0.93990   0.00000  Uiso   1.00
C762   C     0.31561   0.48228   0.81311   0.00000  Uiso   1.00
C763   C     0.12738   0.33509   0.81258   0.00000  Uiso   1.00
C764   C     0.11134   0.55515   0.56243   0.00000  Uiso   1.00
C765   C     0.12968   0.54699   0.51344   0.00000  Uiso   1.00
C766   C     0.14849   0.50997   0.99350   0.00000  Uiso   1.00
C767   C     0.14828   0.49713   0.94799   0.00000  Uiso   1.00
C768   C     0.16701   0.48477   0.51659   0.00000  Uiso   1.00
C769   C     0.17532   0.44392   0.99799   0.00000  Uiso   1.00
C770   C     0.16736   0.42940   0.95661   0.00000  Uiso   1.00
C771   C     0.15451   0.45566   0.93171   0.00000  Uiso   1.00
H772   H     0.20605   0.40946   0.58289   0.00000  Uiso   1.00
H773   H     0.27285   0.50001   0.86990   0.00000  Uiso   1.00
H774   H     0.12655   0.64446   0.87016   0.00000  Uiso   1.00
H775   H     0.09824   0.59751   0.61554   0.00000  Uiso   1.00
H776   H     0.19871   0.33467   0.70679   0.00000  Uiso   1.00
H777   H     0.17210   0.39781   0.94287   0.00000  Uiso   1.00
H778   H     0.19633   0.38616   0.50787   0.00000  Uiso   1.00
H779   H     0.17725   0.53094   0.57055   0.00000  Uiso   1.00
H780   H     0.12179   0.58678   0.91964   0.00000  Uiso   1.00
H781   H     0.10806   0.60304   0.50004   0.00000  Uiso   1.00
H782   H     0.14822   0.44236   0.90021   0.00000  Uiso   1.00
H783   H     0.01470   0.51874   0.70632   0.00000  Uiso   1.00
O784   O     0.16667   0.50000   0.75000   0.00000  Uiso   1.00
O785   O     0.15451   0.45970   0.65459   0.00000  Uiso   1.00
O786   O     0.12940   0.53724   0.84968   0.00000  Uiso   1.00
O787   O     0.20824   0.51092   0.64606   0.00000  Uiso   1.00
O788   O     0.17451   0.49213   0.84968   0.00000  Uiso   1.00
O789   O     0.32084   0.45114   0.82875   0.00000  Uiso   1.00
O790   O     0.28785   0.50993   0.83927   0.00000  Uiso   1.00
O791   O     0.09103   0.34465   0.82719   0.00000  Uiso   1.00
O792   O     0.14644   0.64949   0.83964   0.00000  Uiso   1.00
O793   O     0.09428   0.52644   0.58534   0.00000  Uiso   1.00
O794   O     0.11205   0.59590   0.58208   0.00000  Uiso   1.00
O795   O     0.17930   0.41352   0.78214   0.00000  Uiso   1.00
O796   O     0.14632   0.59418   0.77014   0.00000  Uiso   1.00
O797   O     0.07412   0.46625   0.73413   0.00000  Uiso   1.00
O798   O     0.26693   0.52605   0.71361   0.00000  Uiso   1.00
O799   O     0.07071   0.52211   0.78213   0.00000  Uiso   1.00
O800   O     0.25491   0.48559   0.77014   0.00000  Uiso   1.00
O801   O     0.13760   0.40277   0.73413   0.00000  Uiso   1.00
O802   O     0.20345   0.58953   0.71361   0.00000  Uiso   1.00
Zn803  Zn    0.19338   0.47327   0.78734   0.00000  Uiso   1.00
Zn804  Zn    0.13379   0.45791   0.71876   0.00000  Uiso   1.00
Zn805  Zn    0.21056   0.53109   0.70657   0.00000  Uiso   1.00
Zn806  Zn    0.12893   0.53773   0.78734   0.00000  Uiso   1.00
C807   C     0.38632   0.49350   0.76010   0.00000  Uiso   1.00
C808   C     0.51233   0.49916   0.55673   0.00000  Uiso   1.00
C809   C     0.53080   0.43114   0.56348   0.00000  Uiso   1.00
C810   C     0.61388   0.50702   0.74054   0.00000  Uiso   1.00
C811   C     0.47388   0.52572   0.92048   0.00000  Uiso   1.00
C812   C     0.65933   0.50731   0.73646   0.00000  Uiso   1.00
C813   C     0.34100   0.49192   0.76730   0.00000  Uiso   1.00
C814   C     0.51083   0.65523   0.73666   0.00000  Uiso   1.00
C815   C     0.48552   0.34637   0.76720   0.00000  Uiso   1.00
C816   C     0.49004   0.38948   0.76021   0.00000  Uiso   1.00
C817   C     0.50959   0.61117   0.74065   0.00000  Uiso   1.00
C818   C     0.45466   0.57432   0.98581   0.00000  Uiso   1.00
C819   C     0.51848   0.48130   0.62947   0.00000  Uiso   1.00
C820   C     0.48133   0.51747   0.87122   0.00000  Uiso   1.00
C821   C     0.52422   0.41765   0.52137   0.00000  Uiso   1.00
C822   C     0.52456   0.47179   0.58134   0.00000  Uiso   1.00
C823   C     0.46122   0.56439   0.93990   0.00000  Uiso   1.00
C824   C     0.64894   0.48228   0.81311   0.00000  Uiso   1.00
C825   C     0.46071   0.33509   0.81258   0.00000  Uiso   1.00
C826   C     0.44468   0.55515   0.56243   0.00000  Uiso   1.00
C827   C     0.46301   0.54699   0.51344   0.00000  Uiso   1.00
C828   C     0.48183   0.50997   0.99350   0.00000  Uiso   1.00
C829   C     0.48161   0.49713   0.94799   0.00000  Uiso   1.00
C830   C     0.50035   0.48477   0.51659   0.00000  Uiso   1.00
C831   C     0.50865   0.44392   0.99799   0.00000  Uiso   1.00
C832   C     0.50070   0.42940   0.95661   0.00000  Uiso   1.00
C833   C     0.48785   0.45566   0.93171   0.00000  Uiso   1.00
H834   H     0.53939   0.40946   0.58289   0.00000  Uiso   1.00
H835   H     0.60618   0.50001   0.86990   0.00000  Uiso   1.00
H836   H     0.45989   0.64446   0.87016   0.00000  Uiso   1.00
H837   H     0.43158   0.59751   0.61554   0.00000  Uiso   1.00
H838   H     0.53205   0.33467   0.70679   0.00000  Uiso   1.00
H839   H     0.50543   0.39781   0.94287   0.00000  Uiso   1.00
H840   H     0.52966   0.38616   0.50787   0.00000  Uiso   1.00
H841   H     0.51059   0.53094   0.57055   0.00000  Uiso   1.00
H842   H     0.45512   0.58678   0.91964   0.00000  Uiso   1.00
H843   H     0.44139   0.60304   0.50004   0.00000  Uiso   1.00
H844   H     0.48155   0.44236   0.90021   0.00000  Uiso   1.00
H845   H     0.34803   0.51874   0.70632   0.00000  Uiso   1.00
O846   O     0.50000   0.50000   0.75000   0.00000  Uiso   1.00
O847   O     0.48784   0.45970   0.65459   0.00000  Uiso   1.00
O848   O     0.46274   0.53724   0.84968   0.00000  Uiso   1.00
O849   O     0.54157   0.51092   0.64606   0.00000  Uiso   1.00
O850   O     0.50785   0.49213   0.84968   0.00000  Uiso   1.00
O851   O     0.65418   0.45114   0.82875   0.00000  Uiso   1.00
O852   O     0.62118   0.50993   0.83927   0.00000  Uiso   1.00
O853   O     0.42436   0.34465   0.82719   0.00000  Uiso   1.00
O854   O     0.47977   0.64949   0.83964   0.00000  Uiso   1.00
O855   O     0.42762   0.52644   0.58534   0.00000  Uiso   1.00
O856   O     0.44539   0.59590   0.58208   0.00000  Uiso   1.00
O857   O     0.51264   0.41352   0.78214   0.00000  Uiso   1.00
O858   O     0.47965   0.59418   0.77014   0.00000  Uiso   1.00
O859   O     0.40745   0.46625   0.73413   0.00000  Uiso   1.00
O860   O     0.60026   0.52605   0.71361   0.00000  Uiso   1.00
O861   O     0.40405   0.52211   0.78213   0.00000  Uiso   1.00
O862   O     0.58824   0.48559   0.77014   0.00000  Uiso   1.00
O863   O     0.47093   0.40277   0.73413   0.00000  Uiso   1.00
O864   O     0.53678   0.58953   0.71361   0.00000  Uiso   1.00
Zn865  Zn    0.52672   0.47327   0.78734   0.00000  Uiso   1.00
Zn866  Zn    0.46713   0.45791   0.71876   0.00000  Uiso   1.00
Zn867  Zn    0.54389   0.53109   0.70657   0.00000  Uiso   1.00
Zn868  Zn    0.46226   0.53773   0.78734   0.00000  Uiso   1.00
C869   C     0.71965   0.49350   0.76010   0.00000  Uiso   1.00
C870   C     0.84566   0.49916   0.55673   0.00000  Uiso   1.00
C871   C     0.86413   0.43114   0.56348   0.00000  Uiso   1.00
C872   C     0.94722   0.50702   0.74054   0.00000  Uiso   1.00
C873   C     0.80721   0.52572   0.92048   0.00000  Uiso   1.00
C874   C     0.99266   0.50731   0.73646   0.00000  Uiso   1.00
C875   C     0.67433   0.49192   0.76730   0.00000  Uiso   1.00
C876   C     0.84416   0.65523   0.73666   0.00000  Uiso   1.00
C877   C     0.81885   0.34637   0.76720   0.00000  Uiso   1.00
C878   C     0.82337   0.38948   0.76021   0.00000  Uiso   1.00
C879   C     0.84293   0.61117   0.74065   0.00000  Uiso   1.00
C880   C     0.78800   0.57432   0.98581   0.00000  Uiso   1.00
C881   C     0.85181   0.48130   0.62947   0.00000  Uiso   1.00
C882   C     0.81467   0.51747   0.87122   0.00000  Uiso   1.00
C883   C     0.85755   0.41765   0.52137   0.00000  Uiso   1.00
C884   C     0.85789   0.47179   0.58134   0.00000  Uiso   1.00
C885   C     0.79456   0.56439   0.93990   0.00000  Uiso   1.00
C886   C     0.98228   0.48228   0.81311   0.00000  Uiso   1.00
C887   C     0.79404   0.33509   0.81258   0.00000  Uiso   1.00
C888   C     0.77801   0.55515   0.56243   0.00000  Uiso   1.00
C889   C     0.79635   0.54699   0.51344   0.00000  Uiso   1.00
C890   C     0.81516   0.50997   0.99350   0.00000  Uiso   1.00
C891   C     0.81495   0.49713   0.94799   0.00000  Uiso   1.00
C892   C     0.83368   0.48477   0.51659   0.00000  Uiso   1.00
C893   C     0.84198   0.44392   0.99799   0.00000  Uiso   1.00
C894   C     0.83403   0.42940   0.95661   0.00000  Uiso   1.00
C895   C     0.82118   0.45566   0.93171   0.00000  Uiso   1.00
H896   H     0.87272   0.40946   0.58289   0.00000  Uiso   1.00
H897   H     0.93951   0.50001   0.86990   0.00000  Uiso   1.00
H898   H     0.79322   0.64446   0.87016   0.00000  Uiso   1.00
H899   H     0.76491   0.59751   0.61554   0.00000  Uiso   1.00
H900   H     0.86538   0.33467   0.70679   0.00000  Uiso   1.00
H901   H     0.83877   0.39781   0.94287   0.00000  Uiso   1.00
H902   H     0.86299   0.38616   0.50787   0.00000  Uiso   1.00
H903   H     0.84392   0.53094   0.57055   0.00000  Uiso   1.00
H904   H     0.78845   0.58678   0.91964   0.00000  Uiso   1.00
H905   H     0.77472   0.60304   0.50004   0.00000  Uiso   1.00
H906   H     0.81489   0.44236   0.90021   0.00000  Uiso   1.00
H907   H     0.68137   0.51874   0.70632   0.00000  Uiso   1.00
O908   O     0.83333   0.50000   0.75000   0.00000  Uiso   1.00
O909   O     0.82118   0.45970   0.65459   0.00000  Uiso   1.00
O910   O     0.79607   0.53724   0.84968   0.00000  Uiso   1.00
O911   O     0.87491   0.51092   0.64606   0.00000  Uiso   1.00
O912   O     0.84118   0.49213   0.84968   0.00000  Uiso   1.00
O913   O     0.98751   0.45114   0.82875   0.00000  Uiso   1.00
O914   O     0.95451   0.50993   0.83927   0.00000  Uiso   1.00
O915   O     0.75769   0.34465   0.82719   0.00000  Uiso   1.00
O916   O     0.81310   0.64949   0.83964   0.00000  Uiso   1.00
O917   O     0.76095   0.52644   0.58534   0.00000  Uiso   1.00
O918   O     0.77872   0.59590   0.58208   0.00000  Uiso   1.00
O919   O     0.84597   0.41352   0.78214   0.00000  Uiso   1.00
O920   O     0.81298   0.59418   0.77014   0.00000  Uiso   1.00
O921   O     0.74078   0.46625   0.73413   0.00000  Uiso   1.00
O922   O     0.93360   0.52605   0.71361   0.00000  Uiso   1.00
O923   O     0.73738   0.52211   0.78213   0.00000  Uiso   1.00
O924   O     0.92158   0.48559   0.77014   0.00000  Uiso   1.00
O925   O     0.80426   0.40277   0.73413   0.00000  Uiso   1.00
O926   O     0.87012   0.58953   0.71361   0.00000  Uiso   1.00
Zn927  Zn    0.86005   0.47327   0.78734   0.00000  Uiso   1.00
Zn928  Zn    0.80046   0.45791   0.71876   0.00000  Uiso   1.00
Zn929  Zn    0.87723   0.53109   0.70657   0.00000  Uiso   1.00
Zn930  Zn    0.79560   0.53773   0.78734   0.00000  Uiso   1.00
C931   C     0.05299   0.82683   0.76010   0.00000  Uiso   1.00
C932   C     0.17900   0.83249   0.55673   0.00000  Uiso   1.00
C933   C     0.19746   0.76447   0.56348   0.00000  Uiso   1.00
C934   C     0.28055   0.84036   0.74054   0.00000  Uiso   1.00
C935   C     0.14054   0.85905   0.92048   0.00000  Uiso   1.00
C936   C     0.32600   0.84065   0.73646   0.00000  Uiso   1.00
C937   C     0.00767   0.82526   0.76730   0.00000  Uiso   1.00
C938   C     0.17749   0.98856   0.73666   0.00000  Uiso   1.00
C939   C     0.15218   0.67971   0.76720   0.00000  Uiso   1.00
C940   C     0.15670   0.72281   0.76021   0.00000  Uiso   1.00
C941   C     0.17626   0.94450   0.74065   0.00000  Uiso   1.00
C942   C     0.12133   0.90766   0.98581   0.00000  Uiso   1.00
C943   C     0.18515   0.81464   0.62947   0.00000  Uiso   1.00
C944   C     0.14800   0.85080   0.87122   0.00000  Uiso   1.00
C945   C     0.19089   0.75098   0.52137   0.00000  Uiso   1.00
C946   C     0.19122   0.80513   0.58134   0.00000  Uiso   1.00
C947   C     0.12789   0.89773   0.93990   0.00000  Uiso   1.00
C948   C     0.31561   0.81561   0.81311   0.00000  Uiso   1.00
C949   C     0.12738   0.66842   0.81258   0.00000  Uiso   1.00
C950   C     0.11134   0.88848   0.56243   0.00000  Uiso   1.00
C951   C     0.12968   0.88032   0.51344   0.00000  Uiso   1.00
C952   C     0.14849   0.84330   0.99350   0.00000  Uiso   1.00
C953   C     0.14828   0.83046   0.94799   0.00000  Uiso   1.00
C954   C     0.16701   0.81810   0.51659   0.00000  Uiso   1.00
C955   C     0.17532   0.77726   0.99799   0.00000  Uiso   1.00
C956   C     0.16736   0.76273   0.95661   0.00000  Uiso   1.00
C957   C     0.15451   0.78900   0.93171   0.00000  Uiso   1.00
H958   H     0.20605   0.74279   0.58289   0.00000  Uiso   1.00
H959   H     0.27285   0.83335   0.86990   0.00000  Uiso   1.00
H960   H     0.12655   0.97779   0.87016   0.00000  Uiso   1.00
H961   H     0.09824   0.93084   0.61554   0.00000  Uiso   1.00
H962   H     0.19871   0.66800   0.70679   0.00000  Uiso   1.00
H963   H     0.17210   0.73115   0.94287   0.00000  Uiso   1.00
H964   H     0.19633   0.71949   0.50787   0.00000  Uiso   1.00
H965   H     0.17725   0.86428   0.57055   0.00000  Uiso   1.00
H966   H     0.12179   0.92011   0.91964   0.00000  Uiso   1.00
H967   H     0.10806   0.93638   0.50004   0.00000  Uiso   1.00
H968   H     0.14822   0.77569   0.90021   0.00000  Uiso   1.00
H969   H     0.01470   0.85207   0.70632   0.00000  Uiso   1.00
O970   O     0.16667   0.83333   0.75000   0.00000  Uiso   1.00
O971   O     0.15451   0.79304   0.65459   0.00000  Uiso   1.00
O972   O     0.12940   0.87058   0.84968   0.00000  Uiso   1.00
O973   O     0.20824   0.84425   0.64606   0.00000  Uiso   1.00
O974   O     0.17451   0.82546   0.84968   0.00000  Uiso   1.00
O975   O     0.32084   0.78447   0.82875   0.00000  Uiso   1.00
O976   O     0.28785   0.84326   0.83927   0.00000  Uiso   1.00
O977   O     0.09103   0.67799   0.82719   0.00000  Uiso   1.00
O978   O     0.14644   0.98282   0.83964   0.00000  Uiso   1.00
O979   O     0.09428   0.85977   0.58534   0.00000  Uiso   1.00
O980   O     0.11205   0.92923   0.58208   0.00000  Uiso   1.00
O981   O     0.17930   0.74686   0.78214   0.00000  Uiso   1.00
O982   O     0.14632   0.92751   0.77014   0.00000  Uiso   1.00
O983   O     0.07412   0.79958   0.73413   0.00000  Uiso   1.00
O984   O     0.26693   0.85939   0.71361   0.00000  Uiso   1.00
O985   O     0.07071   0.85544   0.78213   0.00000  Uiso   1.00
O986   O     0.25491   0.81892   0.77014   0.00000  Uiso   1.00
O987   O     0.13760   0.73610   0.73413   0.00000  Uiso   1.00
O988   O     0.20345   0.92286   0.71361   0.00000  Uiso   1.00
Zn989  Zn    0.19338   0.80661   0.78734   0.00000  Uiso   1.00
Zn990  Zn    0.13379   0.79124   0.71876   0.00000  Uiso   1.00
Zn991  Zn    0.21056   0.86442   0.70657   0.00000  Uiso   1.00
Zn992  Zn    0.12893   0.87106   0.78734   0.00000  Uiso   1.00
C993   C     0.38632   0.82683   0.76010   0.00000  Uiso   1.00
C994   C     0.51233   0.83249   0.55673   0.00000  Uiso   1.00
C995   C     0.53080   0.76447   0.56348   0.00000  Uiso   1.00
C996   C     0.61388   0.84036   0.74054   0.00000  Uiso   1.00
C997   C     0.47388   0.85905   0.92048   0.00000  Uiso   1.00
C998   C     0.65933   0.84065   0.73646   0.00000  Uiso   1.00
C999   C     0.34100   0.82526   0.76730   0.00000  Uiso   1.00
C1000  C     0.51083   0.98856   0.73666   0.00000  Uiso   1.00
C1001  C     0.48552   0.67971   0.76720   0.00000  Uiso   1.00
C1002  C     0.49004   0.72281   0.76021   0.00000  Uiso   1.00
C1003  C     0.50959   0.94450   0.74065   0.00000  Uiso   1.00
C1004  C     0.45466   0.90766   0.98581   0.00000  Uiso   1.00
C1005  C     0.51848   0.81464   0.62947   0.00000  Uiso   1.00
C1006  C     0.48133   0.85080   0.87122   0.00000  Uiso   1.00
C1007  C     0.52422   0.75098   0.52137   0.00000  Uiso   1.00
C1008  C     0.52456   0.80513   0.58134   0.00000  Uiso   1.00
C1009  C     0.46122   0.89773   0.93990   0.00000  Uiso   1.00
C1010  C     0.64894   0.81561   0.81311   0.00000  Uiso   1.00
C1011  C     0.46071   0.66842   0.81258   0.00000  Uiso   1.00
C1012  C     0.44468   0.88848   0.56243   0.00000  Uiso   1.00
C1013  C     0.46301   0.88032   0.51344   0.00000  Uiso   1.00
C1014  C     0.48183   0.84330   0.99350   0.00000  Uiso   1.00
C1015  C     0.48161   0.83046   0.94799   0.00000  Uiso   1.00
C1016  C     0.50035   0.81810   0.51659   0.00000  Uiso   1.00
C1017  C     0.50865   0.77726   0.99799   0.00000  Uiso   1.00
C1018  C     0.50070   0.76273   0.95661   0.00000  Uiso   1.00
C1019  C     0.48785   0.78900   0.93171   0.00000  Uiso   1.00
H1020  H     0.53939   0.74279   0.58289   0.00000  Uiso   1.00
H1021  H     0.60618   0.83335   0.86990   0.00000  Uiso   1.00
H1022  H     0.45989   0.97779   0.87016   0.00000  Uiso   1.00
H1023  H     0.43158   0.93084   0.61554   0.00000  Uiso   1.00
H1024  H     0.53205   0.66800   0.70679   0.00000  Uiso   1.00
H1025  H     0.50543   0.73115   0.94287   0.00000  Uiso   1.00
H1026  H     0.52966   0.71949   0.50787   0.00000  Uiso   1.00
H1027  H     0.51059   0.86428   0.57055   0.00000  Uiso   1.00
H1028  H     0.45512   0.92011   0.91964   0.00000  Uiso   1.00
H1029  H     0.44139   0.93638   0.50004   0.00000  Uiso   1.00
H1030  H     0.48155   0.77569   0.90021   0.00000  Uiso   1.00
H1031  H     0.34803   0.85207   0.70632   0.00000  Uiso   1.00
O1032  O     0.50000   0.83333   0.75000   0.00000  Uiso   1.00
O1033  O     0.48784   0.79304   0.65459   0.00000  Uiso   1.00
O1034  O     0.46274   0.87058   0.84968   0.00000  Uiso   1.00
O1035  O     0.54157   0.84425   0.64606   0.00000  Uiso   1.00
O1036  O     0.50785   0.82546   0.84968   0.00000  Uiso   1.00
O1037  O     0.65418   0.78447   0.82875   0.00000  Uiso   1.00
O1038  O     0.62118   0.84326   0.83927   0.00000  Uiso   1.00
O1039  O     0.42436   0.67799   0.82719   0.00000  Uiso   1.00
O1040  O     0.47977   0.98282   0.83964   0.00000  Uiso   1.00
O1041  O     0.42762   0.85977   0.58534   0.00000  Uiso   1.00
O1042  O     0.44539   0.92923   0.58208   0.00000  Uiso   1.00
O1043  O     0.51264   0.74686   0.78214   0.00000  Uiso   1.00
O1044  O     0.47965   0.92751   0.77014   0.00000  Uiso   1.00
O1045  O     0.40745   0.79958   0.73413   0.00000  Uiso   1.00
O1046  O     0.60026   0.85939   0.71361   0.00000  Uiso   1.00
O1047  O     0.40405   0.85544   0.78213   0.00000  Uiso   1.00
O1048  O     0.58824   0.81892   0.77014   0.00000  Uiso   1.00
O1049  O     0.47093   0.73610   0.73413   0.00000  Uiso   1.00
O1050  O     0.53678   0.92286   0.71361   0.00000  Uiso   1.00
Zn1051 Zn    0.52672   0.80661   0.78734   0.00000  Uiso   1.00
Zn1052 Zn    0.46713   0.79124   0.71876   0.00000  Uiso   1.00
Zn1053 Zn    0.54389   0.86442   0.70657   0.00000  Uiso   1.00
Zn1054 Zn    0.46226   0.87106   0.78734   0.00000  Uiso   1.00
C1055  C     0.71965   0.82683   0.76010   0.00000  Uiso   1.00
C1056  C     0.84566   0.83249   0.55673   0.00000  Uiso   1.00
C1057  C     0.86413   0.76447   0.56348   0.00000  Uiso   1.00
C1058  C     0.94722   0.84036   0.74054   0.00000  Uiso   1.00
C1059  C     0.80721   0.85905   0.92048   0.00000  Uiso   1.00
C1060  C     0.99266   0.84065   0.73646   0.00000  Uiso   1.00
C1061  C     0.67433   0.82526   0.76730   0.00000  Uiso   1.00
C1062  C     0.84416   0.98856   0.73666   0.00000  Uiso   1.00
C1063  C     0.81885   0.67971   0.76720   0.00000  Uiso   1.00
C1064  C     0.82337   0.72281   0.76021   0.00000  Uiso   1.00
C1065  C     0.84293   0.94450   0.74065   0.00000  Uiso   1.00
C1066  C     0.78800   0.90766   0.98581   0.00000  Uiso   1.00
C1067  C     0.85181   0.81464   0.62947   0.00000  Uiso   1.00
C1068  C     0.81467   0.85080   0.87122   0.00000  Uiso   1.00
C1069  C     0.85755   0.75098   0.52137   0.00000  Uiso   1.00
C1070  C     0.85789   0.80513   0.58134   0.00000  Uiso   1.00
C1071  C     0.79456   0.89773   0.93990   0.00000  Uiso   1.00
C1072  C     0.98228   0.81561   0.81311   0.00000  Uiso   1.00
C1073  C     0.79404   0.66842   0.81258   0.00000  Uiso   1.00
C1074  C     0.77801   0.88848   0.56243   0.00000  Uiso   1.00
C1075  C     0.79635   0.88032   0.51344   0.00000  Uiso   1.00
C1076  C     0.81516   0.84330   0.99350   0.00000  Uiso   1.00
C1077  C     0.81495   0.83046   0.94799   0.00000  Uiso   1.00
C1078  C     0.83368   0.81810   0.51659   0.00000  Uiso   1.00
C1079  C     0.84198   0.77726   0.99799   0.00000  Uiso   1.00
C1080  C     0.83403   0.76273   0.95661   0.00000  Uiso   1.00
C1081  C     0.82118   0.78900   0.93171   0.00000  Uiso   1.00
H1082  H     0.87272   0.74279   0.58289   0.00000  Uiso   1.00
H1083  H     0.93951   0.83335   0.86990   0.00000  Uiso   1.00
H1084  H     0.79322   0.97779   0.87016   0.00000  Uiso   1.00
H1085  H     0.76491   0.93084   0.61554   0.00000  Uiso   1.00
H1086  H     0.86538   0.66800   0.70679   0.00000  Uiso   1.00
H1087  H     0.83877   0.73115   0.94287   0.00000  Uiso   1.00
H1088  H     0.86299   0.71949   0.50787   0.00000  Uiso   1.00
H1089  H     0.84392   0.86428   0.57055   0.00000  Uiso   1.00
H1090  H     0.78845   0.92011   0.91964   0.00000  Uiso   1.00
H1091  H     0.77472   0.93638   0.50004   0.00000  Uiso   1.00
H1092  H     0.81489   0.77569   0.90021   0.00000  Uiso   1.00
H1093  H     0.68137   0.85207   0.70632   0.00000  Uiso   1.00
O1094  O     0.83333   0.83333   0.75000   0.00000  Uiso   1.00
O1095  O     0.82118   0.79304   0.65459   0.00000  Uiso   1.00
O1096  O     0.79607   0.87058   0.84968   0.00000  Uiso   1.00
O1097  O     0.87491   0.84425   0.64606   0.00000  Uiso   1.00
O1098  O     0.84118   0.82546   0.84968   0.00000  Uiso   1.00
O1099  O     0.98751   0.78447   0.82875   0.00000  Uiso   1.00
O1100  O     0.95451   0.84326   0.83927   0.00000  Uiso   1.00
O1101  O     0.75769   0.67799   0.82719   0.00000  Uiso   1.00
O1102  O     0.81310   0.98282   0.83964   0.00000  Uiso   1.00
O1103  O     0.76095   0.85977   0.58534   0.00000  Uiso   1.00
O1104  O     0.77872   0.92923   0.58208   0.00000  Uiso   1.00
O1105  O     0.84597   0.74686   0.78214   0.00000  Uiso   1.00
O1106  O     0.81298   0.92751   0.77014   0.00000  Uiso   1.00
O1107  O     0.74078   0.79958   0.73413   0.00000  Uiso   1.00
O1108  O     0.93360   0.85939   0.71361   0.00000  Uiso   1.00
O1109  O     0.73738   0.85544   0.78213   0.00000  Uiso   1.00
O1110  O     0.92158   0.81892   0.77014   0.00000  Uiso   1.00
O1111  O     0.80426   0.73610   0.73413   0.00000  Uiso   1.00
O1112  O     0.87012   0.92286   0.71361   0.00000  Uiso   1.00
Zn1113 Zn    0.86005   0.80661   0.78734   0.00000  Uiso   1.00
Zn1114 Zn    0.80046   0.79124   0.71876   0.00000  Uiso   1.00
Zn1115 Zn    0.87723   0.86442   0.70657   0.00000  Uiso   1.00
Zn1116 Zn    0.79560   0.87106   0.78734   0.00000  Uiso   1.00
loop_
_geom_bond_atom_site_label_1
_geom_bond_atom_site_label_2
_geom_bond_distance
_geom_bond_site_symmetry_2
_ccdc_geom_bond_type
C1     O55     1.261   .     A
C1     O53     1.274   .     A
C1     C7      1.432   .     S
C2     H35     1.079   .     S
C2     C16     1.393   .     A
C2     C24     1.410   .     A
C3     C15     1.388   .     A
C3     H28     1.084   .     S
C3     C16     1.398   .     A
C4     O56     1.273   .     A
C4     C6      1.454   .     S
C4     O54     1.288   .     A
C5     C23     1.418   .     A
C5     C14     1.478   .     S
C5     C17     1.400   .     A
C6     C69     1.348   .     S
C6     H101    1.088   .     S
C7     C130    1.348   1_455 S
C7     C142    1.488   1_455 S
C8     C11     1.452   .     S
C8     C195    1.345   .     S
C8     H218    1.088   .     S
C9     C10     1.430   .     S
C9     C19     1.486   .     S
C9     C380    1.345   1_545 S
C10    O51     1.268   .     A
C10    O57     1.280   .     A
C11    O58     1.277   .     A
C11    O52     1.266   .     A
C12    C17     1.387   .     A
C12    C579    1.399   .     S
C12    H595    1.084   .     S
C13    O41     1.278   .     A
C13    O43     1.290   .     A
C13    C16     1.452   .     S
C14    O42     1.280   .     A
C14    O44     1.281   .     A
C15    H34     1.084   .     S
C15    C583    1.400   1_554 S
C17    H36     1.083   .     S
C18    O46     1.399   .     S
C18    O45     1.223   .     D
C18    C69     1.488   .     S
C19    O47     1.223   .     D
C19    O420    1.399   1_545 S
C20    O49     1.223   .     D
C20    C21     1.485   .     S
C20    O50     1.398   .     S
C21    C570    1.399   1_554 S
C21    C580    1.431   1_554 S
C22    C23     1.424   .     A
C22    C579    1.431   .     S
C22    C582    1.428   .     S
C23    C27     1.411   .     A
C24    C580    1.428   1_554 S
C24    C583    1.422   1_554 S
C25    C26     1.391   .     A
C25    C582    1.422   .     S
C25    C573    1.400   .     S
C26    H33     1.084   .     S
C26    C27     1.384   .     A
C27    H38     1.079   .     S
H29    O46     1.014   .     S
H30    O48     1.014   .     S
H31    O50     1.014   .     S
H32    C380    1.088   1_545 S
H37    C570    1.084   1_554 S
H39    C130    1.088   1_455 S
O40    Zn60    1.955   .     S
O40    Zn59    1.950   .     S
O40    Zn62    1.925   .     S
O40    Zn61    1.952   .     S
O41    Zn60    1.928   .     S
O42    Zn62    1.934   .     S
O43    Zn61    1.930   .     S
O44    Zn59    1.921   .     S
O48    C205    1.399   .     S
O51    Zn59    1.942   .     S
O52    Zn62    1.946   .     S
O53    Zn60    1.929   .     S
O54    Zn61    1.937   .     S
O55    Zn62    1.944   .     S
O56    Zn59    1.938   .     S
O57    Zn60    1.939   .     S
O58    Zn61    1.933   .     S
C63    O117    1.261   .     A
C63    O115    1.274   .     A
C63    C69     1.432   .     S
C64    H97     1.079   .     S
C64    C78     1.393   .     A
C64    C86     1.410   .     A
C65    C77     1.388   .     A
C65    H90     1.084   .     S
C65    C78     1.398   .     A
C66    O118    1.273   .     A
C66    C68     1.454   .     S
C66    O116    1.288   .     A
C67    C85     1.418   .     A
C67    C76     1.478   .     S
C67    C79     1.400   .     A
C68    C131    1.348   .     S
C68    H163    1.088   .     S
C70    C73     1.452   .     S
C70    C257    1.345   .     S
C70    H280    1.088   .     S
C71    C72     1.430   .     S
C71    C81     1.486   .     S
C71    C442    1.345   1_545 S
C72    O113    1.268   .     A
C72    O119    1.280   .     A
C73    O120    1.277   .     A
C73    O114    1.266   .     A
C74    C79     1.387   .     A
C74    C641    1.399   .     S
C74    H657    1.084   .     S
C75    O103    1.278   .     A
C75    O105    1.290   .     A
C75    C78     1.452   .     S
C76    O104    1.280   .     A
C76    O106    1.281   .     A
C77    H96     1.084   .     S
C77    C645    1.400   1_554 S
C79    H98     1.083   .     S
C80    O108    1.399   .     S
C80    O107    1.223   .     D
C80    C131    1.488   .     S
C81    O109    1.223   .     D
C81    O482    1.399   1_545 S
C82    O111    1.223   .     D
C82    C83     1.485   .     S
C82    O112    1.398   .     S
C83    C632    1.399   1_554 S
C83    C642    1.431   1_554 S
C84    C85     1.424   .     A
C84    C641    1.431   .     S
C84    C644    1.428   .     S
C85    C89     1.411   .     A
C86    C642    1.428   1_554 S
C86    C645    1.422   1_554 S
C87    C88     1.391   .     A
C87    C644    1.422   .     S
C87    C635    1.400   .     S
C88    H95     1.084   .     S
C88    C89     1.384   .     A
C89    H100    1.079   .     S
H91    O108    1.014   .     S
H92    O110    1.014   .     S
H93    O112    1.014   .     S
H94    C442    1.088   1_545 S
H99    C632    1.084   1_554 S
O102   Zn122   1.955   .     S
O102   Zn121   1.950   .     S
O102   Zn124   1.925   .     S
O102   Zn123   1.952   .     S
O103   Zn122   1.928   .     S
O104   Zn124   1.934   .     S
O105   Zn123   1.930   .     S
O106   Zn121   1.921   .     S
O110   C267    1.399   .     S
O113   Zn121   1.942   .     S
O114   Zn124   1.946   .     S
O115   Zn122   1.929   .     S
O116   Zn123   1.937   .     S
O117   Zn124   1.944   .     S
O118   Zn121   1.938   .     S
O119   Zn122   1.939   .     S
O120   Zn123   1.933   .     S
C125   O179    1.261   .     A
C125   O177    1.274   .     A
C125   C131    1.432   .     S
C126   H159    1.079   .     S
C126   C140    1.393   .     A
C126   C148    1.410   .     A
C127   C139    1.388   .     A
C127   H152    1.084   .     S
C127   C140    1.398   .     A
C128   O180    1.273   .     A
C128   C130    1.454   .     S
C128   O178    1.288   .     A
C129   C147    1.418   .     A
C129   C138    1.478   .     S
C129   C141    1.400   .     A
C130   C7      1.348   1_655 S
C130   H39     1.088   1_655 S
C132   C135    1.452   .     S
C132   C319    1.345   .     S
C132   H342    1.088   .     S
C133   C134    1.430   .     S
C133   C143    1.486   .     S
C133   C504    1.345   1_545 S
C134   O175    1.268   .     A
C134   O181    1.280   .     A
C135   O182    1.277   .     A
C135   O176    1.266   .     A
C136   C141    1.387   .     A
C136   C703    1.399   .     S
C136   H719    1.084   .     S
C137   O165    1.278   .     A
C137   O167    1.290   .     A
C137   C140    1.452   .     S
C138   O166    1.280   .     A
C138   O168    1.281   .     A
C139   H158    1.084   .     S
C139   C707    1.400   1_554 S
C141   H160    1.083   .     S
C142   O170    1.399   .     S
C142   O169    1.223   .     D
C142   C7      1.488   1_655 S
C143   O171    1.223   .     D
C143   O544    1.399   1_545 S
C144   O173    1.223   .     D
C144   C145    1.485   .     S
C144   O174    1.398   .     S
C145   C694    1.399   1_554 S
C145   C704    1.431   1_554 S
C146   C147    1.424   .     A
C146   C703    1.431   .     S
C146   C706    1.428   .     S
C147   C151    1.411   .     A
C148   C704    1.428   1_554 S
C148   C707    1.422   1_554 S
C149   C150    1.391   .     A
C149   C706    1.422   .     S
C149   C697    1.400   .     S
C150   H157    1.084   .     S
C150   C151    1.384   .     A
C151   H162    1.079   .     S
H153   O170    1.014   .     S
H154   O172    1.014   .     S
H155   O174    1.014   .     S
H156   C504    1.088   1_545 S
H161   C694    1.084   1_554 S
O164   Zn184   1.955   .     S
O164   Zn183   1.950   .     S
O164   Zn186   1.925   .     S
O164   Zn185   1.952   .     S
O165   Zn184   1.928   .     S
O166   Zn186   1.934   .     S
O167   Zn185   1.930   .     S
O168   Zn183   1.921   .     S
O172   C329    1.399   .     S
O175   Zn183   1.942   .     S
O176   Zn186   1.946   .     S
O177   Zn184   1.929   .     S
O178   Zn185   1.937   .     S
O179   Zn186   1.944   .     S
O180   Zn183   1.938   .     S
O181   Zn184   1.939   .     S
O182   Zn185   1.933   .     S
C187   O241    1.261   .     A
C187   O239    1.274   .     A
C187   C193    1.432   .     S
C188   H221    1.079   .     S
C188   C202    1.393   .     A
C188   C210    1.410   .     A
C189   C201    1.388   .     A
C189   H214    1.084   .     S
C189   C202    1.398   .     A
C190   O242    1.273   .     A
C190   C192    1.454   .     S
C190   O240    1.288   .     A
C191   C209    1.418   .     A
C191   C200    1.478   .     S
C191   C203    1.400   .     A
C192   C255    1.348   .     S
C192   H287    1.088   .     S
C193   C316    1.348   1_455 S
C193   C328    1.488   1_455 S
C194   C197    1.452   .     S
C194   C381    1.345   .     S
C194   H404    1.088   .     S
C195   C196    1.430   .     S
C195   C205    1.486   .     S
C196   O237    1.268   .     A
C196   O243    1.280   .     A
C197   O244    1.277   .     A
C197   O238    1.266   .     A
C198   C203    1.387   .     A
C198   C765    1.399   .     S
C198   H781    1.084   .     S
C199   O227    1.278   .     A
C199   O229    1.290   .     A
C199   C202    1.452   .     S
C200   O228    1.280   .     A
C200   O230    1.281   .     A
C201   H220    1.084   .     S
C201   C769    1.400   1_554 S
C203   H222    1.083   .     S
C204   O232    1.399   .     S
C204   O231    1.223   .     D
C204   C255    1.488   .     S
C205   O233    1.223   .     D
C206   O235    1.223   .     D
C206   C207    1.485   .     S
C206   O236    1.398   .     S
C207   C756    1.399   1_554 S
C207   C766    1.431   1_554 S
C208   C209    1.424   .     A
C208   C765    1.431   .     S
C208   C768    1.428   .     S
C209   C213    1.411   .     A
C210   C766    1.428   1_554 S
C210   C769    1.422   1_554 S
C211   C212    1.391   .     A
C211   C768    1.422   .     S
C211   C759    1.400   .     S
C212   H219    1.084   .     S
C212   C213    1.384   .     A
C213   H224    1.079   .     S
H215   O232    1.014   .     S
H216   O234    1.014   .     S
H217   O236    1.014   .     S
H223   C756    1.084   1_554 S
H225   C316    1.088   1_455 S
O226   Zn246   1.955   .     S
O226   Zn245   1.950   .     S
O226   Zn248   1.925   .     S
O226   Zn247   1.952   .     S
O227   Zn246   1.928   .     S
O228   Zn248   1.934   .     S
O229   Zn247   1.930   .     S
O230   Zn245   1.921   .     S
O234   C391    1.399   .     S
O237   Zn245   1.942   .     S
O238   Zn248   1.946   .     S
O239   Zn246   1.929   .     S
O240   Zn247   1.937   .     S
O241   Zn248   1.944   .     S
O242   Zn245   1.938   .     S
O243   Zn246   1.939   .     S
O244   Zn247   1.933   .     S
C249   O303    1.261   .     A
C249   O301    1.274   .     A
C249   C255    1.432   .     S
C250   H283    1.079   .     S
C250   C264    1.393   .     A
C250   C272    1.410   .     A
C251   C263    1.388   .     A
C251   H276    1.084   .     S
C251   C264    1.398   .     A
C252   O304    1.273   .     A
C252   C254    1.454   .     S
C252   O302    1.288   .     A
C253   C271    1.418   .     A
C253   C262    1.478   .     S
C253   C265    1.400   .     A
C254   C317    1.348   .     S
C254   H349    1.088   .     S
C256   C259    1.452   .     S
C256   C443    1.345   .     S
C256   H466    1.088   .     S
C257   C258    1.430   .     S
C257   C267    1.486   .     S
C258   O299    1.268   .     A
C258   O305    1.280   .     A
C259   O306    1.277   .     A
C259   O300    1.266   .     A
C260   C265    1.387   .     A
C260   C827    1.399   .     S
C260   H843    1.084   .     S
C261   O289    1.278   .     A
C261   O291    1.290   .     A
C261   C264    1.452   .     S
C262   O290    1.280   .     A
C262   O292    1.281   .     A
C263   H282    1.084   .     S
C263   C831    1.400   1_554 S
C265   H284    1.083   .     S
C266   O294    1.399   .     S
C266   O293    1.223   .     D
C266   C317    1.488   .     S
C267   O295    1.223   .     D
C268   O297    1.223   .     D
C268   C269    1.485   .     S
C268   O298    1.398   .     S
C269   C818    1.399   1_554 S
C269   C828    1.431   1_554 S
C270   C271    1.424   .     A
C270   C827    1.431   .     S
C270   C830    1.428   .     S
C271   C275    1.411   .     A
C272   C828    1.428   1_554 S
C272   C831    1.422   1_554 S
C273   C274    1.391   .     A
C273   C830    1.422   .     S
C273   C821    1.400   .     S
C274   H281    1.084   .     S
C274   C275    1.384   .     A
C275   H286    1.079   .     S
H277   O294    1.014   .     S
H278   O296    1.014   .     S
H279   O298    1.014   .     S
H285   C818    1.084   1_554 S
O288   Zn308   1.955   .     S
O288   Zn307   1.950   .     S
O288   Zn310   1.925   .     S
O288   Zn309   1.952   .     S
O289   Zn308   1.928   .     S
O290   Zn310   1.934   .     S
O291   Zn309   1.930   .     S
O292   Zn307   1.921   .     S
O296   C453    1.399   .     S
O299   Zn307   1.942   .     S
O300   Zn310   1.946   .     S
O301   Zn308   1.929   .     S
O302   Zn309   1.937   .     S
O303   Zn310   1.944   .     S
O304   Zn307   1.938   .     S
O305   Zn308   1.939   .     S
O306   Zn309   1.933   .     S
C311   O365    1.261   .     A
C311   O363    1.274   .     A
C311   C317    1.432   .     S
C312   H345    1.079   .     S
C312   C326    1.393   .     A
C312   C334    1.410   .     A
C313   C325    1.388   .     A
C313   H338    1.084   .     S
C313   C326    1.398   .     A
C314   O366    1.273   .     A
C314   C316    1.454   .     S
C314   O364    1.288   .     A
C315   C333    1.418   .     A
C315   C324    1.478   .     S
C315   C327    1.400   .     A
C316   C193    1.348   1_655 S
C316   H225    1.088   1_655 S
C318   C321    1.452   .     S
C318   C505    1.345   .     S
C318   H528    1.088   .     S
C319   C320    1.430   .     S
C319   C329    1.486   .     S
C320   O361    1.268   .     A
C320   O367    1.280   .     A
C321   O368    1.277   .     A
C321   O362    1.266   .     A
C322   C327    1.387   .     A
C322   C889    1.399   .     S
C322   H905    1.084   .     S
C323   O351    1.278   .     A
C323   O353    1.290   .     A
C323   C326    1.452   .     S
C324   O352    1.280   .     A
C324   O354    1.281   .     A
C325   H344    1.084   .     S
C325   C893    1.400   1_554 S
C327   H346    1.083   .     S
C328   O356    1.399   .     S
C328   O355    1.223   .     D
C328   C193    1.488   1_655 S
C329   O357    1.223   .     D
C330   O359    1.223   .     D
C330   C331    1.485   .     S
C330   O360    1.398   .     S
C331   C880    1.399   1_554 S
C331   C890    1.431   1_554 S
C332   C333    1.424   .     A
C332   C889    1.431   .     S
C332   C892    1.428   .     S
C333   C337    1.411   .     A
C334   C890    1.428   1_554 S
C334   C893    1.422   1_554 S
C335   C336    1.391   .     A
C335   C892    1.422   .     S
C335   C883    1.400   .     S
C336   H343    1.084   .     S
C336   C337    1.384   .     A
C337   H348    1.079   .     S
H339   O356    1.014   .     S
H340   O358    1.014   .     S
H341   O360    1.014   .     S
H347   C880    1.084   1_554 S
O350   Zn370   1.955   .     S
O350   Zn369   1.950   .     S
O350   Zn372   1.925   .     S
O350   Zn371   1.952   .     S
O351   Zn370   1.928   .     S
O352   Zn372   1.934   .     S
O353   Zn371   1.930   .     S
O354   Zn369   1.921   .     S
O358   C515    1.399   .     S
O361   Zn369   1.942   .     S
O362   Zn372   1.946   .     S
O363   Zn370   1.929   .     S
O364   Zn371   1.937   .     S
O365   Zn372   1.944   .     S
O366   Zn369   1.938   .     S
O367   Zn370   1.939   .     S
O368   Zn371   1.933   .     S
C373   O427    1.261   .     A
C373   O425    1.274   .     A
C373   C379    1.432   .     S
C374   H407    1.079   .     S
C374   C388    1.393   .     A
C374   C396    1.410   .     A
C375   C387    1.388   .     A
C375   H400    1.084   .     S
C375   C388    1.398   .     A
C376   O428    1.273   .     A
C376   C378    1.454   .     S
C376   O426    1.288   .     A
C377   C395    1.418   .     A
C377   C386    1.478   .     S
C377   C389    1.400   .     A
C378   C441    1.348   .     S
C378   H473    1.088   .     S
C379   C502    1.348   1_455 S
C379   C514    1.488   1_455 S
C380   C383    1.452   .     S
C380   C9      1.345   1_565 S
C380   H32     1.088   1_565 S
C381   C382    1.430   .     S
C381   C391    1.486   .     S
C382   O423    1.268   .     A
C382   O429    1.280   .     A
C383   O430    1.277   .     A
C383   O424    1.266   .     A
C384   C389    1.387   .     A
C384   C951    1.399   .     S
C384   H967    1.084   .     S
C385   O413    1.278   .     A
C385   O415    1.290   .     A
C385   C388    1.452   .     S
C386   O414    1.280   .     A
C386   O416    1.281   .     A
C387   H406    1.084   .     S
C387   C955    1.400   1_554 S
C389   H408    1.083   .     S
C390   O418    1.399   .     S
C390   O417    1.223   .     D
C390   C441    1.488   .     S
C391   O419    1.223   .     D
C392   O421    1.223   .     D
C392   C393    1.485   .     S
C392   O422    1.398   .     S
C393   C942    1.399   1_554 S
C393   C952    1.431   1_554 S
C394   C395    1.424   .     A
C394   C951    1.431   .     S
C394   C954    1.428   .     S
C395   C399    1.411   .     A
C396   C952    1.428   1_554 S
C396   C955    1.422   1_554 S
C397   C398    1.391   .     A
C397   C954    1.422   .     S
C397   C945    1.400   .     S
C398   H405    1.084   .     S
C398   C399    1.384   .     A
C399   H410    1.079   .     S
H401   O418    1.014   .     S
H402   O420    1.014   .     S
H403   O422    1.014   .     S
H409   C942    1.084   1_554 S
H411   C502    1.088   1_455 S
O412   Zn432   1.955   .     S
O412   Zn431   1.950   .     S
O412   Zn434   1.925   .     S
O412   Zn433   1.952   .     S
O413   Zn432   1.928   .     S
O414   Zn434   1.934   .     S
O415   Zn433   1.930   .     S
O416   Zn431   1.921   .     S
O420   C19     1.399   1_565 S
O423   Zn431   1.942   .     S
O424   Zn434   1.946   .     S
O425   Zn432   1.929   .     S
O426   Zn433   1.937   .     S
O427   Zn434   1.944   .     S
O428   Zn431   1.938   .     S
O429   Zn432   1.939   .     S
O430   Zn433   1.933   .     S
C435   O489    1.261   .     A
C435   O487    1.274   .     A
C435   C441    1.432   .     S
C436   H469    1.079   .     S
C436   C450    1.393   .     A
C436   C458    1.410   .     A
C437   C449    1.388   .     A
C437   H462    1.084   .     S
C437   C450    1.398   .     A
C438   O490    1.273   .     A
C438   C440    1.454   .     S
C438   O488    1.288   .     A
C439   C457    1.418   .     A
C439   C448    1.478   .     S
C439   C451    1.400   .     A
C440   C503    1.348   .     S
C440   H535    1.088   .     S
C442   C445    1.452   .     S
C442   C71     1.345   1_565 S
C442   H94     1.088   1_565 S
C443   C444    1.430   .     S
C443   C453    1.486   .     S
C444   O485    1.268   .     A
C444   O491    1.280   .     A
C445   O492    1.277   .     A
C445   O486    1.266   .     A
C446   C451    1.387   .     A
C446   C1013   1.399   .     S
C446   H1029   1.084   .     S
C447   O475    1.278   .     A
C447   O477    1.290   .     A
C447   C450    1.452   .     S
C448   O476    1.280   .     A
C448   O478    1.281   .     A
C449   H468    1.084   .     S
C449   C1017   1.400   1_554 S
C451   H470    1.083   .     S
C452   O480    1.399   .     S
C452   O479    1.223   .     D
C452   C503    1.488   .     S
C453   O481    1.223   .     D
C454   O483    1.223   .     D
C454   C455    1.485   .     S
C454   O484    1.398   .     S
C455   C1004   1.399   1_554 S
C455   C1014   1.431   1_554 S
C456   C457    1.424   .     A
C456   C1013   1.431   .     S
C456   C1016   1.428   .     S
C457   C461    1.411   .     A
C458   C1014   1.428   1_554 S
C458   C1017   1.422   1_554 S
C459   C460    1.391   .     A
C459   C1016   1.422   .     S
C459   C1007   1.400   .     S
C460   H467    1.084   .     S
C460   C461    1.384   .     A
C461   H472    1.079   .     S
H463   O480    1.014   .     S
H464   O482    1.014   .     S
H465   O484    1.014   .     S
H471   C1004   1.084   1_554 S
O474   Zn494   1.955   .     S
O474   Zn493   1.950   .     S
O474   Zn496   1.925   .     S
O474   Zn495   1.952   .     S
O475   Zn494   1.928   .     S
O476   Zn496   1.934   .     S
O477   Zn495   1.930   .     S
O478   Zn493   1.921   .     S
O482   C81     1.399   1_565 S
O485   Zn493   1.942   .     S
O486   Zn496   1.946   .     S
O487   Zn494   1.929   .     S
O488   Zn495   1.937   .     S
O489   Zn496   1.944   .     S
O490   Zn493   1.938   .     S
O491   Zn494   1.939   .     S
O492   Zn495   1.933   .     S
C497   O551    1.261   .     A
C497   O549    1.274   .     A
C497   C503    1.432   .     S
C498   H531    1.079   .     S
C498   C512    1.393   .     A
C498   C520    1.410   .     A
C499   C511    1.388   .     A
C499   H524    1.084   .     S
C499   C512    1.398   .     A
C500   O552    1.273   .     A
C500   C502    1.454   .     S
C500   O550    1.288   .     A
C501   C519    1.418   .     A
C501   C510    1.478   .     S
C501   C513    1.400   .     A
C502   C379    1.348   1_655 S
C502   H411    1.088   1_655 S
C504   C507    1.452   .     S
C504   C133    1.345   1_565 S
C504   H156    1.088   1_565 S
C505   C506    1.430   .     S
C505   C515    1.486   .     S
C506   O547    1.268   .     A
C506   O553    1.280   .     A
C507   O554    1.277   .     A
C507   O548    1.266   .     A
C508   C513    1.387   .     A
C508   C1075   1.399   .     S
C508   H1091   1.084   .     S
C509   O537    1.278   .     A
C509   O539    1.290   .     A
C509   C512    1.452   .     S
C510   O538    1.280   .     A
C510   O540    1.281   .     A
C511   H530    1.084   .     S
C511   C1079   1.400   1_554 S
C513   H532    1.083   .     S
C514   O542    1.399   .     S
C514   O541    1.223   .     D
C514   C379    1.488   1_655 S
C515   O543    1.223   .     D
C516   O545    1.223   .     D
C516   C517    1.485   .     S
C516   O546    1.398   .     S
C517   C1066   1.399   1_554 S
C517   C1076   1.431   1_554 S
C518   C519    1.424   .     A
C518   C1075   1.431   .     S
C518   C1078   1.428   .     S
C519   C523    1.411   .     A
C520   C1076   1.428   1_554 S
C520   C1079   1.422   1_554 S
C521   C522    1.391   .     A
C521   C1078   1.422   .     S
C521   C1069   1.400   .     S
C522   H529    1.084   .     S
C522   C523    1.384   .     A
C523   H534    1.079   .     S
H525   O542    1.014   .     S
H526   O544    1.014   .     S
H527   O546    1.014   .     S
H533   C1066   1.084   1_554 S
O536   Zn556   1.955   .     S
O536   Zn555   1.950   .     S
O536   Zn558   1.925   .     S
O536   Zn557   1.952   .     S
O537   Zn556   1.928   .     S
O538   Zn558   1.934   .     S
O539   Zn557   1.930   .     S
O540   Zn555   1.921   .     S
O544   C143    1.399   1_565 S
O547   Zn555   1.942   .     S
O548   Zn558   1.946   .     S
O549   Zn556   1.929   .     S
O550   Zn557   1.937   .     S
O551   Zn558   1.944   .     S
O552   Zn555   1.938   .     S
O553   Zn556   1.939   .     S
O554   Zn557   1.933   .     S
C559   O613    1.261   .     A
C559   O611    1.274   .     A
C559   C565    1.432   .     S
C560   H593    1.079   .     S
C560   C574    1.393   .     A
C560   C582    1.410   .     A
C561   C573    1.388   .     A
C561   H586    1.084   .     S
C561   C574    1.398   .     A
C562   O614    1.273   .     A
C562   C564    1.454   .     S
C562   O612    1.288   .     A
C563   C581    1.418   .     A
C563   C572    1.478   .     S
C563   C575    1.400   .     A
C564   C627    1.348   .     S
C564   H659    1.088   .     S
C565   C688    1.348   1_455 S
C565   C700    1.488   1_455 S
C566   C569    1.452   .     S
C566   C753    1.345   .     S
C566   H776    1.088   .     S
C567   C568    1.430   .     S
C567   C577    1.486   .     S
C567   C938    1.345   1_545 S
C568   O609    1.268   .     A
C568   O615    1.280   .     A
C569   O616    1.277   .     A
C569   O610    1.266   .     A
C570   C575    1.387   .     A
C570   C21     1.399   1_556 S
C570   H37     1.084   1_556 S
C571   O599    1.278   .     A
C571   O601    1.290   .     A
C571   C574    1.452   .     S
C572   O600    1.280   .     A
C572   O602    1.281   .     A
C573   H592    1.084   .     S
C575   H594    1.083   .     S
C576   O604    1.399   .     S
C576   O603    1.223   .     D
C576   C627    1.488   .     S
C577   O605    1.223   .     D
C577   O978    1.399   1_545 S
C578   O607    1.223   .     D
C578   C579    1.485   .     S
C578   O608    1.398   .     S
C580   C581    1.424   .     A
C580   C21     1.431   1_556 S
C580   C24     1.428   1_556 S
C581   C585    1.411   .     A
C583   C584    1.391   .     A
C583   C24     1.422   1_556 S
C583   C15     1.400   1_556 S
C584   H591    1.084   .     S
C584   C585    1.384   .     A
C585   H596    1.079   .     S
H587   O604    1.014   .     S
H588   O606    1.014   .     S
H589   O608    1.014   .     S
H590   C938    1.088   1_545 S
H597   C688    1.088   1_455 S
O598   Zn618   1.955   .     S
O598   Zn617   1.950   .     S
O598   Zn620   1.925   .     S
O598   Zn619   1.952   .     S
O599   Zn618   1.928   .     S
O600   Zn620   1.934   .     S
O601   Zn619   1.930   .     S
O602   Zn617   1.921   .     S
O606   C763    1.399   .     S
O609   Zn617   1.942   .     S
O610   Zn620   1.946   .     S
O611   Zn618   1.929   .     S
O612   Zn619   1.937   .     S
O613   Zn620   1.944   .     S
O614   Zn617   1.938   .     S
O615   Zn618   1.939   .     S
O616   Zn619   1.933   .     S
C621   O675    1.261   .     A
C621   O673    1.274   .     A
C621   C627    1.432   .     S
C622   H655    1.079   .     S
C622   C636    1.393   .     A
C622   C644    1.410   .     A
C623   C635    1.388   .     A
C623   H648    1.084   .     S
C623   C636    1.398   .     A
C624   O676    1.273   .     A
C624   C626    1.454   .     S
C624   O674    1.288   .     A
C625   C643    1.418   .     A
C625   C634    1.478   .     S
C625   C637    1.400   .     A
C626   C689    1.348   .     S
C626   H721    1.088   .     S
C628   C631    1.452   .     S
C628   C815    1.345   .     S
C628   H838    1.088   .     S
C629   C630    1.430   .     S
C629   C639    1.486   .     S
C629   C1000   1.345   1_545 S
C630   O671    1.268   .     A
C630   O677    1.280   .     A
C631   O678    1.277   .     A
C631   O672    1.266   .     A
C632   C637    1.387   .     A
C632   C83     1.399   1_556 S
C632   H99     1.084   1_556 S
C633   O661    1.278   .     A
C633   O663    1.290   .     A
C633   C636    1.452   .     S
C634   O662    1.280   .     A
C634   O664    1.281   .     A
C635   H654    1.084   .     S
C637   H656    1.083   .     S
C638   O666    1.399   .     S
C638   O665    1.223   .     D
C638   C689    1.488   .     S
C639   O667    1.223   .     D
C639   O1040   1.399   1_545 S
C640   O669    1.223   .     D
C640   C641    1.485   .     S
C640   O670    1.398   .     S
C642   C643    1.424   .     A
C642   C83     1.431   1_556 S
C642   C86     1.428   1_556 S
C643   C647    1.411   .     A
C645   C646    1.391   .     A
C645   C86     1.422   1_556 S
C645   C77     1.400   1_556 S
C646   H653    1.084   .     S
C646   C647    1.384   .     A
C647   H658    1.079   .     S
H649   O666    1.014   .     S
H650   O668    1.014   .     S
H651   O670    1.014   .     S
H652   C1000   1.088   1_545 S
O660   Zn680   1.955   .     S
O660   Zn679   1.950   .     S
O660   Zn682   1.925   .     S
O660   Zn681   1.952   .     S
O661   Zn680   1.928   .     S
O662   Zn682   1.934   .     S
O663   Zn681   1.930   .     S
O664   Zn679   1.921   .     S
O668   C825    1.399   .     S
O671   Zn679   1.942   .     S
O672   Zn682   1.946   .     S
O673   Zn680   1.929   .     S
O674   Zn681   1.937   .     S
O675   Zn682   1.944   .     S
O676   Zn679   1.938   .     S
O677   Zn680   1.939   .     S
O678   Zn681   1.933   .     S
C683   O737    1.261   .     A
C683   O735    1.274   .     A
C683   C689    1.432   .     S
C684   H717    1.079   .     S
C684   C698    1.393   .     A
C684   C706    1.410   .     A
C685   C697    1.388   .     A
C685   H710    1.084   .     S
C685   C698    1.398   .     A
C686   O738    1.273   .     A
C686   C688    1.454   .     S
C686   O736    1.288   .     A
C687   C705    1.418   .     A
C687   C696    1.478   .     S
C687   C699    1.400   .     A
C688   C565    1.348   1_655 S
C688   H597    1.088   1_655 S
C690   C693    1.452   .     S
C690   C877    1.345   .     S
C690   H900    1.088   .     S
C691   C692    1.430   .     S
C691   C701    1.486   .     S
C691   C1062   1.345   1_545 S
C692   O733    1.268   .     A
C692   O739    1.280   .     A
C693   O740    1.277   .     A
C693   O734    1.266   .     A
C694   C699    1.387   .     A
C694   C145    1.399   1_556 S
C694   H161    1.084   1_556 S
C695   O723    1.278   .     A
C695   O725    1.290   .     A
C695   C698    1.452   .     S
C696   O724    1.280   .     A
C696   O726    1.281   .     A
C697   H716    1.084   .     S
C699   H718    1.083   .     S
C700   O728    1.399   .     S
C700   O727    1.223   .     D
C700   C565    1.488   1_655 S
C701   O729    1.223   .     D
C701   O1102   1.399   1_545 S
C702   O731    1.223   .     D
C702   C703    1.485   .     S
C702   O732    1.398   .     S
C704   C705    1.424   .     A
C704   C145    1.431   1_556 S
C704   C148    1.428   1_556 S
C705   C709    1.411   .     A
C707   C708    1.391   .     A
C707   C148    1.422   1_556 S
C707   C139    1.400   1_556 S
C708   H715    1.084   .     S
C708   C709    1.384   .     A
C709   H720    1.079   .     S
H711   O728    1.014   .     S
H712   O730    1.014   .     S
H713   O732    1.014   .     S
H714   C1062   1.088   1_545 S
O722   Zn742   1.955   .     S
O722   Zn741   1.950   .     S
O722   Zn744   1.925   .     S
O722   Zn743   1.952   .     S
O723   Zn742   1.928   .     S
O724   Zn744   1.934   .     S
O725   Zn743   1.930   .     S
O726   Zn741   1.921   .     S
O730   C887    1.399   .     S
O733   Zn741   1.942   .     S
O734   Zn744   1.946   .     S
O735   Zn742   1.929   .     S
O736   Zn743   1.937   .     S
O737   Zn744   1.944   .     S
O738   Zn741   1.938   .     S
O739   Zn742   1.939   .     S
O740   Zn743   1.933   .     S
C745   O799    1.261   .     A
C745   O797    1.274   .     A
C745   C751    1.432   .     S
C746   H779    1.079   .     S
C746   C760    1.393   .     A
C746   C768    1.410   .     A
C747   C759    1.388   .     A
C747   H772    1.084   .     S
C747   C760    1.398   .     A
C748   O800    1.273   .     A
C748   C750    1.454   .     S
C748   O798    1.288   .     A
C749   C767    1.418   .     A
C749   C758    1.478   .     S
C749   C761    1.400   .     A
C750   C813    1.348   .     S
C750   H845    1.088   .     S
C751   C874    1.348   1_455 S
C751   C886    1.488   1_455 S
C752   C755    1.452   .     S
C752   C939    1.345   .     S
C752   H962    1.088   .     S
C753   C754    1.430   .     S
C753   C763    1.486   .     S
C754   O795    1.268   .     A
C754   O801    1.280   .     A
C755   O802    1.277   .     A
C755   O796    1.266   .     A
C756   C761    1.387   .     A
C756   C207    1.399   1_556 S
C756   H223    1.084   1_556 S
C757   O785    1.278   .     A
C757   O787    1.290   .     A
C757   C760    1.452   .     S
C758   O786    1.280   .     A
C758   O788    1.281   .     A
C759   H778    1.084   .     S
C761   H780    1.083   .     S
C762   O790    1.399   .     S
C762   O789    1.223   .     D
C762   C813    1.488   .     S
C763   O791    1.223   .     D
C764   O793    1.223   .     D
C764   C765    1.485   .     S
C764   O794    1.398   .     S
C766   C767    1.424   .     A
C766   C207    1.431   1_556 S
C766   C210    1.428   1_556 S
C767   C771    1.411   .     A
C769   C770    1.391   .     A
C769   C210    1.422   1_556 S
C769   C201    1.400   1_556 S
C770   H777    1.084   .     S
C770   C771    1.384   .     A
C771   H782    1.079   .     S
H773   O790    1.014   .     S
H774   O792    1.014   .     S
H775   O794    1.014   .     S
H783   C874    1.088   1_455 S
O784   Zn804   1.955   .     S
O784   Zn803   1.950   .     S
O784   Zn806   1.925   .     S
O784   Zn805   1.952   .     S
O785   Zn804   1.928   .     S
O786   Zn806   1.934   .     S
O787   Zn805   1.930   .     S
O788   Zn803   1.921   .     S
O792   C949    1.399   .     S
O795   Zn803   1.942   .     S
O796   Zn806   1.946   .     S
O797   Zn804   1.929   .     S
O798   Zn805   1.937   .     S
O799   Zn806   1.944   .     S
O800   Zn803   1.938   .     S
O801   Zn804   1.939   .     S
O802   Zn805   1.933   .     S
C807   O861    1.261   .     A
C807   O859    1.274   .     A
C807   C813    1.432   .     S
C808   H841    1.079   .     S
C808   C822    1.393   .     A
C808   C830    1.410   .     A
C809   C821    1.388   .     A
C809   H834    1.084   .     S
C809   C822    1.398   .     A
C810   O862    1.273   .     A
C810   C812    1.454   .     S
C810   O860    1.288   .     A
C811   C829    1.418   .     A
C811   C820    1.478   .     S
C811   C823    1.400   .     A
C812   C875    1.348   .     S
C812   H907    1.088   .     S
C814   C817    1.452   .     S
C814   C1001   1.345   .     S
C814   H1024   1.088   .     S
C815   C816    1.430   .     S
C815   C825    1.486   .     S
C816   O857    1.268   .     A
C816   O863    1.280   .     A
C817   O864    1.277   .     A
C817   O858    1.266   .     A
C818   C823    1.387   .     A
C818   C269    1.399   1_556 S
C818   H285    1.084   1_556 S
C819   O847    1.278   .     A
C819   O849    1.290   .     A
C819   C822    1.452   .     S
C820   O848    1.280   .     A
C820   O850    1.281   .     A
C821   H840    1.084   .     S
C823   H842    1.083   .     S
C824   O852    1.399   .     S
C824   O851    1.223   .     D
C824   C875    1.488   .     S
C825   O853    1.223   .     D
C826   O855    1.223   .     D
C826   C827    1.485   .     S
C826   O856    1.398   .     S
C828   C829    1.424   .     A
C828   C269    1.431   1_556 S
C828   C272    1.428   1_556 S
C829   C833    1.411   .     A
C831   C832    1.391   .     A
C831   C272    1.422   1_556 S
C831   C263    1.400   1_556 S
C832   H839    1.084   .     S
C832   C833    1.384   .     A
C833   H844    1.079   .     S
H835   O852    1.014   .     S
H836   O854    1.014   .     S
H837   O856    1.014   .     S
O846   Zn866   1.955   .     S
O846   Zn865   1.950   .     S
O846   Zn868   1.925   .     S
O846   Zn867   1.952   .     S
O847   Zn866   1.928   .     S
O848   Zn868   1.934   .     S
O849   Zn867   1.930   .     S
O850   Zn865   1.921   .     S
O854   C1011   1.399   .     S
O857   Zn865   1.942   .     S
O858   Zn868   1.946   .     S
O859   Zn866   1.929   .     S
O860   Zn867   1.937   .     S
O861   Zn868   1.944   .     S
O862   Zn865   1.938   .     S
O863   Zn866   1.939   .     S
O864   Zn867   1.933   .     S
C869   O923    1.261   .     A
C869   O921    1.274   .     A
C869   C875    1.432   .     S
C870   H903    1.079   .     S
C870   C884    1.393   .     A
C870   C892    1.410   .     A
C871   C883    1.388   .     A
C871   H896    1.084   .     S
C871   C884    1.398   .     A
C872   O924    1.273   .     A
C872   C874    1.454   .     S
C872   O922    1.288   .     A
C873   C891    1.418   .     A
C873   C882    1.478   .     S
C873   C885    1.400   .     A
C874   C751    1.348   1_655 S
C874   H783    1.088   1_655 S
C876   C879    1.452   .     S
C876   C1063   1.345   .     S
C876   H1086   1.088   .     S
C877   C878    1.430   .     S
C877   C887    1.486   .     S
C878   O919    1.268   .     A
C878   O925    1.280   .     A
C879   O926    1.277   .     A
C879   O920    1.266   .     A
C880   C885    1.387   .     A
C880   C331    1.399   1_556 S
C880   H347    1.084   1_556 S
C881   O909    1.278   .     A
C881   O911    1.290   .     A
C881   C884    1.452   .     S
C882   O910    1.280   .     A
C882   O912    1.281   .     A
C883   H902    1.084   .     S
C885   H904    1.083   .     S
C886   O914    1.399   .     S
C886   O913    1.223   .     D
C886   C751    1.488   1_655 S
C887   O915    1.223   .     D
C888   O917    1.223   .     D
C888   C889    1.485   .     S
C888   O918    1.398   .     S
C890   C891    1.424   .     A
C890   C331    1.431   1_556 S
C890   C334    1.428   1_556 S
C891   C895    1.411   .     A
C893   C894    1.391   .     A
C893   C334    1.422   1_556 S
C893   C325    1.400   1_556 S
C894   H901    1.084   .     S
C894   C895    1.384   .     A
C895   H906    1.079   .     S
H897   O914    1.014   .     S
H898   O916    1.014   .     S
H899   O918    1.014   .     S
O908   Zn928   1.955   .     S
O908   Zn927   1.950   .     S
O908   Zn930   1.925   .     S
O908   Zn929   1.952   .     S
O909   Zn928   1.928   .     S
O910   Zn930   1.934   .     S
O911   Zn929   1.930   .     S
O912   Zn927   1.921   .     S
O916   C1073   1.399   .     S
O919   Zn927   1.942   .     S
O920   Zn930   1.946   .     S
O921   Zn928   1.929   .     S
O922   Zn929   1.937   .     S
O923   Zn930   1.944   .     S
O924   Zn927   1.938   .     S
O925   Zn928   1.939   .     S
O926   Zn929   1.933   .     S
C931   O985    1.261   .     A
C931   O983    1.274   .     A
C931   C937    1.432   .     S
C932   H965    1.079   .     S
C932   C946    1.393   .     A
C932   C954    1.410   .     A
C933   C945    1.388   .     A
C933   H958    1.084   .     S
C933   C946    1.398   .     A
C934   O986    1.273   .     A
C934   C936    1.454   .     S
C934   O984    1.288   .     A
C935   C953    1.418   .     A
C935   C944    1.478   .     S
C935   C947    1.400   .     A
C936   C999    1.348   .     S
C936   H1031   1.088   .     S
C937   C1060   1.348   1_455 S
C937   C1072   1.488   1_455 S
C938   C941    1.452   .     S
C938   C567    1.345   1_565 S
C938   H590    1.088   1_565 S
C939   C940    1.430   .     S
C939   C949    1.486   .     S
C940   O981    1.268   .     A
C940   O987    1.280   .     A
C941   O988    1.277   .     A
C941   O982    1.266   .     A
C942   C947    1.387   .     A
C942   C393    1.399   1_556 S
C942   H409    1.084   1_556 S
C943   O971    1.278   .     A
C943   O973    1.290   .     A
C943   C946    1.452   .     S
C944   O972    1.280   .     A
C944   O974    1.281   .     A
C945   H964    1.084   .     S
C947   H966    1.083   .     S
C948   O976    1.399   .     S
C948   O975    1.223   .     D
C948   C999    1.488   .     S
C949   O977    1.223   .     D
C950   O979    1.223   .     D
C950   C951    1.485   .     S
C950   O980    1.398   .     S
C952   C953    1.424   .     A
C952   C393    1.431   1_556 S
C952   C396    1.428   1_556 S
C953   C957    1.411   .     A
C955   C956    1.391   .     A
C955   C396    1.422   1_556 S
C955   C387    1.400   1_556 S
C956   H963    1.084   .     S
C956   C957    1.384   .     A
C957   H968    1.079   .     S
H959   O976    1.014   .     S
H960   O978    1.014   .     S
H961   O980    1.014   .     S
H969   C1060   1.088   1_455 S
O970   Zn990   1.955   .     S
O970   Zn989   1.950   .     S
O970   Zn992   1.925   .     S
O970   Zn991   1.952   .     S
O971   Zn990   1.928   .     S
O972   Zn992   1.934   .     S
O973   Zn991   1.930   .     S
O974   Zn989   1.921   .     S
O978   C577    1.399   1_565 S
O981   Zn989   1.942   .     S
O982   Zn992   1.946   .     S
O983   Zn990   1.929   .     S
O984   Zn991   1.937   .     S
O985   Zn992   1.944   .     S
O986   Zn989   1.938   .     S
O987   Zn990   1.939   .     S
O988   Zn991   1.933   .     S
C993   O1047   1.261   .     A
C993   O1045   1.274   .     A
C993   C999    1.432   .     S
C994   H1027   1.079   .     S
C994   C1008   1.393   .     A
C994   C1016   1.410   .     A
C995   C1007   1.388   .     A
C995   H1020   1.084   .     S
C995   C1008   1.398   .     A
C996   O1048   1.273   .     A
C996   C998    1.454   .     S
C996   O1046   1.288   .     A
C997   C1015   1.418   .     A
C997   C1006   1.478   .     S
C997   C1009   1.400   .     A
C998   C1061   1.348   .     S
C998   H1093   1.088   .     S
C1000  C1003   1.452   .     S
C1000  C629    1.345   1_565 S
C1000  H652    1.088   1_565 S
C1001  C1002   1.430   .     S
C1001  C1011   1.486   .     S
C1002  O1043   1.268   .     A
C1002  O1049   1.280   .     A
C1003  O1050   1.277   .     A
C1003  O1044   1.266   .     A
C1004  C1009   1.387   .     A
C1004  C455    1.399   1_556 S
C1004  H471    1.084   1_556 S
C1005  O1033   1.278   .     A
C1005  O1035   1.290   .     A
C1005  C1008   1.452   .     S
C1006  O1034   1.280   .     A
C1006  O1036   1.281   .     A
C1007  H1026   1.084   .     S
C1009  H1028   1.083   .     S
C1010  O1038   1.399   .     S
C1010  O1037   1.223   .     D
C1010  C1061   1.488   .     S
C1011  O1039   1.223   .     D
C1012  O1041   1.223   .     D
C1012  C1013   1.485   .     S
C1012  O1042   1.398   .     S
C1014  C1015   1.424   .     A
C1014  C455    1.431   1_556 S
C1014  C458    1.428   1_556 S
C1015  C1019   1.411   .     A
C1017  C1018   1.391   .     A
C1017  C458    1.422   1_556 S
C1017  C449    1.400   1_556 S
C1018  H1025   1.084   .     S
C1018  C1019   1.384   .     A
C1019  H1030   1.079   .     S
H1021  O1038   1.014   .     S
H1022  O1040   1.014   .     S
H1023  O1042   1.014   .     S
O1032  Zn1052  1.955   .     S
O1032  Zn1051  1.950   .     S
O1032  Zn1054  1.925   .     S
O1032  Zn1053  1.952   .     S
O1033  Zn1052  1.928   .     S
O1034  Zn1054  1.934   .     S
O1035  Zn1053  1.930   .     S
O1036  Zn1051  1.921   .     S
O1040  C639    1.399   1_565 S
O1043  Zn1051  1.942   .     S
O1044  Zn1054  1.946   .     S
O1045  Zn1052  1.929   .     S
O1046  Zn1053  1.937   .     S
O1047  Zn1054  1.944   .     S
O1048  Zn1051  1.938   .     S
O1049  Zn1052  1.939   .     S
O1050  Zn1053  1.933   .     S
C1055  O1109   1.261   .     A
C1055  O1107   1.274   .     A
C1055  C1061   1.432   .     S
C1056  H1089   1.079   .     S
C1056  C1070   1.393   .     A
C1056  C1078   1.410   .     A
C1057  C1069   1.388   .     A
C1057  H1082   1.084   .     S
C1057  C1070   1.398   .     A
C1058  O1110   1.273   .     A
C1058  C1060   1.454   .     S
C1058  O1108   1.288   .     A
C1059  C1077   1.418   .     A
C1059  C1068   1.478   .     S
C1059  C1071   1.400   .     A
C1060  C937    1.348   1_655 S
C1060  H969    1.088   1_655 S
C1062  C1065   1.452   .     S
C1062  C691    1.345   1_565 S
C1062  H714    1.088   1_565 S
C1063  C1064   1.430   .     S
C1063  C1073   1.486   .     S
C1064  O1105   1.268   .     A
C1064  O1111   1.280   .     A
C1065  O1112   1.277   .     A
C1065  O1106   1.266   .     A
C1066  C1071   1.387   .     A
C1066  C517    1.399   1_556 S
C1066  H533    1.084   1_556 S
C1067  O1095   1.278   .     A
C1067  O1097   1.290   .     A
C1067  C1070   1.452   .     S
C1068  O1096   1.280   .     A
C1068  O1098   1.281   .     A
C1069  H1088   1.084   .     S
C1071  H1090   1.083   .     S
C1072  O1100   1.399   .     S
C1072  O1099   1.223   .     D
C1072  C937    1.488   1_655 S
C1073  O1101   1.223   .     D
C1074  O1103   1.223   .     D
C1074  C1075   1.485   .     S
C1074  O1104   1.398   .     S
C1076  C1077   1.424   .     A
C1076  C517    1.431   1_556 S
C1076  C520    1.428   1_556 S
C1077  C1081   1.411   .     A
C1079  C1080   1.391   .     A
C1079  C520    1.422   1_556 S
C1079  C511    1.400   1_556 S
C1080  H1087   1.084   .     S
C1080  C1081   1.384   .     A
C1081  H1092   1.079   .     S
H1083  O1100   1.014   .     S
H1084  O1102   1.014   .     S
H1085  O1104   1.014   .     S
O1094  Zn1114  1.955   .     S
O1094  Zn1113  1.950   .     S
O1094  Zn1116  1.925   .     S
O1094  Zn1115  1.952   .     S
O1095  Zn1114  1.928   .     S
O1096  Zn1116  1.934   .     S
O1097  Zn1115  1.930   .     S
O1098  Zn1113  1.921   .     S
O1102  C701    1.399   1_565 S
O1105  Zn1113  1.942   .     S
O1106  Zn1116  1.946   .     S
O1107  Zn1114  1.929   .     S
O1108  Zn1115  1.937   .     S
O1109  Zn1116  1.944   .     S
O1110  Zn1113  1.938   .     S
O1111  Zn1114  1.939   .     S
O1112  Zn1115  1.933   .     S
