data_str_m3_o10_o17_pcu_sym.34
_audit_creation_date              2020-01-03
_audit_creation_method            'Materials Studio'
_symmetry_space_group_name_H-M    'P1'
_symmetry_Int_Tables_number       1
_symmetry_cell_setting            triclinic
loop_
_symmetry_equiv_pos_as_xyz
  x,y,z
_cell_length_a                    23.4035
_cell_length_b                    25.9333
_cell_length_c                    29.8456
_cell_angle_alpha                 91.7320
_cell_angle_beta                  85.6878
_cell_angle_gamma                 93.0147
loop_
_atom_site_label
_atom_site_type_symbol
_atom_site_fract_x
_atom_site_fract_y
_atom_site_fract_z
_atom_site_U_iso_or_equiv
_atom_site_adp_type
_atom_site_occupancy
C1     C     0.18147   0.26462   0.24936   0.00000  Uiso   1.00
C2     C     0.18758   0.21151   0.40613   0.00000  Uiso   1.00
C3     C     0.16465   0.16630   0.11627   0.00000  Uiso   1.00
C4     C     0.16857   0.16641   0.38364   0.00000  Uiso   1.00
C5     C     0.18429   0.21095   0.09377   0.00000  Uiso   1.00
C6     C     0.14917   0.12160   0.40602   0.00000  Uiso   1.00
C7     C     0.18563   0.21071   0.04719   0.00000  Uiso   1.00
C8     C     0.14754   0.12189   0.45265   0.00000  Uiso   1.00
C9     C     0.16577   0.16604   0.02348   0.00000  Uiso   1.00
C10    C     0.16724   0.16661   0.47639   0.00000  Uiso   1.00
C11    C     0.14465   0.12093   0.04681   0.00000  Uiso   1.00
C12    C     0.15187   0.06879   0.25136   0.00000  Uiso   1.00
C13    C     0.18834   0.21176   0.45310   0.00000  Uiso   1.00
C14    C     0.20724   0.25445   0.02409   0.00000  Uiso   1.00
C15    C     0.12592   0.07815   0.47577   0.00000  Uiso   1.00
C16    C     0.20916   0.25549   0.47761   0.00000  Uiso   1.00
C17    C     0.12389   0.07717   0.02228   0.00000  Uiso   1.00
C18    C     0.18851   0.31830   0.24405   0.00000  Uiso   1.00
C19    C     0.14471   0.01555   0.25780   0.00000  Uiso   1.00
C20    C     0.16727   0.16661   0.33618   0.00000  Uiso   1.00
C21    C     0.16599   0.16632   0.16379   0.00000  Uiso   1.00
C22    C     0.14539   0.12123   0.09382   0.00000  Uiso   1.00
H23    H     0.22334   0.28857   0.04192   0.00000  Uiso   1.00
H24    H     0.16512   0.06474   0.35897   0.00000  Uiso   1.00
H25    H     0.21029   0.33251   0.46816   0.00000  Uiso   1.00
H26    H     0.27570   0.30730   0.46490   0.00000  Uiso   1.00
H27    H     0.05739   0.02533   0.03498   0.00000  Uiso   1.00
H28    H     0.12282   0.00017   0.03177   0.00000  Uiso   1.00
H29    H     0.27560   0.32859   0.23869   0.00000  Uiso   1.00
H30    H     0.24555   0.31925   0.18895   0.00000  Uiso   1.00
H31    H     0.10102   0.31020   0.31022   0.00000  Uiso   1.00
H32    H     0.06478   0.31226   0.26156   0.00000  Uiso   1.00
H33    H     0.32948   0.08521   0.20837   0.00000  Uiso   1.00
H34    H     0.10990   0.04402   0.45791   0.00000  Uiso   1.00
H35    H     0.33053   0.13506   0.17370   0.00000  Uiso   1.00
H36    H     0.00251   0.24689   0.29357   0.00000  Uiso   1.00
H37    H     0.00362   0.19596   0.32680   0.00000  Uiso   1.00
H38    H     0.16305   0.06536   0.13648   0.00000  Uiso   1.00
H39    H     0.09406   0.08361   0.14173   0.00000  Uiso   1.00
H40    H     0.23880   0.24942   0.35830   0.00000  Uiso   1.00
H41    H     0.16970   0.26740   0.36355   0.00000  Uiso   1.00
H42    H     0.16994   0.26774   0.14116   0.00000  Uiso   1.00
H43    H     0.23838   0.24792   0.13566   0.00000  Uiso   1.00
H44    H     0.09644   0.08373   0.36330   0.00000  Uiso   1.00
N45    N     0.31678   0.15265   0.23783   0.00000  Uiso   1.00
N46    N     0.09229   0.33208   0.28289   0.00000  Uiso   1.00
N47    N     0.01119   0.12349   0.20408   0.00000  Uiso   1.00
N48    N     0.32203   0.20822   0.29697   0.00000  Uiso   1.00
N49    N     0.01656   0.18068   0.26217   0.00000  Uiso   1.00
N50    N     0.12862   0.07561   0.11880   0.00000  Uiso   1.00
N51    N     0.20418   0.25723   0.38122   0.00000  Uiso   1.00
N52    N     0.20324   0.25663   0.11814   0.00000  Uiso   1.00
N53    N     0.13121   0.07564   0.38150   0.00000  Uiso   1.00
N54    N     0.23349   0.30104   0.45595   0.00000  Uiso   1.00
N55    N     0.09959   0.03163   0.04396   0.00000  Uiso   1.00
N56    N     0.24109   0.00429   0.22054   0.00000  Uiso   1.00
O57    O     0.12975   0.24619   0.25299   0.00000  Uiso   1.00
O58    O     0.20358   0.08714   0.24702   0.00000  Uiso   1.00
O59    O     0.22613   0.23721   0.24519   0.00000  Uiso   1.00
O60    O     0.10720   0.09613   0.25482   0.00000  Uiso   1.00
O61    O     0.11847   0.17117   0.31998   0.00000  Uiso   1.00
O62    O     0.21486   0.16216   0.18003   0.00000  Uiso   1.00
O63    O     0.21485   0.16219   0.31218   0.00000  Uiso   1.00
O64    O     0.11848   0.17115   0.18783   0.00000  Uiso   1.00
Zn65   Zn    0.10231   0.17266   0.25521   0.00000  Uiso   1.00
Zn66   Zn    0.23102   0.16067   0.24479   0.00000  Uiso   1.00
C67    C     0.51480   0.26462   0.24936   0.00000  Uiso   1.00
C68    C     0.52091   0.21151   0.40613   0.00000  Uiso   1.00
C69    C     0.49799   0.16630   0.11627   0.00000  Uiso   1.00
C70    C     0.50190   0.16641   0.38364   0.00000  Uiso   1.00
C71    C     0.51762   0.21095   0.09377   0.00000  Uiso   1.00
C72    C     0.48250   0.12160   0.40602   0.00000  Uiso   1.00
C73    C     0.51896   0.21071   0.04719   0.00000  Uiso   1.00
C74    C     0.48087   0.12189   0.45265   0.00000  Uiso   1.00
C75    C     0.49910   0.16604   0.02348   0.00000  Uiso   1.00
C76    C     0.50057   0.16661   0.47639   0.00000  Uiso   1.00
C77    C     0.47798   0.12093   0.04681   0.00000  Uiso   1.00
C78    C     0.48520   0.06879   0.25136   0.00000  Uiso   1.00
C79    C     0.52168   0.21176   0.45310   0.00000  Uiso   1.00
C80    C     0.54057   0.25445   0.02409   0.00000  Uiso   1.00
C81    C     0.45926   0.07815   0.47577   0.00000  Uiso   1.00
C82    C     0.54249   0.25549   0.47761   0.00000  Uiso   1.00
C83    C     0.45722   0.07717   0.02228   0.00000  Uiso   1.00
C84    C     0.52184   0.31830   0.24405   0.00000  Uiso   1.00
C85    C     0.47804   0.01555   0.25780   0.00000  Uiso   1.00
C86    C     0.50060   0.16661   0.33618   0.00000  Uiso   1.00
C87    C     0.49933   0.16632   0.16379   0.00000  Uiso   1.00
C88    C     0.47872   0.12123   0.09382   0.00000  Uiso   1.00
H89    H     0.55667   0.28857   0.04192   0.00000  Uiso   1.00
H90    H     0.49845   0.06474   0.35897   0.00000  Uiso   1.00
H91    H     0.54363   0.33251   0.46816   0.00000  Uiso   1.00
H92    H     0.60903   0.30730   0.46490   0.00000  Uiso   1.00
H93    H     0.39073   0.02533   0.03498   0.00000  Uiso   1.00
H94    H     0.45616   0.00017   0.03177   0.00000  Uiso   1.00
H95    H     0.60893   0.32859   0.23869   0.00000  Uiso   1.00
H96    H     0.57889   0.31925   0.18895   0.00000  Uiso   1.00
H97    H     0.43435   0.31020   0.31022   0.00000  Uiso   1.00
H98    H     0.39811   0.31226   0.26156   0.00000  Uiso   1.00
H99    H     0.66281   0.08521   0.20837   0.00000  Uiso   1.00
H100   H     0.44323   0.04402   0.45791   0.00000  Uiso   1.00
H101   H     0.66386   0.13506   0.17370   0.00000  Uiso   1.00
H102   H     0.33584   0.24689   0.29357   0.00000  Uiso   1.00
H103   H     0.33695   0.19596   0.32680   0.00000  Uiso   1.00
H104   H     0.49639   0.06536   0.13648   0.00000  Uiso   1.00
H105   H     0.42740   0.08361   0.14173   0.00000  Uiso   1.00
H106   H     0.57213   0.24942   0.35830   0.00000  Uiso   1.00
H107   H     0.50303   0.26740   0.36355   0.00000  Uiso   1.00
H108   H     0.50327   0.26774   0.14116   0.00000  Uiso   1.00
H109   H     0.57172   0.24792   0.13566   0.00000  Uiso   1.00
H110   H     0.42977   0.08373   0.36330   0.00000  Uiso   1.00
N111   N     0.65011   0.15265   0.23783   0.00000  Uiso   1.00
N112   N     0.42563   0.33208   0.28289   0.00000  Uiso   1.00
N113   N     0.34453   0.12349   0.20408   0.00000  Uiso   1.00
N114   N     0.65537   0.20822   0.29697   0.00000  Uiso   1.00
N115   N     0.34989   0.18068   0.26217   0.00000  Uiso   1.00
N116   N     0.46195   0.07561   0.11880   0.00000  Uiso   1.00
N117   N     0.53751   0.25723   0.38122   0.00000  Uiso   1.00
N118   N     0.53658   0.25663   0.11814   0.00000  Uiso   1.00
N119   N     0.46454   0.07564   0.38150   0.00000  Uiso   1.00
N120   N     0.56682   0.30104   0.45595   0.00000  Uiso   1.00
N121   N     0.43292   0.03163   0.04396   0.00000  Uiso   1.00
N122   N     0.57442   0.00429   0.22054   0.00000  Uiso   1.00
O123   O     0.46308   0.24619   0.25299   0.00000  Uiso   1.00
O124   O     0.53692   0.08714   0.24702   0.00000  Uiso   1.00
O125   O     0.55946   0.23721   0.24519   0.00000  Uiso   1.00
O126   O     0.44054   0.09613   0.25482   0.00000  Uiso   1.00
O127   O     0.45181   0.17117   0.31998   0.00000  Uiso   1.00
O128   O     0.54819   0.16216   0.18003   0.00000  Uiso   1.00
O129   O     0.54819   0.16219   0.31218   0.00000  Uiso   1.00
O130   O     0.45181   0.17115   0.18783   0.00000  Uiso   1.00
Zn131  Zn    0.43565   0.17266   0.25521   0.00000  Uiso   1.00
Zn132  Zn    0.56435   0.16067   0.24479   0.00000  Uiso   1.00
C133   C     0.84813   0.26462   0.24936   0.00000  Uiso   1.00
C134   C     0.85425   0.21151   0.40613   0.00000  Uiso   1.00
C135   C     0.83132   0.16630   0.11627   0.00000  Uiso   1.00
C136   C     0.83523   0.16641   0.38364   0.00000  Uiso   1.00
C137   C     0.85096   0.21095   0.09377   0.00000  Uiso   1.00
C138   C     0.81584   0.12160   0.40602   0.00000  Uiso   1.00
C139   C     0.85229   0.21071   0.04719   0.00000  Uiso   1.00
C140   C     0.81421   0.12189   0.45265   0.00000  Uiso   1.00
C141   C     0.83244   0.16604   0.02348   0.00000  Uiso   1.00
C142   C     0.83391   0.16661   0.47639   0.00000  Uiso   1.00
C143   C     0.81132   0.12093   0.04681   0.00000  Uiso   1.00
C144   C     0.81854   0.06879   0.25136   0.00000  Uiso   1.00
C145   C     0.85501   0.21176   0.45310   0.00000  Uiso   1.00
C146   C     0.87390   0.25445   0.02409   0.00000  Uiso   1.00
C147   C     0.79259   0.07815   0.47577   0.00000  Uiso   1.00
C148   C     0.87583   0.25549   0.47761   0.00000  Uiso   1.00
C149   C     0.79055   0.07717   0.02228   0.00000  Uiso   1.00
C150   C     0.85517   0.31830   0.24405   0.00000  Uiso   1.00
C151   C     0.81137   0.01555   0.25780   0.00000  Uiso   1.00
C152   C     0.83394   0.16661   0.33618   0.00000  Uiso   1.00
C153   C     0.83266   0.16632   0.16379   0.00000  Uiso   1.00
C154   C     0.81206   0.12123   0.09382   0.00000  Uiso   1.00
H155   H     0.89000   0.28857   0.04192   0.00000  Uiso   1.00
H156   H     0.83179   0.06474   0.35897   0.00000  Uiso   1.00
H157   H     0.87696   0.33251   0.46816   0.00000  Uiso   1.00
H158   H     0.94237   0.30730   0.46490   0.00000  Uiso   1.00
H159   H     0.72406   0.02533   0.03498   0.00000  Uiso   1.00
H160   H     0.78949   0.00017   0.03177   0.00000  Uiso   1.00
H161   H     0.94226   0.32859   0.23869   0.00000  Uiso   1.00
H162   H     0.91222   0.31925   0.18895   0.00000  Uiso   1.00
H163   H     0.76768   0.31020   0.31022   0.00000  Uiso   1.00
H164   H     0.73144   0.31226   0.26156   0.00000  Uiso   1.00
H165   H     0.99615   0.08521   0.20837   0.00000  Uiso   1.00
H166   H     0.77657   0.04402   0.45791   0.00000  Uiso   1.00
H167   H     0.99719   0.13506   0.17370   0.00000  Uiso   1.00
H168   H     0.66917   0.24689   0.29357   0.00000  Uiso   1.00
H169   H     0.67028   0.19596   0.32680   0.00000  Uiso   1.00
H170   H     0.82972   0.06536   0.13648   0.00000  Uiso   1.00
H171   H     0.76073   0.08361   0.14173   0.00000  Uiso   1.00
H172   H     0.90547   0.24942   0.35830   0.00000  Uiso   1.00
H173   H     0.83637   0.26740   0.36355   0.00000  Uiso   1.00
H174   H     0.83660   0.26774   0.14116   0.00000  Uiso   1.00
H175   H     0.90505   0.24792   0.13566   0.00000  Uiso   1.00
H176   H     0.76310   0.08373   0.36330   0.00000  Uiso   1.00
N177   N     0.98344   0.15265   0.23783   0.00000  Uiso   1.00
N178   N     0.75896   0.33208   0.28289   0.00000  Uiso   1.00
N179   N     0.67786   0.12349   0.20408   0.00000  Uiso   1.00
N180   N     0.98870   0.20822   0.29697   0.00000  Uiso   1.00
N181   N     0.68322   0.18068   0.26217   0.00000  Uiso   1.00
N182   N     0.79528   0.07561   0.11880   0.00000  Uiso   1.00
N183   N     0.87084   0.25723   0.38122   0.00000  Uiso   1.00
N184   N     0.86991   0.25663   0.11814   0.00000  Uiso   1.00
N185   N     0.79787   0.07564   0.38150   0.00000  Uiso   1.00
N186   N     0.90016   0.30104   0.45595   0.00000  Uiso   1.00
N187   N     0.76625   0.03163   0.04396   0.00000  Uiso   1.00
N188   N     0.90775   0.00429   0.22054   0.00000  Uiso   1.00
O189   O     0.79642   0.24619   0.25299   0.00000  Uiso   1.00
O190   O     0.87025   0.08714   0.24702   0.00000  Uiso   1.00
O191   O     0.89280   0.23721   0.24519   0.00000  Uiso   1.00
O192   O     0.77387   0.09613   0.25482   0.00000  Uiso   1.00
O193   O     0.78514   0.17117   0.31998   0.00000  Uiso   1.00
O194   O     0.88153   0.16216   0.18003   0.00000  Uiso   1.00
O195   O     0.88152   0.16219   0.31218   0.00000  Uiso   1.00
O196   O     0.78515   0.17115   0.18783   0.00000  Uiso   1.00
Zn197  Zn    0.76898   0.17266   0.25521   0.00000  Uiso   1.00
Zn198  Zn    0.89769   0.16067   0.24479   0.00000  Uiso   1.00
C199   C     0.18147   0.59796   0.24936   0.00000  Uiso   1.00
C200   C     0.18758   0.54485   0.40613   0.00000  Uiso   1.00
C201   C     0.16465   0.49963   0.11627   0.00000  Uiso   1.00
C202   C     0.16857   0.49975   0.38364   0.00000  Uiso   1.00
C203   C     0.18429   0.54428   0.09377   0.00000  Uiso   1.00
C204   C     0.14917   0.45493   0.40602   0.00000  Uiso   1.00
C205   C     0.18563   0.54404   0.04719   0.00000  Uiso   1.00
C206   C     0.14754   0.45522   0.45265   0.00000  Uiso   1.00
C207   C     0.16577   0.49938   0.02348   0.00000  Uiso   1.00
C208   C     0.16724   0.49994   0.47639   0.00000  Uiso   1.00
C209   C     0.14465   0.45426   0.04681   0.00000  Uiso   1.00
C210   C     0.15187   0.40212   0.25136   0.00000  Uiso   1.00
C211   C     0.18834   0.54509   0.45310   0.00000  Uiso   1.00
C212   C     0.20724   0.58779   0.02409   0.00000  Uiso   1.00
C213   C     0.12592   0.41149   0.47577   0.00000  Uiso   1.00
C214   C     0.20916   0.58883   0.47761   0.00000  Uiso   1.00
C215   C     0.12389   0.41050   0.02228   0.00000  Uiso   1.00
C216   C     0.18851   0.65163   0.24405   0.00000  Uiso   1.00
C217   C     0.14471   0.34889   0.25780   0.00000  Uiso   1.00
C218   C     0.16727   0.49994   0.33618   0.00000  Uiso   1.00
C219   C     0.16599   0.49965   0.16379   0.00000  Uiso   1.00
C220   C     0.14539   0.45457   0.09382   0.00000  Uiso   1.00
H221   H     0.22334   0.62190   0.04192   0.00000  Uiso   1.00
H222   H     0.16512   0.39808   0.35897   0.00000  Uiso   1.00
H223   H     0.21029   0.66584   0.46816   0.00000  Uiso   1.00
H224   H     0.27570   0.64063   0.46490   0.00000  Uiso   1.00
H225   H     0.05739   0.35867   0.03498   0.00000  Uiso   1.00
H226   H     0.12282   0.33350   0.03177   0.00000  Uiso   1.00
H227   H     0.27560   0.66192   0.23869   0.00000  Uiso   1.00
H228   H     0.24555   0.65259   0.18895   0.00000  Uiso   1.00
H229   H     0.10102   0.64353   0.31022   0.00000  Uiso   1.00
H230   H     0.06478   0.64559   0.26156   0.00000  Uiso   1.00
H231   H     0.32948   0.41854   0.20837   0.00000  Uiso   1.00
H232   H     0.10990   0.37736   0.45791   0.00000  Uiso   1.00
H233   H     0.33053   0.46839   0.17370   0.00000  Uiso   1.00
H234   H     0.00251   0.58022   0.29357   0.00000  Uiso   1.00
H235   H     0.00362   0.52930   0.32680   0.00000  Uiso   1.00
H236   H     0.16305   0.39869   0.13648   0.00000  Uiso   1.00
H237   H     0.09406   0.41694   0.14173   0.00000  Uiso   1.00
H238   H     0.23880   0.58275   0.35830   0.00000  Uiso   1.00
H239   H     0.16970   0.60073   0.36355   0.00000  Uiso   1.00
H240   H     0.16994   0.60107   0.14116   0.00000  Uiso   1.00
H241   H     0.23838   0.58125   0.13566   0.00000  Uiso   1.00
H242   H     0.09644   0.41706   0.36330   0.00000  Uiso   1.00
N243   N     0.31678   0.48598   0.23783   0.00000  Uiso   1.00
N244   N     0.09229   0.66541   0.28289   0.00000  Uiso   1.00
N245   N     0.01119   0.45682   0.20408   0.00000  Uiso   1.00
N246   N     0.32203   0.54155   0.29697   0.00000  Uiso   1.00
N247   N     0.01656   0.51402   0.26217   0.00000  Uiso   1.00
N248   N     0.12862   0.40894   0.11880   0.00000  Uiso   1.00
N249   N     0.20418   0.59056   0.38122   0.00000  Uiso   1.00
N250   N     0.20324   0.58996   0.11814   0.00000  Uiso   1.00
N251   N     0.13121   0.40897   0.38150   0.00000  Uiso   1.00
N252   N     0.23349   0.63437   0.45595   0.00000  Uiso   1.00
N253   N     0.09959   0.36496   0.04396   0.00000  Uiso   1.00
N254   N     0.24109   0.33762   0.22054   0.00000  Uiso   1.00
O255   O     0.12975   0.57952   0.25299   0.00000  Uiso   1.00
O256   O     0.20358   0.42048   0.24702   0.00000  Uiso   1.00
O257   O     0.22613   0.57054   0.24519   0.00000  Uiso   1.00
O258   O     0.10720   0.42946   0.25482   0.00000  Uiso   1.00
O259   O     0.11847   0.50450   0.31998   0.00000  Uiso   1.00
O260   O     0.21486   0.49550   0.18003   0.00000  Uiso   1.00
O261   O     0.21485   0.49552   0.31218   0.00000  Uiso   1.00
O262   O     0.11848   0.50448   0.18783   0.00000  Uiso   1.00
Zn263  Zn    0.10231   0.50600   0.25521   0.00000  Uiso   1.00
Zn264  Zn    0.23102   0.49400   0.24479   0.00000  Uiso   1.00
C265   C     0.51480   0.59796   0.24936   0.00000  Uiso   1.00
C266   C     0.52091   0.54485   0.40613   0.00000  Uiso   1.00
C267   C     0.49799   0.49963   0.11627   0.00000  Uiso   1.00
C268   C     0.50190   0.49975   0.38364   0.00000  Uiso   1.00
C269   C     0.51762   0.54428   0.09377   0.00000  Uiso   1.00
C270   C     0.48250   0.45493   0.40602   0.00000  Uiso   1.00
C271   C     0.51896   0.54404   0.04719   0.00000  Uiso   1.00
C272   C     0.48087   0.45522   0.45265   0.00000  Uiso   1.00
C273   C     0.49910   0.49938   0.02348   0.00000  Uiso   1.00
C274   C     0.50057   0.49994   0.47639   0.00000  Uiso   1.00
C275   C     0.47798   0.45426   0.04681   0.00000  Uiso   1.00
C276   C     0.48520   0.40212   0.25136   0.00000  Uiso   1.00
C277   C     0.52168   0.54509   0.45310   0.00000  Uiso   1.00
C278   C     0.54057   0.58779   0.02409   0.00000  Uiso   1.00
C279   C     0.45926   0.41149   0.47577   0.00000  Uiso   1.00
C280   C     0.54249   0.58883   0.47761   0.00000  Uiso   1.00
C281   C     0.45722   0.41050   0.02228   0.00000  Uiso   1.00
C282   C     0.52184   0.65163   0.24405   0.00000  Uiso   1.00
C283   C     0.47804   0.34889   0.25780   0.00000  Uiso   1.00
C284   C     0.50060   0.49994   0.33618   0.00000  Uiso   1.00
C285   C     0.49933   0.49965   0.16379   0.00000  Uiso   1.00
C286   C     0.47872   0.45457   0.09382   0.00000  Uiso   1.00
H287   H     0.55667   0.62190   0.04192   0.00000  Uiso   1.00
H288   H     0.49845   0.39808   0.35897   0.00000  Uiso   1.00
H289   H     0.54363   0.66584   0.46816   0.00000  Uiso   1.00
H290   H     0.60903   0.64063   0.46490   0.00000  Uiso   1.00
H291   H     0.39073   0.35867   0.03498   0.00000  Uiso   1.00
H292   H     0.45616   0.33350   0.03177   0.00000  Uiso   1.00
H293   H     0.60893   0.66192   0.23869   0.00000  Uiso   1.00
H294   H     0.57889   0.65259   0.18895   0.00000  Uiso   1.00
H295   H     0.43435   0.64353   0.31022   0.00000  Uiso   1.00
H296   H     0.39811   0.64559   0.26156   0.00000  Uiso   1.00
H297   H     0.66281   0.41854   0.20837   0.00000  Uiso   1.00
H298   H     0.44323   0.37736   0.45791   0.00000  Uiso   1.00
H299   H     0.66386   0.46839   0.17370   0.00000  Uiso   1.00
H300   H     0.33584   0.58022   0.29357   0.00000  Uiso   1.00
H301   H     0.33695   0.52930   0.32680   0.00000  Uiso   1.00
H302   H     0.49639   0.39869   0.13648   0.00000  Uiso   1.00
H303   H     0.42740   0.41694   0.14173   0.00000  Uiso   1.00
H304   H     0.57213   0.58275   0.35830   0.00000  Uiso   1.00
H305   H     0.50303   0.60073   0.36355   0.00000  Uiso   1.00
H306   H     0.50327   0.60107   0.14116   0.00000  Uiso   1.00
H307   H     0.57172   0.58125   0.13566   0.00000  Uiso   1.00
H308   H     0.42977   0.41706   0.36330   0.00000  Uiso   1.00
N309   N     0.65011   0.48598   0.23783   0.00000  Uiso   1.00
N310   N     0.42563   0.66541   0.28289   0.00000  Uiso   1.00
N311   N     0.34453   0.45682   0.20408   0.00000  Uiso   1.00
N312   N     0.65537   0.54155   0.29697   0.00000  Uiso   1.00
N313   N     0.34989   0.51402   0.26217   0.00000  Uiso   1.00
N314   N     0.46195   0.40894   0.11880   0.00000  Uiso   1.00
N315   N     0.53751   0.59056   0.38122   0.00000  Uiso   1.00
N316   N     0.53658   0.58996   0.11814   0.00000  Uiso   1.00
N317   N     0.46454   0.40897   0.38150   0.00000  Uiso   1.00
N318   N     0.56682   0.63437   0.45595   0.00000  Uiso   1.00
N319   N     0.43292   0.36496   0.04396   0.00000  Uiso   1.00
N320   N     0.57442   0.33762   0.22054   0.00000  Uiso   1.00
O321   O     0.46308   0.57952   0.25299   0.00000  Uiso   1.00
O322   O     0.53692   0.42048   0.24702   0.00000  Uiso   1.00
O323   O     0.55946   0.57054   0.24519   0.00000  Uiso   1.00
O324   O     0.44054   0.42946   0.25482   0.00000  Uiso   1.00
O325   O     0.45181   0.50450   0.31998   0.00000  Uiso   1.00
O326   O     0.54819   0.49550   0.18003   0.00000  Uiso   1.00
O327   O     0.54819   0.49552   0.31218   0.00000  Uiso   1.00
O328   O     0.45181   0.50448   0.18783   0.00000  Uiso   1.00
Zn329  Zn    0.43565   0.50600   0.25521   0.00000  Uiso   1.00
Zn330  Zn    0.56435   0.49400   0.24479   0.00000  Uiso   1.00
C331   C     0.84813   0.59796   0.24936   0.00000  Uiso   1.00
C332   C     0.85425   0.54485   0.40613   0.00000  Uiso   1.00
C333   C     0.83132   0.49963   0.11627   0.00000  Uiso   1.00
C334   C     0.83523   0.49975   0.38364   0.00000  Uiso   1.00
C335   C     0.85096   0.54428   0.09377   0.00000  Uiso   1.00
C336   C     0.81584   0.45493   0.40602   0.00000  Uiso   1.00
C337   C     0.85229   0.54404   0.04719   0.00000  Uiso   1.00
C338   C     0.81421   0.45522   0.45265   0.00000  Uiso   1.00
C339   C     0.83244   0.49938   0.02348   0.00000  Uiso   1.00
C340   C     0.83391   0.49994   0.47639   0.00000  Uiso   1.00
C341   C     0.81132   0.45426   0.04681   0.00000  Uiso   1.00
C342   C     0.81854   0.40212   0.25136   0.00000  Uiso   1.00
C343   C     0.85501   0.54509   0.45310   0.00000  Uiso   1.00
C344   C     0.87390   0.58779   0.02409   0.00000  Uiso   1.00
C345   C     0.79259   0.41149   0.47577   0.00000  Uiso   1.00
C346   C     0.87583   0.58883   0.47761   0.00000  Uiso   1.00
C347   C     0.79055   0.41050   0.02228   0.00000  Uiso   1.00
C348   C     0.85517   0.65163   0.24405   0.00000  Uiso   1.00
C349   C     0.81137   0.34889   0.25780   0.00000  Uiso   1.00
C350   C     0.83394   0.49994   0.33618   0.00000  Uiso   1.00
C351   C     0.83266   0.49965   0.16379   0.00000  Uiso   1.00
C352   C     0.81206   0.45457   0.09382   0.00000  Uiso   1.00
H353   H     0.89000   0.62190   0.04192   0.00000  Uiso   1.00
H354   H     0.83179   0.39808   0.35897   0.00000  Uiso   1.00
H355   H     0.87696   0.66584   0.46816   0.00000  Uiso   1.00
H356   H     0.94237   0.64063   0.46490   0.00000  Uiso   1.00
H357   H     0.72406   0.35867   0.03498   0.00000  Uiso   1.00
H358   H     0.78949   0.33350   0.03177   0.00000  Uiso   1.00
H359   H     0.94226   0.66192   0.23869   0.00000  Uiso   1.00
H360   H     0.91222   0.65259   0.18895   0.00000  Uiso   1.00
H361   H     0.76768   0.64353   0.31022   0.00000  Uiso   1.00
H362   H     0.73144   0.64559   0.26156   0.00000  Uiso   1.00
H363   H     0.99615   0.41854   0.20837   0.00000  Uiso   1.00
H364   H     0.77657   0.37736   0.45791   0.00000  Uiso   1.00
H365   H     0.99719   0.46839   0.17370   0.00000  Uiso   1.00
H366   H     0.66917   0.58022   0.29357   0.00000  Uiso   1.00
H367   H     0.67028   0.52930   0.32680   0.00000  Uiso   1.00
H368   H     0.82972   0.39869   0.13648   0.00000  Uiso   1.00
H369   H     0.76073   0.41694   0.14173   0.00000  Uiso   1.00
H370   H     0.90547   0.58275   0.35830   0.00000  Uiso   1.00
H371   H     0.83637   0.60073   0.36355   0.00000  Uiso   1.00
H372   H     0.83660   0.60107   0.14116   0.00000  Uiso   1.00
H373   H     0.90505   0.58125   0.13566   0.00000  Uiso   1.00
H374   H     0.76310   0.41706   0.36330   0.00000  Uiso   1.00
N375   N     0.98344   0.48598   0.23783   0.00000  Uiso   1.00
N376   N     0.75896   0.66541   0.28289   0.00000  Uiso   1.00
N377   N     0.67786   0.45682   0.20408   0.00000  Uiso   1.00
N378   N     0.98870   0.54155   0.29697   0.00000  Uiso   1.00
N379   N     0.68322   0.51402   0.26217   0.00000  Uiso   1.00
N380   N     0.79528   0.40894   0.11880   0.00000  Uiso   1.00
N381   N     0.87084   0.59056   0.38122   0.00000  Uiso   1.00
N382   N     0.86991   0.58996   0.11814   0.00000  Uiso   1.00
N383   N     0.79787   0.40897   0.38150   0.00000  Uiso   1.00
N384   N     0.90016   0.63437   0.45595   0.00000  Uiso   1.00
N385   N     0.76625   0.36496   0.04396   0.00000  Uiso   1.00
N386   N     0.90775   0.33762   0.22054   0.00000  Uiso   1.00
O387   O     0.79642   0.57952   0.25299   0.00000  Uiso   1.00
O388   O     0.87025   0.42048   0.24702   0.00000  Uiso   1.00
O389   O     0.89280   0.57054   0.24519   0.00000  Uiso   1.00
O390   O     0.77387   0.42946   0.25482   0.00000  Uiso   1.00
O391   O     0.78514   0.50450   0.31998   0.00000  Uiso   1.00
O392   O     0.88153   0.49550   0.18003   0.00000  Uiso   1.00
O393   O     0.88152   0.49552   0.31218   0.00000  Uiso   1.00
O394   O     0.78515   0.50448   0.18783   0.00000  Uiso   1.00
Zn395  Zn    0.76898   0.50600   0.25521   0.00000  Uiso   1.00
Zn396  Zn    0.89769   0.49400   0.24479   0.00000  Uiso   1.00
C397   C     0.18147   0.93129   0.24936   0.00000  Uiso   1.00
C398   C     0.18758   0.87818   0.40613   0.00000  Uiso   1.00
C399   C     0.16465   0.83297   0.11627   0.00000  Uiso   1.00
C400   C     0.16857   0.83308   0.38364   0.00000  Uiso   1.00
C401   C     0.18429   0.87762   0.09377   0.00000  Uiso   1.00
C402   C     0.14917   0.78827   0.40602   0.00000  Uiso   1.00
C403   C     0.18563   0.87738   0.04719   0.00000  Uiso   1.00
C404   C     0.14754   0.78856   0.45265   0.00000  Uiso   1.00
C405   C     0.16577   0.83271   0.02348   0.00000  Uiso   1.00
C406   C     0.16724   0.83327   0.47639   0.00000  Uiso   1.00
C407   C     0.14465   0.78759   0.04681   0.00000  Uiso   1.00
C408   C     0.15187   0.73546   0.25136   0.00000  Uiso   1.00
C409   C     0.18834   0.87842   0.45310   0.00000  Uiso   1.00
C410   C     0.20724   0.92112   0.02409   0.00000  Uiso   1.00
C411   C     0.12592   0.74482   0.47577   0.00000  Uiso   1.00
C412   C     0.20916   0.92216   0.47761   0.00000  Uiso   1.00
C413   C     0.12389   0.74384   0.02228   0.00000  Uiso   1.00
C414   C     0.18851   0.98497   0.24405   0.00000  Uiso   1.00
C415   C     0.14471   0.68222   0.25780   0.00000  Uiso   1.00
C416   C     0.16727   0.83328   0.33618   0.00000  Uiso   1.00
C417   C     0.16599   0.83299   0.16379   0.00000  Uiso   1.00
C418   C     0.14539   0.78790   0.09382   0.00000  Uiso   1.00
H419   H     0.22334   0.95524   0.04192   0.00000  Uiso   1.00
H420   H     0.16512   0.73141   0.35897   0.00000  Uiso   1.00
H421   H     0.21029   0.99917   0.46816   0.00000  Uiso   1.00
H422   H     0.27570   0.97397   0.46490   0.00000  Uiso   1.00
H423   H     0.05739   0.69200   0.03498   0.00000  Uiso   1.00
H424   H     0.12282   0.66684   0.03177   0.00000  Uiso   1.00
H425   H     0.27560   0.99526   0.23869   0.00000  Uiso   1.00
H426   H     0.24555   0.98592   0.18895   0.00000  Uiso   1.00
H427   H     0.10102   0.97686   0.31022   0.00000  Uiso   1.00
H428   H     0.06478   0.97892   0.26156   0.00000  Uiso   1.00
H429   H     0.32948   0.75188   0.20837   0.00000  Uiso   1.00
H430   H     0.10990   0.71069   0.45791   0.00000  Uiso   1.00
H431   H     0.33053   0.80173   0.17370   0.00000  Uiso   1.00
H432   H     0.00251   0.91355   0.29357   0.00000  Uiso   1.00
H433   H     0.00362   0.86263   0.32680   0.00000  Uiso   1.00
H434   H     0.16305   0.73203   0.13648   0.00000  Uiso   1.00
H435   H     0.09406   0.75027   0.14173   0.00000  Uiso   1.00
H436   H     0.23880   0.91609   0.35830   0.00000  Uiso   1.00
H437   H     0.16970   0.93406   0.36355   0.00000  Uiso   1.00
H438   H     0.16994   0.93440   0.14116   0.00000  Uiso   1.00
H439   H     0.23838   0.91459   0.13566   0.00000  Uiso   1.00
H440   H     0.09644   0.75040   0.36330   0.00000  Uiso   1.00
N441   N     0.31678   0.81932   0.23783   0.00000  Uiso   1.00
N442   N     0.09229   0.99874   0.28289   0.00000  Uiso   1.00
N443   N     0.01119   0.79016   0.20408   0.00000  Uiso   1.00
N444   N     0.32203   0.87489   0.29697   0.00000  Uiso   1.00
N445   N     0.01656   0.84735   0.26217   0.00000  Uiso   1.00
N446   N     0.12862   0.74228   0.11880   0.00000  Uiso   1.00
N447   N     0.20418   0.92390   0.38122   0.00000  Uiso   1.00
N448   N     0.20324   0.92330   0.11814   0.00000  Uiso   1.00
N449   N     0.13121   0.74230   0.38150   0.00000  Uiso   1.00
N450   N     0.23349   0.96771   0.45595   0.00000  Uiso   1.00
N451   N     0.09959   0.69829   0.04396   0.00000  Uiso   1.00
N452   N     0.24109   0.67096   0.22054   0.00000  Uiso   1.00
O453   O     0.12975   0.91286   0.25299   0.00000  Uiso   1.00
O454   O     0.20358   0.75381   0.24702   0.00000  Uiso   1.00
O455   O     0.22613   0.90387   0.24519   0.00000  Uiso   1.00
O456   O     0.10720   0.76279   0.25482   0.00000  Uiso   1.00
O457   O     0.11847   0.83784   0.31998   0.00000  Uiso   1.00
O458   O     0.21486   0.82883   0.18003   0.00000  Uiso   1.00
O459   O     0.21485   0.82885   0.31218   0.00000  Uiso   1.00
O460   O     0.11848   0.83781   0.18783   0.00000  Uiso   1.00
Zn461  Zn    0.10231   0.83933   0.25521   0.00000  Uiso   1.00
Zn462  Zn    0.23102   0.82734   0.24479   0.00000  Uiso   1.00
C463   C     0.51480   0.93129   0.24936   0.00000  Uiso   1.00
C464   C     0.52091   0.87818   0.40613   0.00000  Uiso   1.00
C465   C     0.49799   0.83297   0.11627   0.00000  Uiso   1.00
C466   C     0.50190   0.83308   0.38364   0.00000  Uiso   1.00
C467   C     0.51762   0.87762   0.09377   0.00000  Uiso   1.00
C468   C     0.48250   0.78827   0.40602   0.00000  Uiso   1.00
C469   C     0.51896   0.87738   0.04719   0.00000  Uiso   1.00
C470   C     0.48087   0.78856   0.45265   0.00000  Uiso   1.00
C471   C     0.49910   0.83271   0.02348   0.00000  Uiso   1.00
C472   C     0.50057   0.83327   0.47639   0.00000  Uiso   1.00
C473   C     0.47798   0.78759   0.04681   0.00000  Uiso   1.00
C474   C     0.48520   0.73546   0.25136   0.00000  Uiso   1.00
C475   C     0.52168   0.87842   0.45310   0.00000  Uiso   1.00
C476   C     0.54057   0.92112   0.02409   0.00000  Uiso   1.00
C477   C     0.45926   0.74482   0.47577   0.00000  Uiso   1.00
C478   C     0.54249   0.92216   0.47761   0.00000  Uiso   1.00
C479   C     0.45722   0.74384   0.02228   0.00000  Uiso   1.00
C480   C     0.52184   0.98497   0.24405   0.00000  Uiso   1.00
C481   C     0.47804   0.68222   0.25780   0.00000  Uiso   1.00
C482   C     0.50060   0.83328   0.33618   0.00000  Uiso   1.00
C483   C     0.49933   0.83299   0.16379   0.00000  Uiso   1.00
C484   C     0.47872   0.78790   0.09382   0.00000  Uiso   1.00
H485   H     0.55667   0.95524   0.04192   0.00000  Uiso   1.00
H486   H     0.49845   0.73141   0.35897   0.00000  Uiso   1.00
H487   H     0.54363   0.99917   0.46816   0.00000  Uiso   1.00
H488   H     0.60903   0.97397   0.46490   0.00000  Uiso   1.00
H489   H     0.39073   0.69200   0.03498   0.00000  Uiso   1.00
H490   H     0.45616   0.66684   0.03177   0.00000  Uiso   1.00
H491   H     0.60893   0.99526   0.23869   0.00000  Uiso   1.00
H492   H     0.57889   0.98592   0.18895   0.00000  Uiso   1.00
H493   H     0.43435   0.97686   0.31022   0.00000  Uiso   1.00
H494   H     0.39811   0.97892   0.26156   0.00000  Uiso   1.00
H495   H     0.66281   0.75188   0.20837   0.00000  Uiso   1.00
H496   H     0.44323   0.71069   0.45791   0.00000  Uiso   1.00
H497   H     0.66386   0.80173   0.17370   0.00000  Uiso   1.00
H498   H     0.33584   0.91355   0.29357   0.00000  Uiso   1.00
H499   H     0.33695   0.86263   0.32680   0.00000  Uiso   1.00
H500   H     0.49639   0.73203   0.13648   0.00000  Uiso   1.00
H501   H     0.42740   0.75027   0.14173   0.00000  Uiso   1.00
H502   H     0.57213   0.91609   0.35830   0.00000  Uiso   1.00
H503   H     0.50303   0.93406   0.36355   0.00000  Uiso   1.00
H504   H     0.50327   0.93440   0.14116   0.00000  Uiso   1.00
H505   H     0.57172   0.91459   0.13566   0.00000  Uiso   1.00
H506   H     0.42977   0.75040   0.36330   0.00000  Uiso   1.00
N507   N     0.65011   0.81932   0.23783   0.00000  Uiso   1.00
N508   N     0.42563   0.99874   0.28289   0.00000  Uiso   1.00
N509   N     0.34453   0.79016   0.20408   0.00000  Uiso   1.00
N510   N     0.65537   0.87489   0.29697   0.00000  Uiso   1.00
N511   N     0.34989   0.84735   0.26217   0.00000  Uiso   1.00
N512   N     0.46195   0.74228   0.11880   0.00000  Uiso   1.00
N513   N     0.53751   0.92390   0.38122   0.00000  Uiso   1.00
N514   N     0.53658   0.92330   0.11814   0.00000  Uiso   1.00
N515   N     0.46454   0.74230   0.38150   0.00000  Uiso   1.00
N516   N     0.56682   0.96771   0.45595   0.00000  Uiso   1.00
N517   N     0.43292   0.69829   0.04396   0.00000  Uiso   1.00
N518   N     0.57442   0.67096   0.22054   0.00000  Uiso   1.00
O519   O     0.46308   0.91286   0.25299   0.00000  Uiso   1.00
O520   O     0.53692   0.75381   0.24702   0.00000  Uiso   1.00
O521   O     0.55946   0.90387   0.24519   0.00000  Uiso   1.00
O522   O     0.44054   0.76279   0.25482   0.00000  Uiso   1.00
O523   O     0.45181   0.83784   0.31998   0.00000  Uiso   1.00
O524   O     0.54819   0.82883   0.18003   0.00000  Uiso   1.00
O525   O     0.54819   0.82885   0.31218   0.00000  Uiso   1.00
O526   O     0.45181   0.83781   0.18783   0.00000  Uiso   1.00
Zn527  Zn    0.43565   0.83933   0.25521   0.00000  Uiso   1.00
Zn528  Zn    0.56435   0.82734   0.24479   0.00000  Uiso   1.00
C529   C     0.84813   0.93129   0.24936   0.00000  Uiso   1.00
C530   C     0.85425   0.87818   0.40613   0.00000  Uiso   1.00
C531   C     0.83132   0.83297   0.11627   0.00000  Uiso   1.00
C532   C     0.83523   0.83308   0.38364   0.00000  Uiso   1.00
C533   C     0.85096   0.87762   0.09377   0.00000  Uiso   1.00
C534   C     0.81584   0.78827   0.40602   0.00000  Uiso   1.00
C535   C     0.85229   0.87738   0.04719   0.00000  Uiso   1.00
C536   C     0.81421   0.78856   0.45265   0.00000  Uiso   1.00
C537   C     0.83244   0.83271   0.02348   0.00000  Uiso   1.00
C538   C     0.83391   0.83327   0.47639   0.00000  Uiso   1.00
C539   C     0.81132   0.78759   0.04681   0.00000  Uiso   1.00
C540   C     0.81854   0.73546   0.25136   0.00000  Uiso   1.00
C541   C     0.85501   0.87842   0.45310   0.00000  Uiso   1.00
C542   C     0.87390   0.92112   0.02409   0.00000  Uiso   1.00
C543   C     0.79259   0.74482   0.47577   0.00000  Uiso   1.00
C544   C     0.87583   0.92216   0.47761   0.00000  Uiso   1.00
C545   C     0.79055   0.74384   0.02228   0.00000  Uiso   1.00
C546   C     0.85517   0.98497   0.24405   0.00000  Uiso   1.00
C547   C     0.81137   0.68222   0.25780   0.00000  Uiso   1.00
C548   C     0.83394   0.83328   0.33618   0.00000  Uiso   1.00
C549   C     0.83266   0.83299   0.16379   0.00000  Uiso   1.00
C550   C     0.81206   0.78790   0.09382   0.00000  Uiso   1.00
H551   H     0.89000   0.95524   0.04192   0.00000  Uiso   1.00
H552   H     0.83179   0.73141   0.35897   0.00000  Uiso   1.00
H553   H     0.87696   0.99917   0.46816   0.00000  Uiso   1.00
H554   H     0.94237   0.97397   0.46490   0.00000  Uiso   1.00
H555   H     0.72406   0.69200   0.03498   0.00000  Uiso   1.00
H556   H     0.78949   0.66684   0.03177   0.00000  Uiso   1.00
H557   H     0.94226   0.99526   0.23869   0.00000  Uiso   1.00
H558   H     0.91222   0.98592   0.18895   0.00000  Uiso   1.00
H559   H     0.76768   0.97686   0.31022   0.00000  Uiso   1.00
H560   H     0.73144   0.97892   0.26156   0.00000  Uiso   1.00
H561   H     0.99615   0.75188   0.20837   0.00000  Uiso   1.00
H562   H     0.77657   0.71069   0.45791   0.00000  Uiso   1.00
H563   H     0.99719   0.80173   0.17370   0.00000  Uiso   1.00
H564   H     0.66917   0.91355   0.29357   0.00000  Uiso   1.00
H565   H     0.67028   0.86263   0.32680   0.00000  Uiso   1.00
H566   H     0.82972   0.73203   0.13648   0.00000  Uiso   1.00
H567   H     0.76073   0.75027   0.14173   0.00000  Uiso   1.00
H568   H     0.90547   0.91609   0.35830   0.00000  Uiso   1.00
H569   H     0.83637   0.93406   0.36355   0.00000  Uiso   1.00
H570   H     0.83660   0.93440   0.14116   0.00000  Uiso   1.00
H571   H     0.90505   0.91459   0.13566   0.00000  Uiso   1.00
H572   H     0.76310   0.75040   0.36330   0.00000  Uiso   1.00
N573   N     0.98344   0.81932   0.23783   0.00000  Uiso   1.00
N574   N     0.75896   0.99874   0.28289   0.00000  Uiso   1.00
N575   N     0.67786   0.79016   0.20408   0.00000  Uiso   1.00
N576   N     0.98870   0.87489   0.29697   0.00000  Uiso   1.00
N577   N     0.68322   0.84735   0.26217   0.00000  Uiso   1.00
N578   N     0.79528   0.74228   0.11880   0.00000  Uiso   1.00
N579   N     0.87084   0.92390   0.38122   0.00000  Uiso   1.00
N580   N     0.86991   0.92330   0.11814   0.00000  Uiso   1.00
N581   N     0.79787   0.74230   0.38150   0.00000  Uiso   1.00
N582   N     0.90016   0.96771   0.45595   0.00000  Uiso   1.00
N583   N     0.76625   0.69829   0.04396   0.00000  Uiso   1.00
N584   N     0.90775   0.67096   0.22054   0.00000  Uiso   1.00
O585   O     0.79642   0.91286   0.25299   0.00000  Uiso   1.00
O586   O     0.87025   0.75381   0.24702   0.00000  Uiso   1.00
O587   O     0.89280   0.90387   0.24519   0.00000  Uiso   1.00
O588   O     0.77387   0.76279   0.25482   0.00000  Uiso   1.00
O589   O     0.78514   0.83784   0.31998   0.00000  Uiso   1.00
O590   O     0.88153   0.82883   0.18003   0.00000  Uiso   1.00
O591   O     0.88152   0.82885   0.31218   0.00000  Uiso   1.00
O592   O     0.78515   0.83781   0.18783   0.00000  Uiso   1.00
Zn593  Zn    0.76898   0.83933   0.25521   0.00000  Uiso   1.00
Zn594  Zn    0.89769   0.82734   0.24479   0.00000  Uiso   1.00
C595   C     0.18147   0.26462   0.74936   0.00000  Uiso   1.00
C596   C     0.18758   0.21151   0.90613   0.00000  Uiso   1.00
C597   C     0.16465   0.16630   0.61627   0.00000  Uiso   1.00
C598   C     0.16857   0.16641   0.88364   0.00000  Uiso   1.00
C599   C     0.18429   0.21095   0.59377   0.00000  Uiso   1.00
C600   C     0.14917   0.12160   0.90602   0.00000  Uiso   1.00
C601   C     0.18563   0.21071   0.54719   0.00000  Uiso   1.00
C602   C     0.14754   0.12189   0.95265   0.00000  Uiso   1.00
C603   C     0.16577   0.16604   0.52348   0.00000  Uiso   1.00
C604   C     0.16724   0.16661   0.97639   0.00000  Uiso   1.00
C605   C     0.14465   0.12093   0.54681   0.00000  Uiso   1.00
C606   C     0.15187   0.06879   0.75136   0.00000  Uiso   1.00
C607   C     0.18834   0.21176   0.95310   0.00000  Uiso   1.00
C608   C     0.20724   0.25445   0.52409   0.00000  Uiso   1.00
C609   C     0.12592   0.07815   0.97577   0.00000  Uiso   1.00
C610   C     0.20916   0.25549   0.97761   0.00000  Uiso   1.00
C611   C     0.12389   0.07717   0.52228   0.00000  Uiso   1.00
C612   C     0.18851   0.31830   0.74405   0.00000  Uiso   1.00
C613   C     0.14471   0.01555   0.75780   0.00000  Uiso   1.00
C614   C     0.16727   0.16661   0.83618   0.00000  Uiso   1.00
C615   C     0.16599   0.16632   0.66379   0.00000  Uiso   1.00
C616   C     0.14539   0.12123   0.59382   0.00000  Uiso   1.00
H617   H     0.22334   0.28857   0.54192   0.00000  Uiso   1.00
H618   H     0.16512   0.06474   0.85897   0.00000  Uiso   1.00
H619   H     0.21029   0.33251   0.96816   0.00000  Uiso   1.00
H620   H     0.27570   0.30730   0.96490   0.00000  Uiso   1.00
H621   H     0.05739   0.02533   0.53498   0.00000  Uiso   1.00
H622   H     0.12282   0.00017   0.53177   0.00000  Uiso   1.00
H623   H     0.27560   0.32859   0.73869   0.00000  Uiso   1.00
H624   H     0.24555   0.31925   0.68895   0.00000  Uiso   1.00
H625   H     0.10102   0.31020   0.81022   0.00000  Uiso   1.00
H626   H     0.06478   0.31226   0.76156   0.00000  Uiso   1.00
H627   H     0.32948   0.08521   0.70837   0.00000  Uiso   1.00
H628   H     0.10990   0.04402   0.95791   0.00000  Uiso   1.00
H629   H     0.33053   0.13506   0.67370   0.00000  Uiso   1.00
H630   H     0.00251   0.24689   0.79357   0.00000  Uiso   1.00
H631   H     0.00362   0.19596   0.82680   0.00000  Uiso   1.00
H632   H     0.16305   0.06536   0.63648   0.00000  Uiso   1.00
H633   H     0.09406   0.08361   0.64173   0.00000  Uiso   1.00
H634   H     0.23880   0.24942   0.85830   0.00000  Uiso   1.00
H635   H     0.16970   0.26740   0.86355   0.00000  Uiso   1.00
H636   H     0.16994   0.26774   0.64116   0.00000  Uiso   1.00
H637   H     0.23838   0.24792   0.63566   0.00000  Uiso   1.00
H638   H     0.09644   0.08373   0.86330   0.00000  Uiso   1.00
N639   N     0.31678   0.15265   0.73783   0.00000  Uiso   1.00
N640   N     0.09229   0.33208   0.78289   0.00000  Uiso   1.00
N641   N     0.01119   0.12349   0.70408   0.00000  Uiso   1.00
N642   N     0.32203   0.20822   0.79697   0.00000  Uiso   1.00
N643   N     0.01656   0.18068   0.76217   0.00000  Uiso   1.00
N644   N     0.12862   0.07561   0.61880   0.00000  Uiso   1.00
N645   N     0.20418   0.25723   0.88122   0.00000  Uiso   1.00
N646   N     0.20324   0.25663   0.61814   0.00000  Uiso   1.00
N647   N     0.13121   0.07564   0.88150   0.00000  Uiso   1.00
N648   N     0.23349   0.30104   0.95595   0.00000  Uiso   1.00
N649   N     0.09959   0.03163   0.54396   0.00000  Uiso   1.00
N650   N     0.24109   0.00429   0.72054   0.00000  Uiso   1.00
O651   O     0.12975   0.24619   0.75299   0.00000  Uiso   1.00
O652   O     0.20358   0.08714   0.74702   0.00000  Uiso   1.00
O653   O     0.22613   0.23721   0.74519   0.00000  Uiso   1.00
O654   O     0.10720   0.09613   0.75482   0.00000  Uiso   1.00
O655   O     0.11847   0.17117   0.81998   0.00000  Uiso   1.00
O656   O     0.21486   0.16216   0.68003   0.00000  Uiso   1.00
O657   O     0.21485   0.16219   0.81218   0.00000  Uiso   1.00
O658   O     0.11848   0.17115   0.68783   0.00000  Uiso   1.00
Zn659  Zn    0.10231   0.17266   0.75521   0.00000  Uiso   1.00
Zn660  Zn    0.23102   0.16067   0.74479   0.00000  Uiso   1.00
C661   C     0.51480   0.26462   0.74936   0.00000  Uiso   1.00
C662   C     0.52091   0.21151   0.90613   0.00000  Uiso   1.00
C663   C     0.49799   0.16630   0.61627   0.00000  Uiso   1.00
C664   C     0.50190   0.16641   0.88364   0.00000  Uiso   1.00
C665   C     0.51762   0.21095   0.59377   0.00000  Uiso   1.00
C666   C     0.48250   0.12160   0.90602   0.00000  Uiso   1.00
C667   C     0.51896   0.21071   0.54719   0.00000  Uiso   1.00
C668   C     0.48087   0.12189   0.95265   0.00000  Uiso   1.00
C669   C     0.49910   0.16604   0.52348   0.00000  Uiso   1.00
C670   C     0.50057   0.16661   0.97639   0.00000  Uiso   1.00
C671   C     0.47798   0.12093   0.54681   0.00000  Uiso   1.00
C672   C     0.48520   0.06879   0.75136   0.00000  Uiso   1.00
C673   C     0.52168   0.21176   0.95310   0.00000  Uiso   1.00
C674   C     0.54057   0.25445   0.52409   0.00000  Uiso   1.00
C675   C     0.45926   0.07815   0.97577   0.00000  Uiso   1.00
C676   C     0.54249   0.25549   0.97761   0.00000  Uiso   1.00
C677   C     0.45722   0.07717   0.52228   0.00000  Uiso   1.00
C678   C     0.52184   0.31830   0.74405   0.00000  Uiso   1.00
C679   C     0.47804   0.01555   0.75780   0.00000  Uiso   1.00
C680   C     0.50060   0.16661   0.83618   0.00000  Uiso   1.00
C681   C     0.49933   0.16632   0.66379   0.00000  Uiso   1.00
C682   C     0.47872   0.12123   0.59382   0.00000  Uiso   1.00
H683   H     0.55667   0.28857   0.54192   0.00000  Uiso   1.00
H684   H     0.49845   0.06474   0.85897   0.00000  Uiso   1.00
H685   H     0.54363   0.33251   0.96816   0.00000  Uiso   1.00
H686   H     0.60903   0.30730   0.96490   0.00000  Uiso   1.00
H687   H     0.39073   0.02533   0.53498   0.00000  Uiso   1.00
H688   H     0.45616   0.00017   0.53177   0.00000  Uiso   1.00
H689   H     0.60893   0.32859   0.73869   0.00000  Uiso   1.00
H690   H     0.57889   0.31925   0.68895   0.00000  Uiso   1.00
H691   H     0.43435   0.31020   0.81022   0.00000  Uiso   1.00
H692   H     0.39811   0.31226   0.76156   0.00000  Uiso   1.00
H693   H     0.66281   0.08521   0.70837   0.00000  Uiso   1.00
H694   H     0.44323   0.04402   0.95791   0.00000  Uiso   1.00
H695   H     0.66386   0.13506   0.67370   0.00000  Uiso   1.00
H696   H     0.33584   0.24689   0.79357   0.00000  Uiso   1.00
H697   H     0.33695   0.19596   0.82680   0.00000  Uiso   1.00
H698   H     0.49639   0.06536   0.63648   0.00000  Uiso   1.00
H699   H     0.42740   0.08361   0.64173   0.00000  Uiso   1.00
H700   H     0.57213   0.24942   0.85830   0.00000  Uiso   1.00
H701   H     0.50303   0.26740   0.86355   0.00000  Uiso   1.00
H702   H     0.50327   0.26774   0.64116   0.00000  Uiso   1.00
H703   H     0.57172   0.24792   0.63566   0.00000  Uiso   1.00
H704   H     0.42977   0.08373   0.86330   0.00000  Uiso   1.00
N705   N     0.65011   0.15265   0.73783   0.00000  Uiso   1.00
N706   N     0.42563   0.33208   0.78289   0.00000  Uiso   1.00
N707   N     0.34453   0.12349   0.70408   0.00000  Uiso   1.00
N708   N     0.65537   0.20822   0.79697   0.00000  Uiso   1.00
N709   N     0.34989   0.18068   0.76217   0.00000  Uiso   1.00
N710   N     0.46195   0.07561   0.61880   0.00000  Uiso   1.00
N711   N     0.53751   0.25723   0.88122   0.00000  Uiso   1.00
N712   N     0.53658   0.25663   0.61814   0.00000  Uiso   1.00
N713   N     0.46454   0.07564   0.88150   0.00000  Uiso   1.00
N714   N     0.56682   0.30104   0.95595   0.00000  Uiso   1.00
N715   N     0.43292   0.03163   0.54396   0.00000  Uiso   1.00
N716   N     0.57442   0.00429   0.72054   0.00000  Uiso   1.00
O717   O     0.46308   0.24619   0.75299   0.00000  Uiso   1.00
O718   O     0.53692   0.08714   0.74702   0.00000  Uiso   1.00
O719   O     0.55946   0.23721   0.74519   0.00000  Uiso   1.00
O720   O     0.44054   0.09613   0.75482   0.00000  Uiso   1.00
O721   O     0.45181   0.17117   0.81998   0.00000  Uiso   1.00
O722   O     0.54819   0.16216   0.68003   0.00000  Uiso   1.00
O723   O     0.54819   0.16219   0.81218   0.00000  Uiso   1.00
O724   O     0.45181   0.17115   0.68783   0.00000  Uiso   1.00
Zn725  Zn    0.43565   0.17266   0.75521   0.00000  Uiso   1.00
Zn726  Zn    0.56435   0.16067   0.74479   0.00000  Uiso   1.00
C727   C     0.84813   0.26462   0.74936   0.00000  Uiso   1.00
C728   C     0.85425   0.21151   0.90613   0.00000  Uiso   1.00
C729   C     0.83132   0.16630   0.61627   0.00000  Uiso   1.00
C730   C     0.83523   0.16641   0.88364   0.00000  Uiso   1.00
C731   C     0.85096   0.21095   0.59377   0.00000  Uiso   1.00
C732   C     0.81584   0.12160   0.90602   0.00000  Uiso   1.00
C733   C     0.85229   0.21071   0.54719   0.00000  Uiso   1.00
C734   C     0.81421   0.12189   0.95265   0.00000  Uiso   1.00
C735   C     0.83244   0.16604   0.52348   0.00000  Uiso   1.00
C736   C     0.83391   0.16661   0.97639   0.00000  Uiso   1.00
C737   C     0.81132   0.12093   0.54681   0.00000  Uiso   1.00
C738   C     0.81854   0.06879   0.75136   0.00000  Uiso   1.00
C739   C     0.85501   0.21176   0.95310   0.00000  Uiso   1.00
C740   C     0.87390   0.25445   0.52409   0.00000  Uiso   1.00
C741   C     0.79259   0.07815   0.97577   0.00000  Uiso   1.00
C742   C     0.87583   0.25549   0.97761   0.00000  Uiso   1.00
C743   C     0.79055   0.07717   0.52228   0.00000  Uiso   1.00
C744   C     0.85517   0.31830   0.74405   0.00000  Uiso   1.00
C745   C     0.81137   0.01555   0.75780   0.00000  Uiso   1.00
C746   C     0.83394   0.16661   0.83618   0.00000  Uiso   1.00
C747   C     0.83266   0.16632   0.66379   0.00000  Uiso   1.00
C748   C     0.81206   0.12123   0.59382   0.00000  Uiso   1.00
H749   H     0.89000   0.28857   0.54192   0.00000  Uiso   1.00
H750   H     0.83179   0.06474   0.85897   0.00000  Uiso   1.00
H751   H     0.87696   0.33251   0.96816   0.00000  Uiso   1.00
H752   H     0.94237   0.30730   0.96490   0.00000  Uiso   1.00
H753   H     0.72406   0.02533   0.53498   0.00000  Uiso   1.00
H754   H     0.78949   0.00017   0.53177   0.00000  Uiso   1.00
H755   H     0.94226   0.32859   0.73869   0.00000  Uiso   1.00
H756   H     0.91222   0.31925   0.68895   0.00000  Uiso   1.00
H757   H     0.76768   0.31020   0.81022   0.00000  Uiso   1.00
H758   H     0.73144   0.31226   0.76156   0.00000  Uiso   1.00
H759   H     0.99615   0.08521   0.70837   0.00000  Uiso   1.00
H760   H     0.77657   0.04402   0.95791   0.00000  Uiso   1.00
H761   H     0.99719   0.13506   0.67370   0.00000  Uiso   1.00
H762   H     0.66917   0.24689   0.79357   0.00000  Uiso   1.00
H763   H     0.67028   0.19596   0.82680   0.00000  Uiso   1.00
H764   H     0.82972   0.06536   0.63648   0.00000  Uiso   1.00
H765   H     0.76073   0.08361   0.64173   0.00000  Uiso   1.00
H766   H     0.90547   0.24942   0.85830   0.00000  Uiso   1.00
H767   H     0.83637   0.26740   0.86355   0.00000  Uiso   1.00
H768   H     0.83660   0.26774   0.64116   0.00000  Uiso   1.00
H769   H     0.90505   0.24792   0.63566   0.00000  Uiso   1.00
H770   H     0.76310   0.08373   0.86330   0.00000  Uiso   1.00
N771   N     0.98344   0.15265   0.73783   0.00000  Uiso   1.00
N772   N     0.75896   0.33208   0.78289   0.00000  Uiso   1.00
N773   N     0.67786   0.12349   0.70408   0.00000  Uiso   1.00
N774   N     0.98870   0.20822   0.79697   0.00000  Uiso   1.00
N775   N     0.68322   0.18068   0.76217   0.00000  Uiso   1.00
N776   N     0.79528   0.07561   0.61880   0.00000  Uiso   1.00
N777   N     0.87084   0.25723   0.88122   0.00000  Uiso   1.00
N778   N     0.86991   0.25663   0.61814   0.00000  Uiso   1.00
N779   N     0.79787   0.07564   0.88150   0.00000  Uiso   1.00
N780   N     0.90016   0.30104   0.95595   0.00000  Uiso   1.00
N781   N     0.76625   0.03163   0.54396   0.00000  Uiso   1.00
N782   N     0.90775   0.00429   0.72054   0.00000  Uiso   1.00
O783   O     0.79642   0.24619   0.75299   0.00000  Uiso   1.00
O784   O     0.87025   0.08714   0.74702   0.00000  Uiso   1.00
O785   O     0.89280   0.23721   0.74519   0.00000  Uiso   1.00
O786   O     0.77387   0.09613   0.75482   0.00000  Uiso   1.00
O787   O     0.78514   0.17117   0.81998   0.00000  Uiso   1.00
O788   O     0.88153   0.16216   0.68003   0.00000  Uiso   1.00
O789   O     0.88152   0.16219   0.81218   0.00000  Uiso   1.00
O790   O     0.78515   0.17115   0.68783   0.00000  Uiso   1.00
Zn791  Zn    0.76898   0.17266   0.75521   0.00000  Uiso   1.00
Zn792  Zn    0.89769   0.16067   0.74479   0.00000  Uiso   1.00
C793   C     0.18147   0.59796   0.74936   0.00000  Uiso   1.00
C794   C     0.18758   0.54485   0.90613   0.00000  Uiso   1.00
C795   C     0.16465   0.49963   0.61627   0.00000  Uiso   1.00
C796   C     0.16857   0.49975   0.88364   0.00000  Uiso   1.00
C797   C     0.18429   0.54428   0.59377   0.00000  Uiso   1.00
C798   C     0.14917   0.45493   0.90602   0.00000  Uiso   1.00
C799   C     0.18563   0.54404   0.54719   0.00000  Uiso   1.00
C800   C     0.14754   0.45522   0.95265   0.00000  Uiso   1.00
C801   C     0.16577   0.49938   0.52348   0.00000  Uiso   1.00
C802   C     0.16724   0.49994   0.97639   0.00000  Uiso   1.00
C803   C     0.14465   0.45426   0.54681   0.00000  Uiso   1.00
C804   C     0.15187   0.40212   0.75136   0.00000  Uiso   1.00
C805   C     0.18834   0.54509   0.95310   0.00000  Uiso   1.00
C806   C     0.20724   0.58779   0.52409   0.00000  Uiso   1.00
C807   C     0.12592   0.41149   0.97577   0.00000  Uiso   1.00
C808   C     0.20916   0.58883   0.97761   0.00000  Uiso   1.00
C809   C     0.12389   0.41050   0.52228   0.00000  Uiso   1.00
C810   C     0.18851   0.65163   0.74405   0.00000  Uiso   1.00
C811   C     0.14471   0.34889   0.75780   0.00000  Uiso   1.00
C812   C     0.16727   0.49994   0.83618   0.00000  Uiso   1.00
C813   C     0.16599   0.49965   0.66379   0.00000  Uiso   1.00
C814   C     0.14539   0.45457   0.59382   0.00000  Uiso   1.00
H815   H     0.22334   0.62190   0.54192   0.00000  Uiso   1.00
H816   H     0.16512   0.39808   0.85897   0.00000  Uiso   1.00
H817   H     0.21029   0.66584   0.96816   0.00000  Uiso   1.00
H818   H     0.27570   0.64063   0.96490   0.00000  Uiso   1.00
H819   H     0.05739   0.35867   0.53498   0.00000  Uiso   1.00
H820   H     0.12282   0.33350   0.53177   0.00000  Uiso   1.00
H821   H     0.27560   0.66192   0.73869   0.00000  Uiso   1.00
H822   H     0.24555   0.65259   0.68895   0.00000  Uiso   1.00
H823   H     0.10102   0.64353   0.81022   0.00000  Uiso   1.00
H824   H     0.06478   0.64559   0.76156   0.00000  Uiso   1.00
H825   H     0.32948   0.41854   0.70837   0.00000  Uiso   1.00
H826   H     0.10990   0.37736   0.95791   0.00000  Uiso   1.00
H827   H     0.33053   0.46839   0.67370   0.00000  Uiso   1.00
H828   H     0.00251   0.58022   0.79357   0.00000  Uiso   1.00
H829   H     0.00362   0.52930   0.82680   0.00000  Uiso   1.00
H830   H     0.16305   0.39869   0.63648   0.00000  Uiso   1.00
H831   H     0.09406   0.41694   0.64173   0.00000  Uiso   1.00
H832   H     0.23880   0.58275   0.85830   0.00000  Uiso   1.00
H833   H     0.16970   0.60073   0.86355   0.00000  Uiso   1.00
H834   H     0.16994   0.60107   0.64116   0.00000  Uiso   1.00
H835   H     0.23838   0.58125   0.63566   0.00000  Uiso   1.00
H836   H     0.09644   0.41706   0.86330   0.00000  Uiso   1.00
N837   N     0.31678   0.48598   0.73783   0.00000  Uiso   1.00
N838   N     0.09229   0.66541   0.78289   0.00000  Uiso   1.00
N839   N     0.01119   0.45682   0.70408   0.00000  Uiso   1.00
N840   N     0.32203   0.54155   0.79697   0.00000  Uiso   1.00
N841   N     0.01656   0.51402   0.76217   0.00000  Uiso   1.00
N842   N     0.12862   0.40894   0.61880   0.00000  Uiso   1.00
N843   N     0.20418   0.59056   0.88122   0.00000  Uiso   1.00
N844   N     0.20324   0.58996   0.61814   0.00000  Uiso   1.00
N845   N     0.13121   0.40897   0.88150   0.00000  Uiso   1.00
N846   N     0.23349   0.63437   0.95595   0.00000  Uiso   1.00
N847   N     0.09959   0.36496   0.54396   0.00000  Uiso   1.00
N848   N     0.24109   0.33762   0.72054   0.00000  Uiso   1.00
O849   O     0.12975   0.57952   0.75299   0.00000  Uiso   1.00
O850   O     0.20358   0.42048   0.74702   0.00000  Uiso   1.00
O851   O     0.22613   0.57054   0.74519   0.00000  Uiso   1.00
O852   O     0.10720   0.42946   0.75482   0.00000  Uiso   1.00
O853   O     0.11847   0.50450   0.81998   0.00000  Uiso   1.00
O854   O     0.21486   0.49550   0.68003   0.00000  Uiso   1.00
O855   O     0.21485   0.49552   0.81218   0.00000  Uiso   1.00
O856   O     0.11848   0.50448   0.68783   0.00000  Uiso   1.00
Zn857  Zn    0.10231   0.50600   0.75521   0.00000  Uiso   1.00
Zn858  Zn    0.23102   0.49400   0.74479   0.00000  Uiso   1.00
C859   C     0.51480   0.59796   0.74936   0.00000  Uiso   1.00
C860   C     0.52091   0.54485   0.90613   0.00000  Uiso   1.00
C861   C     0.49799   0.49963   0.61627   0.00000  Uiso   1.00
C862   C     0.50190   0.49975   0.88364   0.00000  Uiso   1.00
C863   C     0.51762   0.54428   0.59377   0.00000  Uiso   1.00
C864   C     0.48250   0.45493   0.90602   0.00000  Uiso   1.00
C865   C     0.51896   0.54404   0.54719   0.00000  Uiso   1.00
C866   C     0.48087   0.45522   0.95265   0.00000  Uiso   1.00
C867   C     0.49910   0.49938   0.52348   0.00000  Uiso   1.00
C868   C     0.50057   0.49994   0.97639   0.00000  Uiso   1.00
C869   C     0.47798   0.45426   0.54681   0.00000  Uiso   1.00
C870   C     0.48520   0.40212   0.75136   0.00000  Uiso   1.00
C871   C     0.52168   0.54509   0.95310   0.00000  Uiso   1.00
C872   C     0.54057   0.58779   0.52409   0.00000  Uiso   1.00
C873   C     0.45926   0.41149   0.97577   0.00000  Uiso   1.00
C874   C     0.54249   0.58883   0.97761   0.00000  Uiso   1.00
C875   C     0.45722   0.41050   0.52228   0.00000  Uiso   1.00
C876   C     0.52184   0.65163   0.74405   0.00000  Uiso   1.00
C877   C     0.47804   0.34889   0.75780   0.00000  Uiso   1.00
C878   C     0.50060   0.49994   0.83618   0.00000  Uiso   1.00
C879   C     0.49933   0.49965   0.66379   0.00000  Uiso   1.00
C880   C     0.47872   0.45457   0.59382   0.00000  Uiso   1.00
H881   H     0.55667   0.62190   0.54192   0.00000  Uiso   1.00
H882   H     0.49845   0.39808   0.85897   0.00000  Uiso   1.00
H883   H     0.54363   0.66584   0.96816   0.00000  Uiso   1.00
H884   H     0.60903   0.64063   0.96490   0.00000  Uiso   1.00
H885   H     0.39073   0.35867   0.53498   0.00000  Uiso   1.00
H886   H     0.45616   0.33350   0.53177   0.00000  Uiso   1.00
H887   H     0.60893   0.66192   0.73869   0.00000  Uiso   1.00
H888   H     0.57889   0.65259   0.68895   0.00000  Uiso   1.00
H889   H     0.43435   0.64353   0.81022   0.00000  Uiso   1.00
H890   H     0.39811   0.64559   0.76156   0.00000  Uiso   1.00
H891   H     0.66281   0.41854   0.70837   0.00000  Uiso   1.00
H892   H     0.44323   0.37736   0.95791   0.00000  Uiso   1.00
H893   H     0.66386   0.46839   0.67370   0.00000  Uiso   1.00
H894   H     0.33584   0.58022   0.79357   0.00000  Uiso   1.00
H895   H     0.33695   0.52930   0.82680   0.00000  Uiso   1.00
H896   H     0.49639   0.39869   0.63648   0.00000  Uiso   1.00
H897   H     0.42740   0.41694   0.64173   0.00000  Uiso   1.00
H898   H     0.57213   0.58275   0.85830   0.00000  Uiso   1.00
H899   H     0.50303   0.60073   0.86355   0.00000  Uiso   1.00
H900   H     0.50327   0.60107   0.64116   0.00000  Uiso   1.00
H901   H     0.57172   0.58125   0.63566   0.00000  Uiso   1.00
H902   H     0.42977   0.41706   0.86330   0.00000  Uiso   1.00
N903   N     0.65011   0.48598   0.73783   0.00000  Uiso   1.00
N904   N     0.42563   0.66541   0.78289   0.00000  Uiso   1.00
N905   N     0.34453   0.45682   0.70408   0.00000  Uiso   1.00
N906   N     0.65537   0.54155   0.79697   0.00000  Uiso   1.00
N907   N     0.34989   0.51402   0.76217   0.00000  Uiso   1.00
N908   N     0.46195   0.40894   0.61880   0.00000  Uiso   1.00
N909   N     0.53751   0.59056   0.88122   0.00000  Uiso   1.00
N910   N     0.53658   0.58996   0.61814   0.00000  Uiso   1.00
N911   N     0.46454   0.40897   0.88150   0.00000  Uiso   1.00
N912   N     0.56682   0.63437   0.95595   0.00000  Uiso   1.00
N913   N     0.43292   0.36496   0.54396   0.00000  Uiso   1.00
N914   N     0.57442   0.33762   0.72054   0.00000  Uiso   1.00
O915   O     0.46308   0.57952   0.75299   0.00000  Uiso   1.00
O916   O     0.53692   0.42048   0.74702   0.00000  Uiso   1.00
O917   O     0.55946   0.57054   0.74519   0.00000  Uiso   1.00
O918   O     0.44054   0.42946   0.75482   0.00000  Uiso   1.00
O919   O     0.45181   0.50450   0.81998   0.00000  Uiso   1.00
O920   O     0.54819   0.49550   0.68003   0.00000  Uiso   1.00
O921   O     0.54819   0.49552   0.81218   0.00000  Uiso   1.00
O922   O     0.45181   0.50448   0.68783   0.00000  Uiso   1.00
Zn923  Zn    0.43565   0.50600   0.75521   0.00000  Uiso   1.00
Zn924  Zn    0.56435   0.49400   0.74479   0.00000  Uiso   1.00
C925   C     0.84813   0.59796   0.74936   0.00000  Uiso   1.00
C926   C     0.85425   0.54485   0.90613   0.00000  Uiso   1.00
C927   C     0.83132   0.49963   0.61627   0.00000  Uiso   1.00
C928   C     0.83523   0.49975   0.88364   0.00000  Uiso   1.00
C929   C     0.85096   0.54428   0.59377   0.00000  Uiso   1.00
C930   C     0.81584   0.45493   0.90602   0.00000  Uiso   1.00
C931   C     0.85229   0.54404   0.54719   0.00000  Uiso   1.00
C932   C     0.81421   0.45522   0.95265   0.00000  Uiso   1.00
C933   C     0.83244   0.49938   0.52348   0.00000  Uiso   1.00
C934   C     0.83391   0.49994   0.97639   0.00000  Uiso   1.00
C935   C     0.81132   0.45426   0.54681   0.00000  Uiso   1.00
C936   C     0.81854   0.40212   0.75136   0.00000  Uiso   1.00
C937   C     0.85501   0.54509   0.95310   0.00000  Uiso   1.00
C938   C     0.87390   0.58779   0.52409   0.00000  Uiso   1.00
C939   C     0.79259   0.41149   0.97577   0.00000  Uiso   1.00
C940   C     0.87583   0.58883   0.97761   0.00000  Uiso   1.00
C941   C     0.79055   0.41050   0.52228   0.00000  Uiso   1.00
C942   C     0.85517   0.65163   0.74405   0.00000  Uiso   1.00
C943   C     0.81137   0.34889   0.75780   0.00000  Uiso   1.00
C944   C     0.83394   0.49994   0.83618   0.00000  Uiso   1.00
C945   C     0.83266   0.49965   0.66379   0.00000  Uiso   1.00
C946   C     0.81206   0.45457   0.59382   0.00000  Uiso   1.00
H947   H     0.89000   0.62190   0.54192   0.00000  Uiso   1.00
H948   H     0.83179   0.39808   0.85897   0.00000  Uiso   1.00
H949   H     0.87696   0.66584   0.96816   0.00000  Uiso   1.00
H950   H     0.94237   0.64063   0.96490   0.00000  Uiso   1.00
H951   H     0.72406   0.35867   0.53498   0.00000  Uiso   1.00
H952   H     0.78949   0.33350   0.53177   0.00000  Uiso   1.00
H953   H     0.94226   0.66192   0.73869   0.00000  Uiso   1.00
H954   H     0.91222   0.65259   0.68895   0.00000  Uiso   1.00
H955   H     0.76768   0.64353   0.81022   0.00000  Uiso   1.00
H956   H     0.73144   0.64559   0.76156   0.00000  Uiso   1.00
H957   H     0.99615   0.41854   0.70837   0.00000  Uiso   1.00
H958   H     0.77657   0.37736   0.95791   0.00000  Uiso   1.00
H959   H     0.99719   0.46839   0.67370   0.00000  Uiso   1.00
H960   H     0.66917   0.58022   0.79357   0.00000  Uiso   1.00
H961   H     0.67028   0.52930   0.82680   0.00000  Uiso   1.00
H962   H     0.82972   0.39869   0.63648   0.00000  Uiso   1.00
H963   H     0.76073   0.41694   0.64173   0.00000  Uiso   1.00
H964   H     0.90547   0.58275   0.85830   0.00000  Uiso   1.00
H965   H     0.83637   0.60073   0.86355   0.00000  Uiso   1.00
H966   H     0.83660   0.60107   0.64116   0.00000  Uiso   1.00
H967   H     0.90505   0.58125   0.63566   0.00000  Uiso   1.00
H968   H     0.76310   0.41706   0.86330   0.00000  Uiso   1.00
N969   N     0.98344   0.48598   0.73783   0.00000  Uiso   1.00
N970   N     0.75896   0.66541   0.78289   0.00000  Uiso   1.00
N971   N     0.67786   0.45682   0.70408   0.00000  Uiso   1.00
N972   N     0.98870   0.54155   0.79697   0.00000  Uiso   1.00
N973   N     0.68322   0.51402   0.76217   0.00000  Uiso   1.00
N974   N     0.79528   0.40894   0.61880   0.00000  Uiso   1.00
N975   N     0.87084   0.59056   0.88122   0.00000  Uiso   1.00
N976   N     0.86991   0.58996   0.61814   0.00000  Uiso   1.00
N977   N     0.79787   0.40897   0.88150   0.00000  Uiso   1.00
N978   N     0.90016   0.63437   0.95595   0.00000  Uiso   1.00
N979   N     0.76625   0.36496   0.54396   0.00000  Uiso   1.00
N980   N     0.90775   0.33762   0.72054   0.00000  Uiso   1.00
O981   O     0.79642   0.57952   0.75299   0.00000  Uiso   1.00
O982   O     0.87025   0.42048   0.74702   0.00000  Uiso   1.00
O983   O     0.89280   0.57054   0.74519   0.00000  Uiso   1.00
O984   O     0.77387   0.42946   0.75482   0.00000  Uiso   1.00
O985   O     0.78514   0.50450   0.81998   0.00000  Uiso   1.00
O986   O     0.88153   0.49550   0.68003   0.00000  Uiso   1.00
O987   O     0.88152   0.49552   0.81218   0.00000  Uiso   1.00
O988   O     0.78515   0.50448   0.68783   0.00000  Uiso   1.00
Zn989  Zn    0.76898   0.50600   0.75521   0.00000  Uiso   1.00
Zn990  Zn    0.89769   0.49400   0.74479   0.00000  Uiso   1.00
C991   C     0.18147   0.93129   0.74936   0.00000  Uiso   1.00
C992   C     0.18758   0.87818   0.90613   0.00000  Uiso   1.00
C993   C     0.16465   0.83297   0.61627   0.00000  Uiso   1.00
C994   C     0.16857   0.83308   0.88364   0.00000  Uiso   1.00
C995   C     0.18429   0.87762   0.59377   0.00000  Uiso   1.00
C996   C     0.14917   0.78827   0.90602   0.00000  Uiso   1.00
C997   C     0.18563   0.87738   0.54719   0.00000  Uiso   1.00
C998   C     0.14754   0.78856   0.95265   0.00000  Uiso   1.00
C999   C     0.16577   0.83271   0.52348   0.00000  Uiso   1.00
C1000  C     0.16724   0.83327   0.97639   0.00000  Uiso   1.00
C1001  C     0.14465   0.78759   0.54681   0.00000  Uiso   1.00
C1002  C     0.15187   0.73546   0.75136   0.00000  Uiso   1.00
C1003  C     0.18834   0.87842   0.95310   0.00000  Uiso   1.00
C1004  C     0.20724   0.92112   0.52409   0.00000  Uiso   1.00
C1005  C     0.12592   0.74482   0.97577   0.00000  Uiso   1.00
C1006  C     0.20916   0.92216   0.97761   0.00000  Uiso   1.00
C1007  C     0.12389   0.74384   0.52228   0.00000  Uiso   1.00
C1008  C     0.18851   0.98497   0.74405   0.00000  Uiso   1.00
C1009  C     0.14471   0.68222   0.75780   0.00000  Uiso   1.00
C1010  C     0.16727   0.83328   0.83618   0.00000  Uiso   1.00
C1011  C     0.16599   0.83299   0.66379   0.00000  Uiso   1.00
C1012  C     0.14539   0.78790   0.59382   0.00000  Uiso   1.00
H1013  H     0.22334   0.95524   0.54192   0.00000  Uiso   1.00
H1014  H     0.16512   0.73141   0.85897   0.00000  Uiso   1.00
H1015  H     0.21029   0.99917   0.96816   0.00000  Uiso   1.00
H1016  H     0.27570   0.97397   0.96490   0.00000  Uiso   1.00
H1017  H     0.05739   0.69200   0.53498   0.00000  Uiso   1.00
H1018  H     0.12282   0.66684   0.53177   0.00000  Uiso   1.00
H1019  H     0.27560   0.99526   0.73869   0.00000  Uiso   1.00
H1020  H     0.24555   0.98592   0.68895   0.00000  Uiso   1.00
H1021  H     0.10102   0.97686   0.81022   0.00000  Uiso   1.00
H1022  H     0.06478   0.97892   0.76156   0.00000  Uiso   1.00
H1023  H     0.32948   0.75188   0.70837   0.00000  Uiso   1.00
H1024  H     0.10990   0.71069   0.95791   0.00000  Uiso   1.00
H1025  H     0.33053   0.80173   0.67370   0.00000  Uiso   1.00
H1026  H     0.00251   0.91355   0.79357   0.00000  Uiso   1.00
H1027  H     0.00362   0.86263   0.82680   0.00000  Uiso   1.00
H1028  H     0.16305   0.73203   0.63648   0.00000  Uiso   1.00
H1029  H     0.09406   0.75027   0.64173   0.00000  Uiso   1.00
H1030  H     0.23880   0.91609   0.85830   0.00000  Uiso   1.00
H1031  H     0.16970   0.93406   0.86355   0.00000  Uiso   1.00
H1032  H     0.16994   0.93440   0.64116   0.00000  Uiso   1.00
H1033  H     0.23838   0.91459   0.63566   0.00000  Uiso   1.00
H1034  H     0.09644   0.75040   0.86330   0.00000  Uiso   1.00
N1035  N     0.31678   0.81932   0.73783   0.00000  Uiso   1.00
N1036  N     0.09229   0.99874   0.78289   0.00000  Uiso   1.00
N1037  N     0.01119   0.79016   0.70408   0.00000  Uiso   1.00
N1038  N     0.32203   0.87489   0.79697   0.00000  Uiso   1.00
N1039  N     0.01656   0.84735   0.76217   0.00000  Uiso   1.00
N1040  N     0.12862   0.74228   0.61880   0.00000  Uiso   1.00
N1041  N     0.20418   0.92390   0.88122   0.00000  Uiso   1.00
N1042  N     0.20324   0.92330   0.61814   0.00000  Uiso   1.00
N1043  N     0.13121   0.74230   0.88150   0.00000  Uiso   1.00
N1044  N     0.23349   0.96771   0.95595   0.00000  Uiso   1.00
N1045  N     0.09959   0.69829   0.54396   0.00000  Uiso   1.00
N1046  N     0.24109   0.67096   0.72054   0.00000  Uiso   1.00
O1047  O     0.12975   0.91286   0.75299   0.00000  Uiso   1.00
O1048  O     0.20358   0.75381   0.74702   0.00000  Uiso   1.00
O1049  O     0.22613   0.90387   0.74519   0.00000  Uiso   1.00
O1050  O     0.10720   0.76279   0.75482   0.00000  Uiso   1.00
O1051  O     0.11847   0.83784   0.81998   0.00000  Uiso   1.00
O1052  O     0.21486   0.82883   0.68003   0.00000  Uiso   1.00
O1053  O     0.21485   0.82885   0.81218   0.00000  Uiso   1.00
O1054  O     0.11848   0.83781   0.68783   0.00000  Uiso   1.00
Zn1055 Zn    0.10231   0.83933   0.75521   0.00000  Uiso   1.00
Zn1056 Zn    0.23102   0.82734   0.74479   0.00000  Uiso   1.00
C1057  C     0.51480   0.93129   0.74936   0.00000  Uiso   1.00
C1058  C     0.52091   0.87818   0.90613   0.00000  Uiso   1.00
C1059  C     0.49799   0.83297   0.61627   0.00000  Uiso   1.00
C1060  C     0.50190   0.83308   0.88364   0.00000  Uiso   1.00
C1061  C     0.51762   0.87762   0.59377   0.00000  Uiso   1.00
C1062  C     0.48250   0.78827   0.90602   0.00000  Uiso   1.00
C1063  C     0.51896   0.87738   0.54719   0.00000  Uiso   1.00
C1064  C     0.48087   0.78856   0.95265   0.00000  Uiso   1.00
C1065  C     0.49910   0.83271   0.52348   0.00000  Uiso   1.00
C1066  C     0.50057   0.83327   0.97639   0.00000  Uiso   1.00
C1067  C     0.47798   0.78759   0.54681   0.00000  Uiso   1.00
C1068  C     0.48520   0.73546   0.75136   0.00000  Uiso   1.00
C1069  C     0.52168   0.87842   0.95310   0.00000  Uiso   1.00
C1070  C     0.54057   0.92112   0.52409   0.00000  Uiso   1.00
C1071  C     0.45926   0.74482   0.97577   0.00000  Uiso   1.00
C1072  C     0.54249   0.92216   0.97761   0.00000  Uiso   1.00
C1073  C     0.45722   0.74384   0.52228   0.00000  Uiso   1.00
C1074  C     0.52184   0.98497   0.74405   0.00000  Uiso   1.00
C1075  C     0.47804   0.68222   0.75780   0.00000  Uiso   1.00
C1076  C     0.50060   0.83328   0.83618   0.00000  Uiso   1.00
C1077  C     0.49933   0.83299   0.66379   0.00000  Uiso   1.00
C1078  C     0.47872   0.78790   0.59382   0.00000  Uiso   1.00
H1079  H     0.55667   0.95524   0.54192   0.00000  Uiso   1.00
H1080  H     0.49845   0.73141   0.85897   0.00000  Uiso   1.00
H1081  H     0.54363   0.99917   0.96816   0.00000  Uiso   1.00
H1082  H     0.60903   0.97397   0.96490   0.00000  Uiso   1.00
H1083  H     0.39073   0.69200   0.53498   0.00000  Uiso   1.00
H1084  H     0.45616   0.66684   0.53177   0.00000  Uiso   1.00
H1085  H     0.60893   0.99526   0.73869   0.00000  Uiso   1.00
H1086  H     0.57889   0.98592   0.68895   0.00000  Uiso   1.00
H1087  H     0.43435   0.97686   0.81022   0.00000  Uiso   1.00
H1088  H     0.39811   0.97892   0.76156   0.00000  Uiso   1.00
H1089  H     0.66281   0.75188   0.70837   0.00000  Uiso   1.00
H1090  H     0.44323   0.71069   0.95791   0.00000  Uiso   1.00
H1091  H     0.66386   0.80173   0.67370   0.00000  Uiso   1.00
H1092  H     0.33584   0.91355   0.79357   0.00000  Uiso   1.00
H1093  H     0.33695   0.86263   0.82680   0.00000  Uiso   1.00
H1094  H     0.49639   0.73203   0.63648   0.00000  Uiso   1.00
H1095  H     0.42740   0.75027   0.64173   0.00000  Uiso   1.00
H1096  H     0.57213   0.91609   0.85830   0.00000  Uiso   1.00
H1097  H     0.50303   0.93406   0.86355   0.00000  Uiso   1.00
H1098  H     0.50327   0.93440   0.64116   0.00000  Uiso   1.00
H1099  H     0.57172   0.91459   0.63566   0.00000  Uiso   1.00
H1100  H     0.42977   0.75040   0.86330   0.00000  Uiso   1.00
N1101  N     0.65011   0.81932   0.73783   0.00000  Uiso   1.00
N1102  N     0.42563   0.99874   0.78289   0.00000  Uiso   1.00
N1103  N     0.34453   0.79016   0.70408   0.00000  Uiso   1.00
N1104  N     0.65537   0.87489   0.79697   0.00000  Uiso   1.00
N1105  N     0.34989   0.84735   0.76217   0.00000  Uiso   1.00
N1106  N     0.46195   0.74228   0.61880   0.00000  Uiso   1.00
N1107  N     0.53751   0.92390   0.88122   0.00000  Uiso   1.00
N1108  N     0.53658   0.92330   0.61814   0.00000  Uiso   1.00
N1109  N     0.46454   0.74230   0.88150   0.00000  Uiso   1.00
N1110  N     0.56682   0.96771   0.95595   0.00000  Uiso   1.00
N1111  N     0.43292   0.69829   0.54396   0.00000  Uiso   1.00
N1112  N     0.57442   0.67096   0.72054   0.00000  Uiso   1.00
O1113  O     0.46308   0.91286   0.75299   0.00000  Uiso   1.00
O1114  O     0.53692   0.75381   0.74702   0.00000  Uiso   1.00
O1115  O     0.55946   0.90387   0.74519   0.00000  Uiso   1.00
O1116  O     0.44054   0.76279   0.75482   0.00000  Uiso   1.00
O1117  O     0.45181   0.83784   0.81998   0.00000  Uiso   1.00
O1118  O     0.54819   0.82883   0.68003   0.00000  Uiso   1.00
O1119  O     0.54819   0.82885   0.81218   0.00000  Uiso   1.00
O1120  O     0.45181   0.83781   0.68783   0.00000  Uiso   1.00
Zn1121 Zn    0.43565   0.83933   0.75521   0.00000  Uiso   1.00
Zn1122 Zn    0.56435   0.82734   0.74479   0.00000  Uiso   1.00
C1123  C     0.84813   0.93129   0.74936   0.00000  Uiso   1.00
C1124  C     0.85425   0.87818   0.90613   0.00000  Uiso   1.00
C1125  C     0.83132   0.83297   0.61627   0.00000  Uiso   1.00
C1126  C     0.83523   0.83308   0.88364   0.00000  Uiso   1.00
C1127  C     0.85096   0.87762   0.59377   0.00000  Uiso   1.00
C1128  C     0.81584   0.78827   0.90602   0.00000  Uiso   1.00
C1129  C     0.85229   0.87738   0.54719   0.00000  Uiso   1.00
C1130  C     0.81421   0.78856   0.95265   0.00000  Uiso   1.00
C1131  C     0.83244   0.83271   0.52348   0.00000  Uiso   1.00
C1132  C     0.83391   0.83327   0.97639   0.00000  Uiso   1.00
C1133  C     0.81132   0.78759   0.54681   0.00000  Uiso   1.00
C1134  C     0.81854   0.73546   0.75136   0.00000  Uiso   1.00
C1135  C     0.85501   0.87842   0.95310   0.00000  Uiso   1.00
C1136  C     0.87390   0.92112   0.52409   0.00000  Uiso   1.00
C1137  C     0.79259   0.74482   0.97577   0.00000  Uiso   1.00
C1138  C     0.87583   0.92216   0.97761   0.00000  Uiso   1.00
C1139  C     0.79055   0.74384   0.52228   0.00000  Uiso   1.00
C1140  C     0.85517   0.98497   0.74405   0.00000  Uiso   1.00
C1141  C     0.81137   0.68222   0.75780   0.00000  Uiso   1.00
C1142  C     0.83394   0.83328   0.83618   0.00000  Uiso   1.00
C1143  C     0.83266   0.83299   0.66379   0.00000  Uiso   1.00
C1144  C     0.81206   0.78790   0.59382   0.00000  Uiso   1.00
H1145  H     0.89000   0.95524   0.54192   0.00000  Uiso   1.00
H1146  H     0.83179   0.73141   0.85897   0.00000  Uiso   1.00
H1147  H     0.87696   0.99917   0.96816   0.00000  Uiso   1.00
H1148  H     0.94237   0.97397   0.96490   0.00000  Uiso   1.00
H1149  H     0.72406   0.69200   0.53498   0.00000  Uiso   1.00
H1150  H     0.78949   0.66684   0.53177   0.00000  Uiso   1.00
H1151  H     0.94226   0.99526   0.73869   0.00000  Uiso   1.00
H1152  H     0.91222   0.98592   0.68895   0.00000  Uiso   1.00
H1153  H     0.76768   0.97686   0.81022   0.00000  Uiso   1.00
H1154  H     0.73144   0.97892   0.76156   0.00000  Uiso   1.00
H1155  H     0.99615   0.75188   0.70837   0.00000  Uiso   1.00
H1156  H     0.77657   0.71069   0.95791   0.00000  Uiso   1.00
H1157  H     0.99719   0.80173   0.67370   0.00000  Uiso   1.00
H1158  H     0.66917   0.91355   0.79357   0.00000  Uiso   1.00
H1159  H     0.67028   0.86263   0.82680   0.00000  Uiso   1.00
H1160  H     0.82972   0.73203   0.63648   0.00000  Uiso   1.00
H1161  H     0.76073   0.75027   0.64173   0.00000  Uiso   1.00
H1162  H     0.90547   0.91609   0.85830   0.00000  Uiso   1.00
H1163  H     0.83637   0.93406   0.86355   0.00000  Uiso   1.00
H1164  H     0.83660   0.93440   0.64116   0.00000  Uiso   1.00
H1165  H     0.90505   0.91459   0.63566   0.00000  Uiso   1.00
H1166  H     0.76310   0.75040   0.86330   0.00000  Uiso   1.00
N1167  N     0.98344   0.81932   0.73783   0.00000  Uiso   1.00
N1168  N     0.75896   0.99874   0.78289   0.00000  Uiso   1.00
N1169  N     0.67786   0.79016   0.70408   0.00000  Uiso   1.00
N1170  N     0.98870   0.87489   0.79697   0.00000  Uiso   1.00
N1171  N     0.68322   0.84735   0.76217   0.00000  Uiso   1.00
N1172  N     0.79528   0.74228   0.61880   0.00000  Uiso   1.00
N1173  N     0.87084   0.92390   0.88122   0.00000  Uiso   1.00
N1174  N     0.86991   0.92330   0.61814   0.00000  Uiso   1.00
N1175  N     0.79787   0.74230   0.88150   0.00000  Uiso   1.00
N1176  N     0.90016   0.96771   0.95595   0.00000  Uiso   1.00
N1177  N     0.76625   0.69829   0.54396   0.00000  Uiso   1.00
N1178  N     0.90775   0.67096   0.72054   0.00000  Uiso   1.00
O1179  O     0.79642   0.91286   0.75299   0.00000  Uiso   1.00
O1180  O     0.87025   0.75381   0.74702   0.00000  Uiso   1.00
O1181  O     0.89280   0.90387   0.74519   0.00000  Uiso   1.00
O1182  O     0.77387   0.76279   0.75482   0.00000  Uiso   1.00
O1183  O     0.78514   0.83784   0.81998   0.00000  Uiso   1.00
O1184  O     0.88153   0.82883   0.68003   0.00000  Uiso   1.00
O1185  O     0.88152   0.82885   0.81218   0.00000  Uiso   1.00
O1186  O     0.78515   0.83781   0.68783   0.00000  Uiso   1.00
Zn1187 Zn    0.76898   0.83933   0.75521   0.00000  Uiso   1.00
Zn1188 Zn    0.89769   0.82734   0.74479   0.00000  Uiso   1.00
loop_
_geom_bond_atom_site_label_1
_geom_bond_atom_site_label_2
_geom_bond_distance
_geom_bond_site_symmetry_2
_ccdc_geom_bond_type
C1     O57     1.276   .     A
C1     O59     1.291   .     A
C1     C18     1.405   .     S
C2     C4      1.400   .     A
C2     N51     1.439   .     S
C2     C13     1.403   .     A
C3     C21     1.421   .     S
C3     C22     1.400   .     A
C3     C5      1.395   .     A
C4     C6      1.396   .     A
C4     C20     1.419   .     S
C5     N52     1.439   .     S
C5     C7      1.388   .     A
C6     N53     1.440   .     S
C6     C8      1.389   .     A
C7     C9      1.415   .     A
C7     C14     1.397   .     A
C8     C15     1.397   .     A
C8     C10     1.415   .     A
C9     C11     1.426   .     A
C9     C604    1.404   1_554 S
C10    C13     1.427   .     A
C10    C603    1.404   .     S
C11    C22     1.404   .     A
C11    C17     1.416   .     A
C12    O58     1.276   .     A
C12    C19     1.399   .     S
C12    O60     1.290   .     A
C13    C16     1.416   .     A
C14    H23     1.084   .     S
C14    C610    1.385   1_554 S
C15    H34     1.084   .     S
C15    C611    1.386   .     S
C16    N54     1.434   .     S
C16    C608    1.385   .     S
C17    N55     1.434   .     S
C17    C609    1.386   1_554 S
C18    C217    1.360   .     S
C18    N254    1.444   .     S
C19    C414    1.360   1_545 S
C19    N442    1.443   1_545 S
C20    O63     1.286   .     A
C20    O61     1.286   .     A
C21    O62     1.286   .     A
C21    O64     1.287   .     A
C22    N50     1.439   .     S
H24    N53     1.046   .     S
H25    N54     1.045   .     S
H26    N54     1.046   .     S
H27    N55     1.046   .     S
H28    N55     1.045   .     S
H29    N254    1.046   .     S
H30    N254    1.044   .     S
H31    N46     1.046   .     S
H32    N46     1.045   .     S
H33    N113    1.044   .     S
H35    N113    1.045   .     S
H36    N180    1.043   1_455 S
H37    N180    1.044   1_455 S
H38    N50     1.046   .     S
H39    N50     1.045   .     S
H40    N51     1.045   .     S
H41    N51     1.046   .     S
H42    N52     1.046   .     S
H43    N52     1.045   .     S
H44    N53     1.045   .     S
N45    Zn66    2.023   .     S
N45    N113    1.384   .     S
N45    N115    1.285   .     S
N46    C217    1.443   .     S
N47    N177    1.384   1_455 S
N47    H165    1.044   1_455 S
N47    H167    1.045   1_455 S
N48    H103    1.044   .     S
N48    H102    1.043   .     S
N48    N115    1.384   .     S
N49    Zn65    2.023   .     S
N49    N177    1.285   1_455 S
N49    N180    1.384   1_455 S
N56    H425    1.046   1_545 S
N56    H426    1.044   1_545 S
N56    C414    1.444   1_545 S
O57    Zn65    1.981   .     S
O58    Zn66    1.981   .     S
O59    Zn66    1.994   .     S
O60    Zn65    1.994   .     S
O61    Zn65    1.999   .     S
O62    Zn66    1.999   .     S
O63    Zn66    2.018   .     S
O64    Zn65    2.018   .     S
C67    O123    1.276   .     A
C67    O125    1.291   .     A
C67    C84     1.405   .     S
C68    C70     1.400   .     A
C68    N117    1.439   .     S
C68    C79     1.403   .     A
C69    C87     1.421   .     S
C69    C88     1.400   .     A
C69    C71     1.395   .     A
C70    C72     1.396   .     A
C70    C86     1.419   .     S
C71    N118    1.439   .     S
C71    C73     1.388   .     A
C72    N119    1.440   .     S
C72    C74     1.389   .     A
C73    C75     1.415   .     A
C73    C80     1.397   .     A
C74    C81     1.397   .     A
C74    C76     1.415   .     A
C75    C77     1.426   .     A
C75    C670    1.404   1_554 S
C76    C79     1.427   .     A
C76    C669    1.404   .     S
C77    C88     1.404   .     A
C77    C83     1.416   .     A
C78    O124    1.276   .     A
C78    C85     1.399   .     S
C78    O126    1.290   .     A
C79    C82     1.416   .     A
C80    H89     1.084   .     S
C80    C676    1.385   1_554 S
C81    H100    1.084   .     S
C81    C677    1.386   .     S
C82    N120    1.434   .     S
C82    C674    1.385   .     S
C83    N121    1.434   .     S
C83    C675    1.386   1_554 S
C84    C283    1.360   .     S
C84    N320    1.444   .     S
C85    C480    1.360   1_545 S
C85    N508    1.443   1_545 S
C86    O129    1.286   .     A
C86    O127    1.286   .     A
C87    O128    1.286   .     A
C87    O130    1.287   .     A
C88    N116    1.439   .     S
H90    N119    1.046   .     S
H91    N120    1.045   .     S
H92    N120    1.046   .     S
H93    N121    1.046   .     S
H94    N121    1.045   .     S
H95    N320    1.046   .     S
H96    N320    1.044   .     S
H97    N112    1.046   .     S
H98    N112    1.045   .     S
H99    N179    1.044   .     S
H101   N179    1.045   .     S
H104   N116    1.046   .     S
H105   N116    1.045   .     S
H106   N117    1.045   .     S
H107   N117    1.046   .     S
H108   N118    1.046   .     S
H109   N118    1.045   .     S
H110   N119    1.045   .     S
N111   Zn132   2.023   .     S
N111   N179    1.384   .     S
N111   N181    1.285   .     S
N112   C283    1.443   .     S
N114   H169    1.044   .     S
N114   H168    1.043   .     S
N114   N181    1.384   .     S
N115   Zn131   2.023   .     S
N122   H491    1.046   1_545 S
N122   H492    1.044   1_545 S
N122   C480    1.444   1_545 S
O123   Zn131   1.981   .     S
O124   Zn132   1.981   .     S
O125   Zn132   1.994   .     S
O126   Zn131   1.994   .     S
O127   Zn131   1.999   .     S
O128   Zn132   1.999   .     S
O129   Zn132   2.018   .     S
O130   Zn131   2.018   .     S
C133   O189    1.276   .     A
C133   O191    1.291   .     A
C133   C150    1.405   .     S
C134   C136    1.400   .     A
C134   N183    1.439   .     S
C134   C145    1.403   .     A
C135   C153    1.421   .     S
C135   C154    1.400   .     A
C135   C137    1.395   .     A
C136   C138    1.396   .     A
C136   C152    1.419   .     S
C137   N184    1.439   .     S
C137   C139    1.388   .     A
C138   N185    1.440   .     S
C138   C140    1.389   .     A
C139   C141    1.415   .     A
C139   C146    1.397   .     A
C140   C147    1.397   .     A
C140   C142    1.415   .     A
C141   C143    1.426   .     A
C141   C736    1.404   1_554 S
C142   C145    1.427   .     A
C142   C735    1.404   .     S
C143   C154    1.404   .     A
C143   C149    1.416   .     A
C144   O190    1.276   .     A
C144   C151    1.399   .     S
C144   O192    1.290   .     A
C145   C148    1.416   .     A
C146   H155    1.084   .     S
C146   C742    1.385   1_554 S
C147   H166    1.084   .     S
C147   C743    1.386   .     S
C148   N186    1.434   .     S
C148   C740    1.385   .     S
C149   N187    1.434   .     S
C149   C741    1.386   1_554 S
C150   C349    1.360   .     S
C150   N386    1.444   .     S
C151   C546    1.360   1_545 S
C151   N574    1.443   1_545 S
C152   O195    1.286   .     A
C152   O193    1.286   .     A
C153   O194    1.286   .     A
C153   O196    1.287   .     A
C154   N182    1.439   .     S
H156   N185    1.046   .     S
H157   N186    1.045   .     S
H158   N186    1.046   .     S
H159   N187    1.046   .     S
H160   N187    1.045   .     S
H161   N386    1.046   .     S
H162   N386    1.044   .     S
H163   N178    1.046   .     S
H164   N178    1.045   .     S
H165   N47     1.044   1_655 S
H167   N47     1.045   1_655 S
H170   N182    1.046   .     S
H171   N182    1.045   .     S
H172   N183    1.045   .     S
H173   N183    1.046   .     S
H174   N184    1.046   .     S
H175   N184    1.045   .     S
H176   N185    1.045   .     S
N177   Zn198   2.023   .     S
N177   N47     1.384   1_655 S
N177   N49     1.285   1_655 S
N178   C349    1.443   .     S
N180   H37     1.044   1_655 S
N180   H36     1.043   1_655 S
N180   N49     1.384   1_655 S
N181   Zn197   2.023   .     S
N188   H557    1.046   1_545 S
N188   H558    1.044   1_545 S
N188   C546    1.444   1_545 S
O189   Zn197   1.981   .     S
O190   Zn198   1.981   .     S
O191   Zn198   1.994   .     S
O192   Zn197   1.994   .     S
O193   Zn197   1.999   .     S
O194   Zn198   1.999   .     S
O195   Zn198   2.018   .     S
O196   Zn197   2.018   .     S
C199   O255    1.276   .     A
C199   O257    1.291   .     A
C199   C216    1.405   .     S
C200   C202    1.400   .     A
C200   N249    1.439   .     S
C200   C211    1.403   .     A
C201   C219    1.421   .     S
C201   C220    1.400   .     A
C201   C203    1.395   .     A
C202   C204    1.396   .     A
C202   C218    1.419   .     S
C203   N250    1.439   .     S
C203   C205    1.388   .     A
C204   N251    1.440   .     S
C204   C206    1.389   .     A
C205   C207    1.415   .     A
C205   C212    1.397   .     A
C206   C213    1.397   .     A
C206   C208    1.415   .     A
C207   C209    1.426   .     A
C207   C802    1.404   1_554 S
C208   C211    1.427   .     A
C208   C801    1.404   .     S
C209   C220    1.404   .     A
C209   C215    1.416   .     A
C210   O256    1.276   .     A
C210   C217    1.399   .     S
C210   O258    1.290   .     A
C211   C214    1.416   .     A
C212   H221    1.084   .     S
C212   C808    1.385   1_554 S
C213   H232    1.084   .     S
C213   C809    1.386   .     S
C214   N252    1.434   .     S
C214   C806    1.385   .     S
C215   N253    1.434   .     S
C215   C807    1.386   1_554 S
C216   C415    1.360   .     S
C216   N452    1.444   .     S
C218   O261    1.286   .     A
C218   O259    1.286   .     A
C219   O260    1.286   .     A
C219   O262    1.287   .     A
C220   N248    1.439   .     S
H222   N251    1.046   .     S
H223   N252    1.045   .     S
H224   N252    1.046   .     S
H225   N253    1.046   .     S
H226   N253    1.045   .     S
H227   N452    1.046   .     S
H228   N452    1.044   .     S
H229   N244    1.046   .     S
H230   N244    1.045   .     S
H231   N311    1.044   .     S
H233   N311    1.045   .     S
H234   N378    1.043   1_455 S
H235   N378    1.044   1_455 S
H236   N248    1.046   .     S
H237   N248    1.045   .     S
H238   N249    1.045   .     S
H239   N249    1.046   .     S
H240   N250    1.046   .     S
H241   N250    1.045   .     S
H242   N251    1.045   .     S
N243   Zn264   2.023   .     S
N243   N311    1.384   .     S
N243   N313    1.285   .     S
N244   C415    1.443   .     S
N245   N375    1.384   1_455 S
N245   H363    1.044   1_455 S
N245   H365    1.045   1_455 S
N246   H301    1.044   .     S
N246   H300    1.043   .     S
N246   N313    1.384   .     S
N247   Zn263   2.023   .     S
N247   N375    1.285   1_455 S
N247   N378    1.384   1_455 S
O255   Zn263   1.981   .     S
O256   Zn264   1.981   .     S
O257   Zn264   1.994   .     S
O258   Zn263   1.994   .     S
O259   Zn263   1.999   .     S
O260   Zn264   1.999   .     S
O261   Zn264   2.018   .     S
O262   Zn263   2.018   .     S
C265   O321    1.276   .     A
C265   O323    1.291   .     A
C265   C282    1.405   .     S
C266   C268    1.400   .     A
C266   N315    1.439   .     S
C266   C277    1.403   .     A
C267   C285    1.421   .     S
C267   C286    1.400   .     A
C267   C269    1.395   .     A
C268   C270    1.396   .     A
C268   C284    1.419   .     S
C269   N316    1.439   .     S
C269   C271    1.388   .     A
C270   N317    1.440   .     S
C270   C272    1.389   .     A
C271   C273    1.415   .     A
C271   C278    1.397   .     A
C272   C279    1.397   .     A
C272   C274    1.415   .     A
C273   C275    1.426   .     A
C273   C868    1.404   1_554 S
C274   C277    1.427   .     A
C274   C867    1.404   .     S
C275   C286    1.404   .     A
C275   C281    1.416   .     A
C276   O322    1.276   .     A
C276   C283    1.399   .     S
C276   O324    1.290   .     A
C277   C280    1.416   .     A
C278   H287    1.084   .     S
C278   C874    1.385   1_554 S
C279   H298    1.084   .     S
C279   C875    1.386   .     S
C280   N318    1.434   .     S
C280   C872    1.385   .     S
C281   N319    1.434   .     S
C281   C873    1.386   1_554 S
C282   C481    1.360   .     S
C282   N518    1.444   .     S
C284   O327    1.286   .     A
C284   O325    1.286   .     A
C285   O326    1.286   .     A
C285   O328    1.287   .     A
C286   N314    1.439   .     S
H288   N317    1.046   .     S
H289   N318    1.045   .     S
H290   N318    1.046   .     S
H291   N319    1.046   .     S
H292   N319    1.045   .     S
H293   N518    1.046   .     S
H294   N518    1.044   .     S
H295   N310    1.046   .     S
H296   N310    1.045   .     S
H297   N377    1.044   .     S
H299   N377    1.045   .     S
H302   N314    1.046   .     S
H303   N314    1.045   .     S
H304   N315    1.045   .     S
H305   N315    1.046   .     S
H306   N316    1.046   .     S
H307   N316    1.045   .     S
H308   N317    1.045   .     S
N309   Zn330   2.023   .     S
N309   N377    1.384   .     S
N309   N379    1.285   .     S
N310   C481    1.443   .     S
N312   H367    1.044   .     S
N312   H366    1.043   .     S
N312   N379    1.384   .     S
N313   Zn329   2.023   .     S
O321   Zn329   1.981   .     S
O322   Zn330   1.981   .     S
O323   Zn330   1.994   .     S
O324   Zn329   1.994   .     S
O325   Zn329   1.999   .     S
O326   Zn330   1.999   .     S
O327   Zn330   2.018   .     S
O328   Zn329   2.018   .     S
C331   O387    1.276   .     A
C331   O389    1.291   .     A
C331   C348    1.405   .     S
C332   C334    1.400   .     A
C332   N381    1.439   .     S
C332   C343    1.403   .     A
C333   C351    1.421   .     S
C333   C352    1.400   .     A
C333   C335    1.395   .     A
C334   C336    1.396   .     A
C334   C350    1.419   .     S
C335   N382    1.439   .     S
C335   C337    1.388   .     A
C336   N383    1.440   .     S
C336   C338    1.389   .     A
C337   C339    1.415   .     A
C337   C344    1.397   .     A
C338   C345    1.397   .     A
C338   C340    1.415   .     A
C339   C341    1.426   .     A
C339   C934    1.404   1_554 S
C340   C343    1.427   .     A
C340   C933    1.404   .     S
C341   C352    1.404   .     A
C341   C347    1.416   .     A
C342   O388    1.276   .     A
C342   C349    1.399   .     S
C342   O390    1.290   .     A
C343   C346    1.416   .     A
C344   H353    1.084   .     S
C344   C940    1.385   1_554 S
C345   H364    1.084   .     S
C345   C941    1.386   .     S
C346   N384    1.434   .     S
C346   C938    1.385   .     S
C347   N385    1.434   .     S
C347   C939    1.386   1_554 S
C348   C547    1.360   .     S
C348   N584    1.444   .     S
C350   O393    1.286   .     A
C350   O391    1.286   .     A
C351   O392    1.286   .     A
C351   O394    1.287   .     A
C352   N380    1.439   .     S
H354   N383    1.046   .     S
H355   N384    1.045   .     S
H356   N384    1.046   .     S
H357   N385    1.046   .     S
H358   N385    1.045   .     S
H359   N584    1.046   .     S
H360   N584    1.044   .     S
H361   N376    1.046   .     S
H362   N376    1.045   .     S
H363   N245    1.044   1_655 S
H365   N245    1.045   1_655 S
H368   N380    1.046   .     S
H369   N380    1.045   .     S
H370   N381    1.045   .     S
H371   N381    1.046   .     S
H372   N382    1.046   .     S
H373   N382    1.045   .     S
H374   N383    1.045   .     S
N375   Zn396   2.023   .     S
N375   N245    1.384   1_655 S
N375   N247    1.285   1_655 S
N376   C547    1.443   .     S
N378   H235    1.044   1_655 S
N378   H234    1.043   1_655 S
N378   N247    1.384   1_655 S
N379   Zn395   2.023   .     S
O387   Zn395   1.981   .     S
O388   Zn396   1.981   .     S
O389   Zn396   1.994   .     S
O390   Zn395   1.994   .     S
O391   Zn395   1.999   .     S
O392   Zn396   1.999   .     S
O393   Zn396   2.018   .     S
O394   Zn395   2.018   .     S
C397   O453    1.276   .     A
C397   O455    1.291   .     A
C397   C414    1.405   .     S
C398   C400    1.400   .     A
C398   N447    1.439   .     S
C398   C409    1.403   .     A
C399   C417    1.421   .     S
C399   C418    1.400   .     A
C399   C401    1.395   .     A
C400   C402    1.396   .     A
C400   C416    1.419   .     S
C401   N448    1.439   .     S
C401   C403    1.388   .     A
C402   N449    1.440   .     S
C402   C404    1.389   .     A
C403   C405    1.415   .     A
C403   C410    1.397   .     A
C404   C411    1.397   .     A
C404   C406    1.415   .     A
C405   C407    1.426   .     A
C405   C1000   1.404   1_554 S
C406   C409    1.427   .     A
C406   C999    1.404   .     S
C407   C418    1.404   .     A
C407   C413    1.416   .     A
C408   O454    1.276   .     A
C408   C415    1.399   .     S
C408   O456    1.290   .     A
C409   C412    1.416   .     A
C410   H419    1.084   .     S
C410   C1006   1.385   1_554 S
C411   H430    1.084   .     S
C411   C1007   1.386   .     S
C412   N450    1.434   .     S
C412   C1004   1.385   .     S
C413   N451    1.434   .     S
C413   C1005   1.386   1_554 S
C414   C19     1.360   1_565 S
C414   N56     1.444   1_565 S
C416   O459    1.286   .     A
C416   O457    1.286   .     A
C417   O458    1.286   .     A
C417   O460    1.287   .     A
C418   N446    1.439   .     S
H420   N449    1.046   .     S
H421   N450    1.045   .     S
H422   N450    1.046   .     S
H423   N451    1.046   .     S
H424   N451    1.045   .     S
H425   N56     1.046   1_565 S
H426   N56     1.044   1_565 S
H427   N442    1.046   .     S
H428   N442    1.045   .     S
H429   N509    1.044   .     S
H431   N509    1.045   .     S
H432   N576    1.043   1_455 S
H433   N576    1.044   1_455 S
H434   N446    1.046   .     S
H435   N446    1.045   .     S
H436   N447    1.045   .     S
H437   N447    1.046   .     S
H438   N448    1.046   .     S
H439   N448    1.045   .     S
H440   N449    1.045   .     S
N441   Zn462   2.023   .     S
N441   N509    1.384   .     S
N441   N511    1.285   .     S
N442   C19     1.443   1_565 S
N443   N573    1.384   1_455 S
N443   H561    1.044   1_455 S
N443   H563    1.045   1_455 S
N444   H499    1.044   .     S
N444   H498    1.043   .     S
N444   N511    1.384   .     S
N445   Zn461   2.023   .     S
N445   N573    1.285   1_455 S
N445   N576    1.384   1_455 S
O453   Zn461   1.981   .     S
O454   Zn462   1.981   .     S
O455   Zn462   1.994   .     S
O456   Zn461   1.994   .     S
O457   Zn461   1.999   .     S
O458   Zn462   1.999   .     S
O459   Zn462   2.018   .     S
O460   Zn461   2.018   .     S
C463   O519    1.276   .     A
C463   O521    1.291   .     A
C463   C480    1.405   .     S
C464   C466    1.400   .     A
C464   N513    1.439   .     S
C464   C475    1.403   .     A
C465   C483    1.421   .     S
C465   C484    1.400   .     A
C465   C467    1.395   .     A
C466   C468    1.396   .     A
C466   C482    1.419   .     S
C467   N514    1.439   .     S
C467   C469    1.388   .     A
C468   N515    1.440   .     S
C468   C470    1.389   .     A
C469   C471    1.415   .     A
C469   C476    1.397   .     A
C470   C477    1.397   .     A
C470   C472    1.415   .     A
C471   C473    1.426   .     A
C471   C1066   1.404   1_554 S
C472   C475    1.427   .     A
C472   C1065   1.404   .     S
C473   C484    1.404   .     A
C473   C479    1.416   .     A
C474   O520    1.276   .     A
C474   C481    1.399   .     S
C474   O522    1.290   .     A
C475   C478    1.416   .     A
C476   H485    1.084   .     S
C476   C1072   1.385   1_554 S
C477   H496    1.084   .     S
C477   C1073   1.386   .     S
C478   N516    1.434   .     S
C478   C1070   1.385   .     S
C479   N517    1.434   .     S
C479   C1071   1.386   1_554 S
C480   C85     1.360   1_565 S
C480   N122    1.444   1_565 S
C482   O525    1.286   .     A
C482   O523    1.286   .     A
C483   O524    1.286   .     A
C483   O526    1.287   .     A
C484   N512    1.439   .     S
H486   N515    1.046   .     S
H487   N516    1.045   .     S
H488   N516    1.046   .     S
H489   N517    1.046   .     S
H490   N517    1.045   .     S
H491   N122    1.046   1_565 S
H492   N122    1.044   1_565 S
H493   N508    1.046   .     S
H494   N508    1.045   .     S
H495   N575    1.044   .     S
H497   N575    1.045   .     S
H500   N512    1.046   .     S
H501   N512    1.045   .     S
H502   N513    1.045   .     S
H503   N513    1.046   .     S
H504   N514    1.046   .     S
H505   N514    1.045   .     S
H506   N515    1.045   .     S
N507   Zn528   2.023   .     S
N507   N575    1.384   .     S
N507   N577    1.285   .     S
N508   C85     1.443   1_565 S
N510   H565    1.044   .     S
N510   H564    1.043   .     S
N510   N577    1.384   .     S
N511   Zn527   2.023   .     S
O519   Zn527   1.981   .     S
O520   Zn528   1.981   .     S
O521   Zn528   1.994   .     S
O522   Zn527   1.994   .     S
O523   Zn527   1.999   .     S
O524   Zn528   1.999   .     S
O525   Zn528   2.018   .     S
O526   Zn527   2.018   .     S
C529   O585    1.276   .     A
C529   O587    1.291   .     A
C529   C546    1.405   .     S
C530   C532    1.400   .     A
C530   N579    1.439   .     S
C530   C541    1.403   .     A
C531   C549    1.421   .     S
C531   C550    1.400   .     A
C531   C533    1.395   .     A
C532   C534    1.396   .     A
C532   C548    1.419   .     S
C533   N580    1.439   .     S
C533   C535    1.388   .     A
C534   N581    1.440   .     S
C534   C536    1.389   .     A
C535   C537    1.415   .     A
C535   C542    1.397   .     A
C536   C543    1.397   .     A
C536   C538    1.415   .     A
C537   C539    1.426   .     A
C537   C1132   1.404   1_554 S
C538   C541    1.427   .     A
C538   C1131   1.404   .     S
C539   C550    1.404   .     A
C539   C545    1.416   .     A
C540   O586    1.276   .     A
C540   C547    1.399   .     S
C540   O588    1.290   .     A
C541   C544    1.416   .     A
C542   H551    1.084   .     S
C542   C1138   1.385   1_554 S
C543   H562    1.084   .     S
C543   C1139   1.386   .     S
C544   N582    1.434   .     S
C544   C1136   1.385   .     S
C545   N583    1.434   .     S
C545   C1137   1.386   1_554 S
C546   C151    1.360   1_565 S
C546   N188    1.444   1_565 S
C548   O591    1.286   .     A
C548   O589    1.286   .     A
C549   O590    1.286   .     A
C549   O592    1.287   .     A
C550   N578    1.439   .     S
H552   N581    1.046   .     S
H553   N582    1.045   .     S
H554   N582    1.046   .     S
H555   N583    1.046   .     S
H556   N583    1.045   .     S
H557   N188    1.046   1_565 S
H558   N188    1.044   1_565 S
H559   N574    1.046   .     S
H560   N574    1.045   .     S
H561   N443    1.044   1_655 S
H563   N443    1.045   1_655 S
H566   N578    1.046   .     S
H567   N578    1.045   .     S
H568   N579    1.045   .     S
H569   N579    1.046   .     S
H570   N580    1.046   .     S
H571   N580    1.045   .     S
H572   N581    1.045   .     S
N573   Zn594   2.023   .     S
N573   N443    1.384   1_655 S
N573   N445    1.285   1_655 S
N574   C151    1.443   1_565 S
N576   H433    1.044   1_655 S
N576   H432    1.043   1_655 S
N576   N445    1.384   1_655 S
N577   Zn593   2.023   .     S
O585   Zn593   1.981   .     S
O586   Zn594   1.981   .     S
O587   Zn594   1.994   .     S
O588   Zn593   1.994   .     S
O589   Zn593   1.999   .     S
O590   Zn594   1.999   .     S
O591   Zn594   2.018   .     S
O592   Zn593   2.018   .     S
C595   O651    1.276   .     A
C595   O653    1.291   .     A
C595   C612    1.405   .     S
C596   C598    1.400   .     A
C596   N645    1.439   .     S
C596   C607    1.403   .     A
C597   C615    1.421   .     S
C597   C616    1.400   .     A
C597   C599    1.395   .     A
C598   C600    1.396   .     A
C598   C614    1.419   .     S
C599   N646    1.439   .     S
C599   C601    1.388   .     A
C600   N647    1.440   .     S
C600   C602    1.389   .     A
C601   C603    1.415   .     A
C601   C608    1.397   .     A
C602   C609    1.397   .     A
C602   C604    1.415   .     A
C603   C605    1.426   .     A
C604   C607    1.427   .     A
C604   C9      1.404   1_556 S
C605   C616    1.404   .     A
C605   C611    1.416   .     A
C606   O652    1.276   .     A
C606   C613    1.399   .     S
C606   O654    1.290   .     A
C607   C610    1.416   .     A
C608   H617    1.084   .     S
C609   H628    1.084   .     S
C609   C17     1.386   1_556 S
C610   N648    1.434   .     S
C610   C14     1.385   1_556 S
C611   N649    1.434   .     S
C612   C811    1.360   .     S
C612   N848    1.444   .     S
C613   C1008   1.360   1_545 S
C613   N1036   1.443   1_545 S
C614   O657    1.286   .     A
C614   O655    1.286   .     A
C615   O656    1.286   .     A
C615   O658    1.287   .     A
C616   N644    1.439   .     S
H618   N647    1.046   .     S
H619   N648    1.045   .     S
H620   N648    1.046   .     S
H621   N649    1.046   .     S
H622   N649    1.045   .     S
H623   N848    1.046   .     S
H624   N848    1.044   .     S
H625   N640    1.046   .     S
H626   N640    1.045   .     S
H627   N707    1.044   .     S
H629   N707    1.045   .     S
H630   N774    1.043   1_455 S
H631   N774    1.044   1_455 S
H632   N644    1.046   .     S
H633   N644    1.045   .     S
H634   N645    1.045   .     S
H635   N645    1.046   .     S
H636   N646    1.046   .     S
H637   N646    1.045   .     S
H638   N647    1.045   .     S
N639   Zn660   2.023   .     S
N639   N707    1.384   .     S
N639   N709    1.285   .     S
N640   C811    1.443   .     S
N641   N771    1.384   1_455 S
N641   H759    1.044   1_455 S
N641   H761    1.045   1_455 S
N642   H697    1.044   .     S
N642   H696    1.043   .     S
N642   N709    1.384   .     S
N643   Zn659   2.023   .     S
N643   N771    1.285   1_455 S
N643   N774    1.384   1_455 S
N650   H1019   1.046   1_545 S
N650   H1020   1.044   1_545 S
N650   C1008   1.444   1_545 S
O651   Zn659   1.981   .     S
O652   Zn660   1.981   .     S
O653   Zn660   1.994   .     S
O654   Zn659   1.994   .     S
O655   Zn659   1.999   .     S
O656   Zn660   1.999   .     S
O657   Zn660   2.018   .     S
O658   Zn659   2.018   .     S
C661   O717    1.276   .     A
C661   O719    1.291   .     A
C661   C678    1.405   .     S
C662   C664    1.400   .     A
C662   N711    1.439   .     S
C662   C673    1.403   .     A
C663   C681    1.421   .     S
C663   C682    1.400   .     A
C663   C665    1.395   .     A
C664   C666    1.396   .     A
C664   C680    1.419   .     S
C665   N712    1.439   .     S
C665   C667    1.388   .     A
C666   N713    1.440   .     S
C666   C668    1.389   .     A
C667   C669    1.415   .     A
C667   C674    1.397   .     A
C668   C675    1.397   .     A
C668   C670    1.415   .     A
C669   C671    1.426   .     A
C670   C673    1.427   .     A
C670   C75     1.404   1_556 S
C671   C682    1.404   .     A
C671   C677    1.416   .     A
C672   O718    1.276   .     A
C672   C679    1.399   .     S
C672   O720    1.290   .     A
C673   C676    1.416   .     A
C674   H683    1.084   .     S
C675   H694    1.084   .     S
C675   C83     1.386   1_556 S
C676   N714    1.434   .     S
C676   C80     1.385   1_556 S
C677   N715    1.434   .     S
C678   C877    1.360   .     S
C678   N914    1.444   .     S
C679   C1074   1.360   1_545 S
C679   N1102   1.443   1_545 S
C680   O723    1.286   .     A
C680   O721    1.286   .     A
C681   O722    1.286   .     A
C681   O724    1.287   .     A
C682   N710    1.439   .     S
H684   N713    1.046   .     S
H685   N714    1.045   .     S
H686   N714    1.046   .     S
H687   N715    1.046   .     S
H688   N715    1.045   .     S
H689   N914    1.046   .     S
H690   N914    1.044   .     S
H691   N706    1.046   .     S
H692   N706    1.045   .     S
H693   N773    1.044   .     S
H695   N773    1.045   .     S
H698   N710    1.046   .     S
H699   N710    1.045   .     S
H700   N711    1.045   .     S
H701   N711    1.046   .     S
H702   N712    1.046   .     S
H703   N712    1.045   .     S
H704   N713    1.045   .     S
N705   Zn726   2.023   .     S
N705   N773    1.384   .     S
N705   N775    1.285   .     S
N706   C877    1.443   .     S
N708   H763    1.044   .     S
N708   H762    1.043   .     S
N708   N775    1.384   .     S
N709   Zn725   2.023   .     S
N716   H1085   1.046   1_545 S
N716   H1086   1.044   1_545 S
N716   C1074   1.444   1_545 S
O717   Zn725   1.981   .     S
O718   Zn726   1.981   .     S
O719   Zn726   1.994   .     S
O720   Zn725   1.994   .     S
O721   Zn725   1.999   .     S
O722   Zn726   1.999   .     S
O723   Zn726   2.018   .     S
O724   Zn725   2.018   .     S
C727   O783    1.276   .     A
C727   O785    1.291   .     A
C727   C744    1.405   .     S
C728   C730    1.400   .     A
C728   N777    1.439   .     S
C728   C739    1.403   .     A
C729   C747    1.421   .     S
C729   C748    1.400   .     A
C729   C731    1.395   .     A
C730   C732    1.396   .     A
C730   C746    1.419   .     S
C731   N778    1.439   .     S
C731   C733    1.388   .     A
C732   N779    1.440   .     S
C732   C734    1.389   .     A
C733   C735    1.415   .     A
C733   C740    1.397   .     A
C734   C741    1.397   .     A
C734   C736    1.415   .     A
C735   C737    1.426   .     A
C736   C739    1.427   .     A
C736   C141    1.404   1_556 S
C737   C748    1.404   .     A
C737   C743    1.416   .     A
C738   O784    1.276   .     A
C738   C745    1.399   .     S
C738   O786    1.290   .     A
C739   C742    1.416   .     A
C740   H749    1.084   .     S
C741   H760    1.084   .     S
C741   C149    1.386   1_556 S
C742   N780    1.434   .     S
C742   C146    1.385   1_556 S
C743   N781    1.434   .     S
C744   C943    1.360   .     S
C744   N980    1.444   .     S
C745   C1140   1.360   1_545 S
C745   N1168   1.443   1_545 S
C746   O789    1.286   .     A
C746   O787    1.286   .     A
C747   O788    1.286   .     A
C747   O790    1.287   .     A
C748   N776    1.439   .     S
H750   N779    1.046   .     S
H751   N780    1.045   .     S
H752   N780    1.046   .     S
H753   N781    1.046   .     S
H754   N781    1.045   .     S
H755   N980    1.046   .     S
H756   N980    1.044   .     S
H757   N772    1.046   .     S
H758   N772    1.045   .     S
H759   N641    1.044   1_655 S
H761   N641    1.045   1_655 S
H764   N776    1.046   .     S
H765   N776    1.045   .     S
H766   N777    1.045   .     S
H767   N777    1.046   .     S
H768   N778    1.046   .     S
H769   N778    1.045   .     S
H770   N779    1.045   .     S
N771   Zn792   2.023   .     S
N771   N641    1.384   1_655 S
N771   N643    1.285   1_655 S
N772   C943    1.443   .     S
N774   H631    1.044   1_655 S
N774   H630    1.043   1_655 S
N774   N643    1.384   1_655 S
N775   Zn791   2.023   .     S
N782   H1151   1.046   1_545 S
N782   H1152   1.044   1_545 S
N782   C1140   1.444   1_545 S
O783   Zn791   1.981   .     S
O784   Zn792   1.981   .     S
O785   Zn792   1.994   .     S
O786   Zn791   1.994   .     S
O787   Zn791   1.999   .     S
O788   Zn792   1.999   .     S
O789   Zn792   2.018   .     S
O790   Zn791   2.018   .     S
C793   O849    1.276   .     A
C793   O851    1.291   .     A
C793   C810    1.405   .     S
C794   C796    1.400   .     A
C794   N843    1.439   .     S
C794   C805    1.403   .     A
C795   C813    1.421   .     S
C795   C814    1.400   .     A
C795   C797    1.395   .     A
C796   C798    1.396   .     A
C796   C812    1.419   .     S
C797   N844    1.439   .     S
C797   C799    1.388   .     A
C798   N845    1.440   .     S
C798   C800    1.389   .     A
C799   C801    1.415   .     A
C799   C806    1.397   .     A
C800   C807    1.397   .     A
C800   C802    1.415   .     A
C801   C803    1.426   .     A
C802   C805    1.427   .     A
C802   C207    1.404   1_556 S
C803   C814    1.404   .     A
C803   C809    1.416   .     A
C804   O850    1.276   .     A
C804   C811    1.399   .     S
C804   O852    1.290   .     A
C805   C808    1.416   .     A
C806   H815    1.084   .     S
C807   H826    1.084   .     S
C807   C215    1.386   1_556 S
C808   N846    1.434   .     S
C808   C212    1.385   1_556 S
C809   N847    1.434   .     S
C810   C1009   1.360   .     S
C810   N1046   1.444   .     S
C812   O855    1.286   .     A
C812   O853    1.286   .     A
C813   O854    1.286   .     A
C813   O856    1.287   .     A
C814   N842    1.439   .     S
H816   N845    1.046   .     S
H817   N846    1.045   .     S
H818   N846    1.046   .     S
H819   N847    1.046   .     S
H820   N847    1.045   .     S
H821   N1046   1.046   .     S
H822   N1046   1.044   .     S
H823   N838    1.046   .     S
H824   N838    1.045   .     S
H825   N905    1.044   .     S
H827   N905    1.045   .     S
H828   N972    1.043   1_455 S
H829   N972    1.044   1_455 S
H830   N842    1.046   .     S
H831   N842    1.045   .     S
H832   N843    1.045   .     S
H833   N843    1.046   .     S
H834   N844    1.046   .     S
H835   N844    1.045   .     S
H836   N845    1.045   .     S
N837   Zn858   2.023   .     S
N837   N905    1.384   .     S
N837   N907    1.285   .     S
N838   C1009   1.443   .     S
N839   N969    1.384   1_455 S
N839   H957    1.044   1_455 S
N839   H959    1.045   1_455 S
N840   H895    1.044   .     S
N840   H894    1.043   .     S
N840   N907    1.384   .     S
N841   Zn857   2.023   .     S
N841   N969    1.285   1_455 S
N841   N972    1.384   1_455 S
O849   Zn857   1.981   .     S
O850   Zn858   1.981   .     S
O851   Zn858   1.994   .     S
O852   Zn857   1.994   .     S
O853   Zn857   1.999   .     S
O854   Zn858   1.999   .     S
O855   Zn858   2.018   .     S
O856   Zn857   2.018   .     S
C859   O915    1.276   .     A
C859   O917    1.291   .     A
C859   C876    1.405   .     S
C860   C862    1.400   .     A
C860   N909    1.439   .     S
C860   C871    1.403   .     A
C861   C879    1.421   .     S
C861   C880    1.400   .     A
C861   C863    1.395   .     A
C862   C864    1.396   .     A
C862   C878    1.419   .     S
C863   N910    1.439   .     S
C863   C865    1.388   .     A
C864   N911    1.440   .     S
C864   C866    1.389   .     A
C865   C867    1.415   .     A
C865   C872    1.397   .     A
C866   C873    1.397   .     A
C866   C868    1.415   .     A
C867   C869    1.426   .     A
C868   C871    1.427   .     A
C868   C273    1.404   1_556 S
C869   C880    1.404   .     A
C869   C875    1.416   .     A
C870   O916    1.276   .     A
C870   C877    1.399   .     S
C870   O918    1.290   .     A
C871   C874    1.416   .     A
C872   H881    1.084   .     S
C873   H892    1.084   .     S
C873   C281    1.386   1_556 S
C874   N912    1.434   .     S
C874   C278    1.385   1_556 S
C875   N913    1.434   .     S
C876   C1075   1.360   .     S
C876   N1112   1.444   .     S
C878   O921    1.286   .     A
C878   O919    1.286   .     A
C879   O920    1.286   .     A
C879   O922    1.287   .     A
C880   N908    1.439   .     S
H882   N911    1.046   .     S
H883   N912    1.045   .     S
H884   N912    1.046   .     S
H885   N913    1.046   .     S
H886   N913    1.045   .     S
H887   N1112   1.046   .     S
H888   N1112   1.044   .     S
H889   N904    1.046   .     S
H890   N904    1.045   .     S
H891   N971    1.044   .     S
H893   N971    1.045   .     S
H896   N908    1.046   .     S
H897   N908    1.045   .     S
H898   N909    1.045   .     S
H899   N909    1.046   .     S
H900   N910    1.046   .     S
H901   N910    1.045   .     S
H902   N911    1.045   .     S
N903   Zn924   2.023   .     S
N903   N971    1.384   .     S
N903   N973    1.285   .     S
N904   C1075   1.443   .     S
N906   H961    1.044   .     S
N906   H960    1.043   .     S
N906   N973    1.384   .     S
N907   Zn923   2.023   .     S
O915   Zn923   1.981   .     S
O916   Zn924   1.981   .     S
O917   Zn924   1.994   .     S
O918   Zn923   1.994   .     S
O919   Zn923   1.999   .     S
O920   Zn924   1.999   .     S
O921   Zn924   2.018   .     S
O922   Zn923   2.018   .     S
C925   O981    1.276   .     A
C925   O983    1.291   .     A
C925   C942    1.405   .     S
C926   C928    1.400   .     A
C926   N975    1.439   .     S
C926   C937    1.403   .     A
C927   C945    1.421   .     S
C927   C946    1.400   .     A
C927   C929    1.395   .     A
C928   C930    1.396   .     A
C928   C944    1.419   .     S
C929   N976    1.439   .     S
C929   C931    1.388   .     A
C930   N977    1.440   .     S
C930   C932    1.389   .     A
C931   C933    1.415   .     A
C931   C938    1.397   .     A
C932   C939    1.397   .     A
C932   C934    1.415   .     A
C933   C935    1.426   .     A
C934   C937    1.427   .     A
C934   C339    1.404   1_556 S
C935   C946    1.404   .     A
C935   C941    1.416   .     A
C936   O982    1.276   .     A
C936   C943    1.399   .     S
C936   O984    1.290   .     A
C937   C940    1.416   .     A
C938   H947    1.084   .     S
C939   H958    1.084   .     S
C939   C347    1.386   1_556 S
C940   N978    1.434   .     S
C940   C344    1.385   1_556 S
C941   N979    1.434   .     S
C942   C1141   1.360   .     S
C942   N1178   1.444   .     S
C944   O987    1.286   .     A
C944   O985    1.286   .     A
C945   O986    1.286   .     A
C945   O988    1.287   .     A
C946   N974    1.439   .     S
H948   N977    1.046   .     S
H949   N978    1.045   .     S
H950   N978    1.046   .     S
H951   N979    1.046   .     S
H952   N979    1.045   .     S
H953   N1178   1.046   .     S
H954   N1178   1.044   .     S
H955   N970    1.046   .     S
H956   N970    1.045   .     S
H957   N839    1.044   1_655 S
H959   N839    1.045   1_655 S
H962   N974    1.046   .     S
H963   N974    1.045   .     S
H964   N975    1.045   .     S
H965   N975    1.046   .     S
H966   N976    1.046   .     S
H967   N976    1.045   .     S
H968   N977    1.045   .     S
N969   Zn990   2.023   .     S
N969   N839    1.384   1_655 S
N969   N841    1.285   1_655 S
N970   C1141   1.443   .     S
N972   H829    1.044   1_655 S
N972   H828    1.043   1_655 S
N972   N841    1.384   1_655 S
N973   Zn989   2.023   .     S
O981   Zn989   1.981   .     S
O982   Zn990   1.981   .     S
O983   Zn990   1.994   .     S
O984   Zn989   1.994   .     S
O985   Zn989   1.999   .     S
O986   Zn990   1.999   .     S
O987   Zn990   2.018   .     S
O988   Zn989   2.018   .     S
C991   O1047   1.276   .     A
C991   O1049   1.291   .     A
C991   C1008   1.405   .     S
C992   C994    1.400   .     A
C992   N1041   1.439   .     S
C992   C1003   1.403   .     A
C993   C1011   1.421   .     S
C993   C1012   1.400   .     A
C993   C995    1.395   .     A
C994   C996    1.396   .     A
C994   C1010   1.419   .     S
C995   N1042   1.439   .     S
C995   C997    1.388   .     A
C996   N1043   1.440   .     S
C996   C998    1.389   .     A
C997   C999    1.415   .     A
C997   C1004   1.397   .     A
C998   C1005   1.397   .     A
C998   C1000   1.415   .     A
C999   C1001   1.426   .     A
C1000  C1003   1.427   .     A
C1000  C405    1.404   1_556 S
C1001  C1012   1.404   .     A
C1001  C1007   1.416   .     A
C1002  O1048   1.276   .     A
C1002  C1009   1.399   .     S
C1002  O1050   1.290   .     A
C1003  C1006   1.416   .     A
C1004  H1013   1.084   .     S
C1005  H1024   1.084   .     S
C1005  C413    1.386   1_556 S
C1006  N1044   1.434   .     S
C1006  C410    1.385   1_556 S
C1007  N1045   1.434   .     S
C1008  C613    1.360   1_565 S
C1008  N650    1.444   1_565 S
C1010  O1053   1.286   .     A
C1010  O1051   1.286   .     A
C1011  O1052   1.286   .     A
C1011  O1054   1.287   .     A
C1012  N1040   1.439   .     S
H1014  N1043   1.046   .     S
H1015  N1044   1.045   .     S
H1016  N1044   1.046   .     S
H1017  N1045   1.046   .     S
H1018  N1045   1.045   .     S
H1019  N650    1.046   1_565 S
H1020  N650    1.044   1_565 S
H1021  N1036   1.046   .     S
H1022  N1036   1.045   .     S
H1023  N1103   1.044   .     S
H1025  N1103   1.045   .     S
H1026  N1170   1.043   1_455 S
H1027  N1170   1.044   1_455 S
H1028  N1040   1.046   .     S
H1029  N1040   1.045   .     S
H1030  N1041   1.045   .     S
H1031  N1041   1.046   .     S
H1032  N1042   1.046   .     S
H1033  N1042   1.045   .     S
H1034  N1043   1.045   .     S
N1035  Zn1056  2.023   .     S
N1035  N1103   1.384   .     S
N1035  N1105   1.285   .     S
N1036  C613    1.443   1_565 S
N1037  N1167   1.384   1_455 S
N1037  H1155   1.044   1_455 S
N1037  H1157   1.045   1_455 S
N1038  H1093   1.044   .     S
N1038  H1092   1.043   .     S
N1038  N1105   1.384   .     S
N1039  Zn1055  2.023   .     S
N1039  N1167   1.285   1_455 S
N1039  N1170   1.384   1_455 S
O1047  Zn1055  1.981   .     S
O1048  Zn1056  1.981   .     S
O1049  Zn1056  1.994   .     S
O1050  Zn1055  1.994   .     S
O1051  Zn1055  1.999   .     S
O1052  Zn1056  1.999   .     S
O1053  Zn1056  2.018   .     S
O1054  Zn1055  2.018   .     S
C1057  O1113   1.276   .     A
C1057  O1115   1.291   .     A
C1057  C1074   1.405   .     S
C1058  C1060   1.400   .     A
C1058  N1107   1.439   .     S
C1058  C1069   1.403   .     A
C1059  C1077   1.421   .     S
C1059  C1078   1.400   .     A
C1059  C1061   1.395   .     A
C1060  C1062   1.396   .     A
C1060  C1076   1.419   .     S
C1061  N1108   1.439   .     S
C1061  C1063   1.388   .     A
C1062  N1109   1.440   .     S
C1062  C1064   1.389   .     A
C1063  C1065   1.415   .     A
C1063  C1070   1.397   .     A
C1064  C1071   1.397   .     A
C1064  C1066   1.415   .     A
C1065  C1067   1.426   .     A
C1066  C1069   1.427   .     A
C1066  C471    1.404   1_556 S
C1067  C1078   1.404   .     A
C1067  C1073   1.416   .     A
C1068  O1114   1.276   .     A
C1068  C1075   1.399   .     S
C1068  O1116   1.290   .     A
C1069  C1072   1.416   .     A
C1070  H1079   1.084   .     S
C1071  H1090   1.084   .     S
C1071  C479    1.386   1_556 S
C1072  N1110   1.434   .     S
C1072  C476    1.385   1_556 S
C1073  N1111   1.434   .     S
C1074  C679    1.360   1_565 S
C1074  N716    1.444   1_565 S
C1076  O1119   1.286   .     A
C1076  O1117   1.286   .     A
C1077  O1118   1.286   .     A
C1077  O1120   1.287   .     A
C1078  N1106   1.439   .     S
H1080  N1109   1.046   .     S
H1081  N1110   1.045   .     S
H1082  N1110   1.046   .     S
H1083  N1111   1.046   .     S
H1084  N1111   1.045   .     S
H1085  N716    1.046   1_565 S
H1086  N716    1.044   1_565 S
H1087  N1102   1.046   .     S
H1088  N1102   1.045   .     S
H1089  N1169   1.044   .     S
H1091  N1169   1.045   .     S
H1094  N1106   1.046   .     S
H1095  N1106   1.045   .     S
H1096  N1107   1.045   .     S
H1097  N1107   1.046   .     S
H1098  N1108   1.046   .     S
H1099  N1108   1.045   .     S
H1100  N1109   1.045   .     S
N1101  Zn1122  2.023   .     S
N1101  N1169   1.384   .     S
N1101  N1171   1.285   .     S
N1102  C679    1.443   1_565 S
N1104  H1159   1.044   .     S
N1104  H1158   1.043   .     S
N1104  N1171   1.384   .     S
N1105  Zn1121  2.023   .     S
O1113  Zn1121  1.981   .     S
O1114  Zn1122  1.981   .     S
O1115  Zn1122  1.994   .     S
O1116  Zn1121  1.994   .     S
O1117  Zn1121  1.999   .     S
O1118  Zn1122  1.999   .     S
O1119  Zn1122  2.018   .     S
O1120  Zn1121  2.018   .     S
C1123  O1179   1.276   .     A
C1123  O1181   1.291   .     A
C1123  C1140   1.405   .     S
C1124  C1126   1.400   .     A
C1124  N1173   1.439   .     S
C1124  C1135   1.403   .     A
C1125  C1143   1.421   .     S
C1125  C1144   1.400   .     A
C1125  C1127   1.395   .     A
C1126  C1128   1.396   .     A
C1126  C1142   1.419   .     S
C1127  N1174   1.439   .     S
C1127  C1129   1.388   .     A
C1128  N1175   1.440   .     S
C1128  C1130   1.389   .     A
C1129  C1131   1.415   .     A
C1129  C1136   1.397   .     A
C1130  C1137   1.397   .     A
C1130  C1132   1.415   .     A
C1131  C1133   1.426   .     A
C1132  C1135   1.427   .     A
C1132  C537    1.404   1_556 S
C1133  C1144   1.404   .     A
C1133  C1139   1.416   .     A
C1134  O1180   1.276   .     A
C1134  C1141   1.399   .     S
C1134  O1182   1.290   .     A
C1135  C1138   1.416   .     A
C1136  H1145   1.084   .     S
C1137  H1156   1.084   .     S
C1137  C545    1.386   1_556 S
C1138  N1176   1.434   .     S
C1138  C542    1.385   1_556 S
C1139  N1177   1.434   .     S
C1140  C745    1.360   1_565 S
C1140  N782    1.444   1_565 S
C1142  O1185   1.286   .     A
C1142  O1183   1.286   .     A
C1143  O1184   1.286   .     A
C1143  O1186   1.287   .     A
C1144  N1172   1.439   .     S
H1146  N1175   1.046   .     S
H1147  N1176   1.045   .     S
H1148  N1176   1.046   .     S
H1149  N1177   1.046   .     S
H1150  N1177   1.045   .     S
H1151  N782    1.046   1_565 S
H1152  N782    1.044   1_565 S
H1153  N1168   1.046   .     S
H1154  N1168   1.045   .     S
H1155  N1037   1.044   1_655 S
H1157  N1037   1.045   1_655 S
H1160  N1172   1.046   .     S
H1161  N1172   1.045   .     S
H1162  N1173   1.045   .     S
H1163  N1173   1.046   .     S
H1164  N1174   1.046   .     S
H1165  N1174   1.045   .     S
H1166  N1175   1.045   .     S
N1167  Zn1188  2.023   .     S
N1167  N1037   1.384   1_655 S
N1167  N1039   1.285   1_655 S
N1168  C745    1.443   1_565 S
N1170  H1027   1.044   1_655 S
N1170  H1026   1.043   1_655 S
N1170  N1039   1.384   1_655 S
N1171  Zn1187  2.023   .     S
O1179  Zn1187  1.981   .     S
O1180  Zn1188  1.981   .     S
O1181  Zn1188  1.994   .     S
O1182  Zn1187  1.994   .     S
O1183  Zn1187  1.999   .     S
O1184  Zn1188  1.999   .     S
O1185  Zn1188  2.018   .     S
O1186  Zn1187  2.018   .     S
