data_str_m3_o10_o16_pcu_sym.189
_audit_creation_date              2020-01-03
_audit_creation_method            'Materials Studio'
_symmetry_space_group_name_H-M    'P1'
_symmetry_Int_Tables_number       1
_symmetry_cell_setting            triclinic
loop_
_symmetry_equiv_pos_as_xyz
  x,y,z
_cell_length_a                    23.6299
_cell_length_b                    25.7017
_cell_length_c                    25.9565
_cell_angle_alpha                 93.1641
_cell_angle_beta                  104.6370
_cell_angle_gamma                 93.1232
loop_
_atom_site_label
_atom_site_type_symbol
_atom_site_fract_x
_atom_site_fract_y
_atom_site_fract_z
_atom_site_U_iso_or_equiv
_atom_site_adp_type
_atom_site_occupancy
C1     C     0.01468   0.26474   0.24986   0.00000  Uiso   1.00
C2     C     0.14702   0.18472   0.48581   0.00000  Uiso   1.00
C3     C     0.12115   0.16563   0.43334   0.00000  Uiso   1.00
C4     C     0.20213   0.17028   0.01044   0.00000  Uiso   1.00
C5     C     0.24056   0.15605   0.48012   0.00000  Uiso   1.00
C6     C     0.21651   0.13566   0.42782   0.00000  Uiso   1.00
C7     C     0.15548   0.13445   0.40710   0.00000  Uiso   1.00
C8     C     0.21824   0.16365   0.06431   0.00000  Uiso   1.00
C9     C     0.31880   0.17870   0.05929   0.00000  Uiso   1.00
C10    C     0.06467   0.18203   0.40896   0.00000  Uiso   1.00
C11    C     0.02276   0.31951   0.25421   0.00000  Uiso   1.00
C12    C     0.03791   0.16953   0.35327   0.00000  Uiso   1.00
C13    C     0.30933   0.01440   0.24736   0.00000  Uiso   1.00
C14    C     0.31867   0.06877   0.25088   0.00000  Uiso   1.00
C15    C     0.29662   0.16548   0.14673   0.00000  Uiso   1.00
C16    C     0.30069   0.16138   0.00488   0.00000  Uiso   1.00
C17    C     0.27771   0.17019   0.08997   0.00000  Uiso   1.00
C18    C     0.04098   0.22226   0.43394   0.00000  Uiso   1.00
C19    C     0.07073   0.24409   0.48397   0.00000  Uiso   1.00
C20    C     0.12258   0.22406   0.01052   0.00000  Uiso   1.00
H21    H     0.24380   0.11858   0.40452   0.00000  Uiso   1.00
H22    H     0.33199   0.15391   0.48223   0.00000  Uiso   1.00
H23    H     0.00050   0.23842   0.41394   0.00000  Uiso   1.00
H24    H     0.14744   0.24202   0.04838   0.00000  Uiso   1.00
H25    H     0.05363   0.27673   0.00165   0.00000  Uiso   1.00
H26    H     0.13768   0.11146   0.36992   0.00000  Uiso   1.00
H27    H     0.06746   0.00369   0.26515   0.00000  Uiso   1.00
N28    N     0.14493   0.15223   0.23543   0.00000  Uiso   1.00
N29    N     0.18840   0.18110   0.26458   0.00000  Uiso   1.00
O30    O     0.29769   0.24629   0.25358   0.00000  Uiso   1.00
O31    O     0.05742   0.23704   0.24424   0.00000  Uiso   1.00
O32    O     0.31490   0.17358   0.33380   0.00000  Uiso   1.00
O33    O     0.07463   0.16433   0.32446   0.00000  Uiso   1.00
O34    O     0.27592   0.09629   0.25577   0.00000  Uiso   1.00
O35    O     0.03565   0.08704   0.24643   0.00000  Uiso   1.00
O36    O     0.25870   0.16901   0.17554   0.00000  Uiso   1.00
O37    O     0.01843   0.15976   0.16620   0.00000  Uiso   1.00
Zn38   Zn    0.27119   0.17284   0.25624   0.00000  Uiso   1.00
Zn39   Zn    0.06214   0.16049   0.24377   0.00000  Uiso   1.00
O40    O     0.04235   0.20013   0.08175   0.00000  Uiso   1.00
C41    C     0.04049   0.25142   0.10520   0.00000  Uiso   1.00
H42    H     0.02166   0.25045   0.14006   0.00000  Uiso   1.00
H43    H     0.01263   0.27583   0.07612   0.00000  Uiso   1.00
C44    C     0.10247   0.27866   0.12384   0.00000  Uiso   1.00
H45    H     0.13550   0.24937   0.13552   0.00000  Uiso   1.00
H46    H     0.11156   0.30008   0.09080   0.00000  Uiso   1.00
C47    C     0.10985   0.31909   0.17056   0.00000  Uiso   1.00
H48    H     0.07212   0.01074   0.16438   0.00000  Uiso   1.00
H49    H     0.15057   0.01090   0.17504   0.00000  Uiso   1.00
H50    H     0.11534   0.29921   0.20788   0.00000  Uiso   1.00
F51    F     0.25280   0.32701   0.23325   0.00000  Uiso   1.00
F52    F     0.15650   0.12611   0.19401   0.00000  Uiso   1.00
O53    O     0.17627   0.20278   0.30858   0.00000  Uiso   1.00
C54    C     0.20730   0.25182   0.32122   0.00000  Uiso   1.00
H55    H     0.19565   0.27645   0.28668   0.00000  Uiso   1.00
H56    H     0.25513   0.24775   0.33268   0.00000  Uiso   1.00
C57    C     0.19024   0.27862   0.36858   0.00000  Uiso   1.00
H58    H     0.14208   0.28243   0.35813   0.00000  Uiso   1.00
H59    H     0.20161   0.25432   0.40339   0.00000  Uiso   1.00
C60    C     0.22189   0.33271   0.38410   0.00000  Uiso   1.00
H61    H     0.27014   0.32978   0.39545   0.00000  Uiso   1.00
H62    H     0.20874   0.01745   0.41877   0.00000  Uiso   1.00
H63    H     0.21007   0.02481   0.35029   0.00000  Uiso   1.00
O64    O     0.17716   0.14158   0.08799   0.00000  Uiso   1.00
C65    C     0.18117   0.08640   0.08644   0.00000  Uiso   1.00
H66    H     0.16484   0.07135   0.11934   0.00000  Uiso   1.00
H67    H     0.22714   0.07466   0.09374   0.00000  Uiso   1.00
C68    C     0.14396   0.05827   0.03410   0.00000  Uiso   1.00
H69    H     0.15841   0.07191   0.49947   0.00000  Uiso   1.00
H70    H     0.15068   0.01590   0.03471   0.00000  Uiso   1.00
C71    C     0.07897   0.06595   0.02644   0.00000  Uiso   1.00
H72    H     0.06266   0.04845   0.05861   0.00000  Uiso   1.00
H73    H     0.05360   0.04713   0.48727   0.00000  Uiso   1.00
H74    H     0.07223   0.10818   0.02743   0.00000  Uiso   1.00
C75    C     0.34801   0.26474   0.24986   0.00000  Uiso   1.00
C76    C     0.48035   0.18472   0.48581   0.00000  Uiso   1.00
C77    C     0.45448   0.16563   0.43334   0.00000  Uiso   1.00
C78    C     0.53547   0.17028   0.01044   0.00000  Uiso   1.00
C79    C     0.57390   0.15605   0.48012   0.00000  Uiso   1.00
C80    C     0.54984   0.13566   0.42782   0.00000  Uiso   1.00
C81    C     0.48881   0.13445   0.40710   0.00000  Uiso   1.00
C82    C     0.55157   0.16365   0.06431   0.00000  Uiso   1.00
C83    C     0.65214   0.17870   0.05929   0.00000  Uiso   1.00
C84    C     0.39800   0.18203   0.40896   0.00000  Uiso   1.00
C85    C     0.35610   0.31951   0.25421   0.00000  Uiso   1.00
C86    C     0.37124   0.16953   0.35327   0.00000  Uiso   1.00
C87    C     0.64266   0.01440   0.24736   0.00000  Uiso   1.00
C88    C     0.65200   0.06877   0.25088   0.00000  Uiso   1.00
C89    C     0.62995   0.16548   0.14673   0.00000  Uiso   1.00
C90    C     0.63403   0.16138   0.00488   0.00000  Uiso   1.00
C91    C     0.61104   0.17019   0.08997   0.00000  Uiso   1.00
C92    C     0.37431   0.22226   0.43394   0.00000  Uiso   1.00
C93    C     0.40407   0.24409   0.48397   0.00000  Uiso   1.00
C94    C     0.45592   0.22406   0.01052   0.00000  Uiso   1.00
H95    H     0.57713   0.11858   0.40452   0.00000  Uiso   1.00
H96    H     0.66532   0.15391   0.48223   0.00000  Uiso   1.00
H97    H     0.33383   0.23842   0.41394   0.00000  Uiso   1.00
H98    H     0.48077   0.24202   0.04838   0.00000  Uiso   1.00
H99    H     0.38696   0.27673   0.00165   0.00000  Uiso   1.00
H100   H     0.47102   0.11146   0.36992   0.00000  Uiso   1.00
H101   H     0.40079   0.00369   0.26515   0.00000  Uiso   1.00
N102   N     0.47827   0.15223   0.23543   0.00000  Uiso   1.00
N103   N     0.52173   0.18110   0.26458   0.00000  Uiso   1.00
O104   O     0.63102   0.24629   0.25358   0.00000  Uiso   1.00
O105   O     0.39075   0.23704   0.24424   0.00000  Uiso   1.00
O106   O     0.64823   0.17358   0.33380   0.00000  Uiso   1.00
O107   O     0.40796   0.16433   0.32446   0.00000  Uiso   1.00
O108   O     0.60925   0.09629   0.25577   0.00000  Uiso   1.00
O109   O     0.36898   0.08704   0.24643   0.00000  Uiso   1.00
O110   O     0.59204   0.16901   0.17554   0.00000  Uiso   1.00
O111   O     0.35177   0.15976   0.16620   0.00000  Uiso   1.00
Zn112  Zn    0.60453   0.17284   0.25624   0.00000  Uiso   1.00
Zn113  Zn    0.39547   0.16049   0.24377   0.00000  Uiso   1.00
O114   O     0.37569   0.20013   0.08175   0.00000  Uiso   1.00
C115   C     0.37383   0.25142   0.10520   0.00000  Uiso   1.00
H116   H     0.35499   0.25045   0.14006   0.00000  Uiso   1.00
H117   H     0.34596   0.27583   0.07612   0.00000  Uiso   1.00
C118   C     0.43581   0.27866   0.12384   0.00000  Uiso   1.00
H119   H     0.46883   0.24937   0.13552   0.00000  Uiso   1.00
H120   H     0.44490   0.30008   0.09080   0.00000  Uiso   1.00
C121   C     0.44318   0.31909   0.17056   0.00000  Uiso   1.00
H122   H     0.40545   0.01074   0.16438   0.00000  Uiso   1.00
H123   H     0.48390   0.01090   0.17504   0.00000  Uiso   1.00
H124   H     0.44867   0.29921   0.20788   0.00000  Uiso   1.00
F125   F     0.58613   0.32701   0.23325   0.00000  Uiso   1.00
F126   F     0.48984   0.12611   0.19401   0.00000  Uiso   1.00
O127   O     0.50960   0.20278   0.30858   0.00000  Uiso   1.00
C128   C     0.54064   0.25182   0.32122   0.00000  Uiso   1.00
H129   H     0.52899   0.27645   0.28668   0.00000  Uiso   1.00
H130   H     0.58846   0.24775   0.33268   0.00000  Uiso   1.00
C131   C     0.52357   0.27862   0.36858   0.00000  Uiso   1.00
H132   H     0.47542   0.28243   0.35813   0.00000  Uiso   1.00
H133   H     0.53494   0.25432   0.40339   0.00000  Uiso   1.00
C134   C     0.55522   0.33271   0.38410   0.00000  Uiso   1.00
H135   H     0.60347   0.32978   0.39545   0.00000  Uiso   1.00
H136   H     0.54208   0.01745   0.41877   0.00000  Uiso   1.00
H137   H     0.54341   0.02481   0.35029   0.00000  Uiso   1.00
O138   O     0.51049   0.14158   0.08799   0.00000  Uiso   1.00
C139   C     0.51451   0.08640   0.08644   0.00000  Uiso   1.00
H140   H     0.49817   0.07135   0.11934   0.00000  Uiso   1.00
H141   H     0.56048   0.07466   0.09374   0.00000  Uiso   1.00
C142   C     0.47729   0.05827   0.03410   0.00000  Uiso   1.00
H143   H     0.49175   0.07191   0.49947   0.00000  Uiso   1.00
H144   H     0.48401   0.01590   0.03471   0.00000  Uiso   1.00
C145   C     0.41230   0.06595   0.02644   0.00000  Uiso   1.00
H146   H     0.39600   0.04845   0.05861   0.00000  Uiso   1.00
H147   H     0.38693   0.04713   0.48727   0.00000  Uiso   1.00
H148   H     0.40557   0.10818   0.02743   0.00000  Uiso   1.00
C149   C     0.68135   0.26474   0.24986   0.00000  Uiso   1.00
C150   C     0.81369   0.18472   0.48581   0.00000  Uiso   1.00
C151   C     0.78781   0.16563   0.43334   0.00000  Uiso   1.00
C152   C     0.86880   0.17028   0.01044   0.00000  Uiso   1.00
C153   C     0.90723   0.15605   0.48012   0.00000  Uiso   1.00
C154   C     0.88317   0.13566   0.42782   0.00000  Uiso   1.00
C155   C     0.82214   0.13445   0.40710   0.00000  Uiso   1.00
C156   C     0.88491   0.16365   0.06431   0.00000  Uiso   1.00
C157   C     0.98547   0.17870   0.05929   0.00000  Uiso   1.00
C158   C     0.73134   0.18203   0.40896   0.00000  Uiso   1.00
C159   C     0.68943   0.31951   0.25421   0.00000  Uiso   1.00
C160   C     0.70457   0.16953   0.35327   0.00000  Uiso   1.00
C161   C     0.97600   0.01440   0.24736   0.00000  Uiso   1.00
C162   C     0.98534   0.06877   0.25088   0.00000  Uiso   1.00
C163   C     0.96328   0.16548   0.14673   0.00000  Uiso   1.00
C164   C     0.96736   0.16138   0.00488   0.00000  Uiso   1.00
C165   C     0.94437   0.17019   0.08997   0.00000  Uiso   1.00
C166   C     0.70765   0.22226   0.43394   0.00000  Uiso   1.00
C167   C     0.73740   0.24409   0.48397   0.00000  Uiso   1.00
C168   C     0.78925   0.22406   0.01052   0.00000  Uiso   1.00
H169   H     0.91047   0.11858   0.40452   0.00000  Uiso   1.00
H170   H     0.99865   0.15391   0.48223   0.00000  Uiso   1.00
H171   H     0.66717   0.23842   0.41394   0.00000  Uiso   1.00
H172   H     0.81410   0.24202   0.04838   0.00000  Uiso   1.00
H173   H     0.72029   0.27673   0.00165   0.00000  Uiso   1.00
H174   H     0.80435   0.11146   0.36992   0.00000  Uiso   1.00
H175   H     0.73413   0.00369   0.26515   0.00000  Uiso   1.00
N176   N     0.81160   0.15223   0.23543   0.00000  Uiso   1.00
N177   N     0.85507   0.18110   0.26458   0.00000  Uiso   1.00
O178   O     0.96435   0.24629   0.25358   0.00000  Uiso   1.00
O179   O     0.72408   0.23704   0.24424   0.00000  Uiso   1.00
O180   O     0.98157   0.17358   0.33380   0.00000  Uiso   1.00
O181   O     0.74130   0.16433   0.32446   0.00000  Uiso   1.00
O182   O     0.94258   0.09629   0.25577   0.00000  Uiso   1.00
O183   O     0.70231   0.08704   0.24643   0.00000  Uiso   1.00
O184   O     0.92537   0.16901   0.17554   0.00000  Uiso   1.00
O185   O     0.68510   0.15976   0.16620   0.00000  Uiso   1.00
Zn186  Zn    0.93786   0.17284   0.25624   0.00000  Uiso   1.00
Zn187  Zn    0.72881   0.16049   0.24377   0.00000  Uiso   1.00
O188   O     0.70902   0.20013   0.08175   0.00000  Uiso   1.00
C189   C     0.70716   0.25142   0.10520   0.00000  Uiso   1.00
H190   H     0.68833   0.25045   0.14006   0.00000  Uiso   1.00
H191   H     0.67930   0.27583   0.07612   0.00000  Uiso   1.00
C192   C     0.76914   0.27866   0.12384   0.00000  Uiso   1.00
H193   H     0.80216   0.24937   0.13552   0.00000  Uiso   1.00
H194   H     0.77823   0.30008   0.09080   0.00000  Uiso   1.00
C195   C     0.77652   0.31909   0.17056   0.00000  Uiso   1.00
H196   H     0.73879   0.01074   0.16438   0.00000  Uiso   1.00
H197   H     0.81723   0.01090   0.17504   0.00000  Uiso   1.00
H198   H     0.78200   0.29921   0.20788   0.00000  Uiso   1.00
F199   F     0.91947   0.32701   0.23325   0.00000  Uiso   1.00
F200   F     0.82317   0.12611   0.19401   0.00000  Uiso   1.00
O201   O     0.84294   0.20278   0.30858   0.00000  Uiso   1.00
C202   C     0.87397   0.25182   0.32122   0.00000  Uiso   1.00
H203   H     0.86232   0.27645   0.28668   0.00000  Uiso   1.00
H204   H     0.92180   0.24775   0.33268   0.00000  Uiso   1.00
C205   C     0.85690   0.27862   0.36858   0.00000  Uiso   1.00
H206   H     0.80875   0.28243   0.35813   0.00000  Uiso   1.00
H207   H     0.86827   0.25432   0.40339   0.00000  Uiso   1.00
C208   C     0.88856   0.33271   0.38410   0.00000  Uiso   1.00
H209   H     0.93681   0.32978   0.39545   0.00000  Uiso   1.00
H210   H     0.87541   0.01745   0.41877   0.00000  Uiso   1.00
H211   H     0.87674   0.02481   0.35029   0.00000  Uiso   1.00
O212   O     0.84382   0.14158   0.08799   0.00000  Uiso   1.00
C213   C     0.84784   0.08640   0.08644   0.00000  Uiso   1.00
H214   H     0.83151   0.07135   0.11934   0.00000  Uiso   1.00
H215   H     0.89381   0.07466   0.09374   0.00000  Uiso   1.00
C216   C     0.81062   0.05827   0.03410   0.00000  Uiso   1.00
H217   H     0.82508   0.07191   0.49947   0.00000  Uiso   1.00
H218   H     0.81734   0.01590   0.03471   0.00000  Uiso   1.00
C219   C     0.74563   0.06595   0.02644   0.00000  Uiso   1.00
H220   H     0.72933   0.04845   0.05861   0.00000  Uiso   1.00
H221   H     0.72027   0.04713   0.48727   0.00000  Uiso   1.00
H222   H     0.73890   0.10818   0.02743   0.00000  Uiso   1.00
C223   C     0.01468   0.59808   0.24986   0.00000  Uiso   1.00
C224   C     0.14702   0.51806   0.48581   0.00000  Uiso   1.00
C225   C     0.12115   0.49896   0.43334   0.00000  Uiso   1.00
C226   C     0.20213   0.50361   0.01044   0.00000  Uiso   1.00
C227   C     0.24056   0.48939   0.48012   0.00000  Uiso   1.00
C228   C     0.21651   0.46899   0.42782   0.00000  Uiso   1.00
C229   C     0.15548   0.46778   0.40710   0.00000  Uiso   1.00
C230   C     0.21824   0.49699   0.06431   0.00000  Uiso   1.00
C231   C     0.31880   0.51204   0.05929   0.00000  Uiso   1.00
C232   C     0.06467   0.51536   0.40896   0.00000  Uiso   1.00
C233   C     0.02276   0.65284   0.25421   0.00000  Uiso   1.00
C234   C     0.03791   0.50286   0.35327   0.00000  Uiso   1.00
C235   C     0.30933   0.34773   0.24736   0.00000  Uiso   1.00
C236   C     0.31867   0.40210   0.25088   0.00000  Uiso   1.00
C237   C     0.29662   0.49882   0.14673   0.00000  Uiso   1.00
C238   C     0.30069   0.49471   0.00488   0.00000  Uiso   1.00
C239   C     0.27771   0.50352   0.08997   0.00000  Uiso   1.00
C240   C     0.04098   0.55560   0.43394   0.00000  Uiso   1.00
C241   C     0.07073   0.57743   0.48397   0.00000  Uiso   1.00
C242   C     0.12258   0.55739   0.01052   0.00000  Uiso   1.00
H243   H     0.24380   0.45191   0.40452   0.00000  Uiso   1.00
H244   H     0.33199   0.48724   0.48223   0.00000  Uiso   1.00
H245   H     0.00050   0.57175   0.41394   0.00000  Uiso   1.00
H246   H     0.14744   0.57536   0.04838   0.00000  Uiso   1.00
H247   H     0.05363   0.61007   0.00165   0.00000  Uiso   1.00
H248   H     0.13768   0.44479   0.36992   0.00000  Uiso   1.00
H249   H     0.06746   0.33702   0.26515   0.00000  Uiso   1.00
N250   N     0.14493   0.48556   0.23543   0.00000  Uiso   1.00
N251   N     0.18840   0.51444   0.26458   0.00000  Uiso   1.00
O252   O     0.29769   0.57963   0.25358   0.00000  Uiso   1.00
O253   O     0.05742   0.57038   0.24424   0.00000  Uiso   1.00
O254   O     0.31490   0.50691   0.33380   0.00000  Uiso   1.00
O255   O     0.07463   0.49766   0.32446   0.00000  Uiso   1.00
O256   O     0.27592   0.42962   0.25577   0.00000  Uiso   1.00
O257   O     0.03565   0.42037   0.24643   0.00000  Uiso   1.00
O258   O     0.25870   0.50234   0.17554   0.00000  Uiso   1.00
O259   O     0.01843   0.49309   0.16620   0.00000  Uiso   1.00
Zn260  Zn    0.27119   0.50618   0.25624   0.00000  Uiso   1.00
Zn261  Zn    0.06214   0.49382   0.24377   0.00000  Uiso   1.00
O262   O     0.04235   0.53347   0.08175   0.00000  Uiso   1.00
C263   C     0.04049   0.58475   0.10520   0.00000  Uiso   1.00
H264   H     0.02166   0.58378   0.14006   0.00000  Uiso   1.00
H265   H     0.01263   0.60916   0.07612   0.00000  Uiso   1.00
C266   C     0.10247   0.61199   0.12384   0.00000  Uiso   1.00
H267   H     0.13550   0.58270   0.13552   0.00000  Uiso   1.00
H268   H     0.11156   0.63341   0.09080   0.00000  Uiso   1.00
C269   C     0.10985   0.65243   0.17056   0.00000  Uiso   1.00
H270   H     0.07212   0.34407   0.16438   0.00000  Uiso   1.00
H271   H     0.15057   0.34424   0.17504   0.00000  Uiso   1.00
H272   H     0.11534   0.63254   0.20788   0.00000  Uiso   1.00
F273   F     0.25280   0.66035   0.23325   0.00000  Uiso   1.00
F274   F     0.15650   0.45945   0.19401   0.00000  Uiso   1.00
O275   O     0.17627   0.53611   0.30858   0.00000  Uiso   1.00
C276   C     0.20730   0.58515   0.32122   0.00000  Uiso   1.00
H277   H     0.19565   0.60978   0.28668   0.00000  Uiso   1.00
H278   H     0.25513   0.58109   0.33268   0.00000  Uiso   1.00
C279   C     0.19024   0.61195   0.36858   0.00000  Uiso   1.00
H280   H     0.14208   0.61577   0.35813   0.00000  Uiso   1.00
H281   H     0.20161   0.58766   0.40339   0.00000  Uiso   1.00
C282   C     0.22189   0.66604   0.38410   0.00000  Uiso   1.00
H283   H     0.27014   0.66311   0.39545   0.00000  Uiso   1.00
H284   H     0.20874   0.35079   0.41877   0.00000  Uiso   1.00
H285   H     0.21007   0.35814   0.35029   0.00000  Uiso   1.00
O286   O     0.17716   0.47492   0.08799   0.00000  Uiso   1.00
C287   C     0.18117   0.41973   0.08644   0.00000  Uiso   1.00
H288   H     0.16484   0.40468   0.11934   0.00000  Uiso   1.00
H289   H     0.22714   0.40800   0.09374   0.00000  Uiso   1.00
C290   C     0.14396   0.39161   0.03410   0.00000  Uiso   1.00
H291   H     0.15841   0.40525   0.49947   0.00000  Uiso   1.00
H292   H     0.15068   0.34923   0.03471   0.00000  Uiso   1.00
C293   C     0.07897   0.39928   0.02644   0.00000  Uiso   1.00
H294   H     0.06266   0.38178   0.05861   0.00000  Uiso   1.00
H295   H     0.05360   0.38047   0.48727   0.00000  Uiso   1.00
H296   H     0.07223   0.44151   0.02743   0.00000  Uiso   1.00
C297   C     0.34801   0.59808   0.24986   0.00000  Uiso   1.00
C298   C     0.48035   0.51806   0.48581   0.00000  Uiso   1.00
C299   C     0.45448   0.49896   0.43334   0.00000  Uiso   1.00
C300   C     0.53547   0.50361   0.01044   0.00000  Uiso   1.00
C301   C     0.57390   0.48939   0.48012   0.00000  Uiso   1.00
C302   C     0.54984   0.46899   0.42782   0.00000  Uiso   1.00
C303   C     0.48881   0.46778   0.40710   0.00000  Uiso   1.00
C304   C     0.55157   0.49699   0.06431   0.00000  Uiso   1.00
C305   C     0.65214   0.51204   0.05929   0.00000  Uiso   1.00
C306   C     0.39800   0.51536   0.40896   0.00000  Uiso   1.00
C307   C     0.35610   0.65284   0.25421   0.00000  Uiso   1.00
C308   C     0.37124   0.50286   0.35327   0.00000  Uiso   1.00
C309   C     0.64266   0.34773   0.24736   0.00000  Uiso   1.00
C310   C     0.65200   0.40210   0.25088   0.00000  Uiso   1.00
C311   C     0.62995   0.49882   0.14673   0.00000  Uiso   1.00
C312   C     0.63403   0.49471   0.00488   0.00000  Uiso   1.00
C313   C     0.61104   0.50352   0.08997   0.00000  Uiso   1.00
C314   C     0.37431   0.55560   0.43394   0.00000  Uiso   1.00
C315   C     0.40407   0.57743   0.48397   0.00000  Uiso   1.00
C316   C     0.45592   0.55739   0.01052   0.00000  Uiso   1.00
H317   H     0.57713   0.45191   0.40452   0.00000  Uiso   1.00
H318   H     0.66532   0.48724   0.48223   0.00000  Uiso   1.00
H319   H     0.33383   0.57175   0.41394   0.00000  Uiso   1.00
H320   H     0.48077   0.57536   0.04838   0.00000  Uiso   1.00
H321   H     0.38696   0.61007   0.00165   0.00000  Uiso   1.00
H322   H     0.47102   0.44479   0.36992   0.00000  Uiso   1.00
H323   H     0.40079   0.33702   0.26515   0.00000  Uiso   1.00
N324   N     0.47827   0.48556   0.23543   0.00000  Uiso   1.00
N325   N     0.52173   0.51444   0.26458   0.00000  Uiso   1.00
O326   O     0.63102   0.57963   0.25358   0.00000  Uiso   1.00
O327   O     0.39075   0.57038   0.24424   0.00000  Uiso   1.00
O328   O     0.64823   0.50691   0.33380   0.00000  Uiso   1.00
O329   O     0.40796   0.49766   0.32446   0.00000  Uiso   1.00
O330   O     0.60925   0.42962   0.25577   0.00000  Uiso   1.00
O331   O     0.36898   0.42037   0.24643   0.00000  Uiso   1.00
O332   O     0.59204   0.50234   0.17554   0.00000  Uiso   1.00
O333   O     0.35177   0.49309   0.16620   0.00000  Uiso   1.00
Zn334  Zn    0.60453   0.50618   0.25624   0.00000  Uiso   1.00
Zn335  Zn    0.39547   0.49382   0.24377   0.00000  Uiso   1.00
O336   O     0.37569   0.53347   0.08175   0.00000  Uiso   1.00
C337   C     0.37383   0.58475   0.10520   0.00000  Uiso   1.00
H338   H     0.35499   0.58378   0.14006   0.00000  Uiso   1.00
H339   H     0.34596   0.60916   0.07612   0.00000  Uiso   1.00
C340   C     0.43581   0.61199   0.12384   0.00000  Uiso   1.00
H341   H     0.46883   0.58270   0.13552   0.00000  Uiso   1.00
H342   H     0.44490   0.63341   0.09080   0.00000  Uiso   1.00
C343   C     0.44318   0.65243   0.17056   0.00000  Uiso   1.00
H344   H     0.40545   0.34407   0.16438   0.00000  Uiso   1.00
H345   H     0.48390   0.34424   0.17504   0.00000  Uiso   1.00
H346   H     0.44867   0.63254   0.20788   0.00000  Uiso   1.00
F347   F     0.58613   0.66035   0.23325   0.00000  Uiso   1.00
F348   F     0.48984   0.45945   0.19401   0.00000  Uiso   1.00
O349   O     0.50960   0.53611   0.30858   0.00000  Uiso   1.00
C350   C     0.54064   0.58515   0.32122   0.00000  Uiso   1.00
H351   H     0.52899   0.60978   0.28668   0.00000  Uiso   1.00
H352   H     0.58846   0.58109   0.33268   0.00000  Uiso   1.00
C353   C     0.52357   0.61195   0.36858   0.00000  Uiso   1.00
H354   H     0.47542   0.61577   0.35813   0.00000  Uiso   1.00
H355   H     0.53494   0.58766   0.40339   0.00000  Uiso   1.00
C356   C     0.55522   0.66604   0.38410   0.00000  Uiso   1.00
H357   H     0.60347   0.66311   0.39545   0.00000  Uiso   1.00
H358   H     0.54208   0.35079   0.41877   0.00000  Uiso   1.00
H359   H     0.54341   0.35814   0.35029   0.00000  Uiso   1.00
O360   O     0.51049   0.47492   0.08799   0.00000  Uiso   1.00
C361   C     0.51451   0.41973   0.08644   0.00000  Uiso   1.00
H362   H     0.49817   0.40468   0.11934   0.00000  Uiso   1.00
H363   H     0.56048   0.40800   0.09374   0.00000  Uiso   1.00
C364   C     0.47729   0.39161   0.03410   0.00000  Uiso   1.00
H365   H     0.49175   0.40525   0.49947   0.00000  Uiso   1.00
H366   H     0.48401   0.34923   0.03471   0.00000  Uiso   1.00
C367   C     0.41230   0.39928   0.02644   0.00000  Uiso   1.00
H368   H     0.39600   0.38178   0.05861   0.00000  Uiso   1.00
H369   H     0.38693   0.38047   0.48727   0.00000  Uiso   1.00
H370   H     0.40557   0.44151   0.02743   0.00000  Uiso   1.00
C371   C     0.68135   0.59808   0.24986   0.00000  Uiso   1.00
C372   C     0.81369   0.51806   0.48581   0.00000  Uiso   1.00
C373   C     0.78781   0.49896   0.43334   0.00000  Uiso   1.00
C374   C     0.86880   0.50361   0.01044   0.00000  Uiso   1.00
C375   C     0.90723   0.48939   0.48012   0.00000  Uiso   1.00
C376   C     0.88317   0.46899   0.42782   0.00000  Uiso   1.00
C377   C     0.82214   0.46778   0.40710   0.00000  Uiso   1.00
C378   C     0.88491   0.49699   0.06431   0.00000  Uiso   1.00
C379   C     0.98547   0.51204   0.05929   0.00000  Uiso   1.00
C380   C     0.73134   0.51536   0.40896   0.00000  Uiso   1.00
C381   C     0.68943   0.65284   0.25421   0.00000  Uiso   1.00
C382   C     0.70457   0.50286   0.35327   0.00000  Uiso   1.00
C383   C     0.97600   0.34773   0.24736   0.00000  Uiso   1.00
C384   C     0.98534   0.40210   0.25088   0.00000  Uiso   1.00
C385   C     0.96328   0.49882   0.14673   0.00000  Uiso   1.00
C386   C     0.96736   0.49471   0.00488   0.00000  Uiso   1.00
C387   C     0.94437   0.50352   0.08997   0.00000  Uiso   1.00
C388   C     0.70765   0.55560   0.43394   0.00000  Uiso   1.00
C389   C     0.73740   0.57743   0.48397   0.00000  Uiso   1.00
C390   C     0.78925   0.55739   0.01052   0.00000  Uiso   1.00
H391   H     0.91047   0.45191   0.40452   0.00000  Uiso   1.00
H392   H     0.99865   0.48724   0.48223   0.00000  Uiso   1.00
H393   H     0.66717   0.57175   0.41394   0.00000  Uiso   1.00
H394   H     0.81410   0.57536   0.04838   0.00000  Uiso   1.00
H395   H     0.72029   0.61007   0.00165   0.00000  Uiso   1.00
H396   H     0.80435   0.44479   0.36992   0.00000  Uiso   1.00
H397   H     0.73413   0.33702   0.26515   0.00000  Uiso   1.00
N398   N     0.81160   0.48556   0.23543   0.00000  Uiso   1.00
N399   N     0.85507   0.51444   0.26458   0.00000  Uiso   1.00
O400   O     0.96435   0.57963   0.25358   0.00000  Uiso   1.00
O401   O     0.72408   0.57038   0.24424   0.00000  Uiso   1.00
O402   O     0.98157   0.50691   0.33380   0.00000  Uiso   1.00
O403   O     0.74130   0.49766   0.32446   0.00000  Uiso   1.00
O404   O     0.94258   0.42962   0.25577   0.00000  Uiso   1.00
O405   O     0.70231   0.42037   0.24643   0.00000  Uiso   1.00
O406   O     0.92537   0.50234   0.17554   0.00000  Uiso   1.00
O407   O     0.68510   0.49309   0.16620   0.00000  Uiso   1.00
Zn408  Zn    0.93786   0.50618   0.25624   0.00000  Uiso   1.00
Zn409  Zn    0.72881   0.49382   0.24377   0.00000  Uiso   1.00
O410   O     0.70902   0.53347   0.08175   0.00000  Uiso   1.00
C411   C     0.70716   0.58475   0.10520   0.00000  Uiso   1.00
H412   H     0.68833   0.58378   0.14006   0.00000  Uiso   1.00
H413   H     0.67930   0.60916   0.07612   0.00000  Uiso   1.00
C414   C     0.76914   0.61199   0.12384   0.00000  Uiso   1.00
H415   H     0.80216   0.58270   0.13552   0.00000  Uiso   1.00
H416   H     0.77823   0.63341   0.09080   0.00000  Uiso   1.00
C417   C     0.77652   0.65243   0.17056   0.00000  Uiso   1.00
H418   H     0.73879   0.34407   0.16438   0.00000  Uiso   1.00
H419   H     0.81723   0.34424   0.17504   0.00000  Uiso   1.00
H420   H     0.78200   0.63254   0.20788   0.00000  Uiso   1.00
F421   F     0.91947   0.66035   0.23325   0.00000  Uiso   1.00
F422   F     0.82317   0.45945   0.19401   0.00000  Uiso   1.00
O423   O     0.84294   0.53611   0.30858   0.00000  Uiso   1.00
C424   C     0.87397   0.58515   0.32122   0.00000  Uiso   1.00
H425   H     0.86232   0.60978   0.28668   0.00000  Uiso   1.00
H426   H     0.92180   0.58109   0.33268   0.00000  Uiso   1.00
C427   C     0.85690   0.61195   0.36858   0.00000  Uiso   1.00
H428   H     0.80875   0.61577   0.35813   0.00000  Uiso   1.00
H429   H     0.86827   0.58766   0.40339   0.00000  Uiso   1.00
C430   C     0.88856   0.66604   0.38410   0.00000  Uiso   1.00
H431   H     0.93681   0.66311   0.39545   0.00000  Uiso   1.00
H432   H     0.87541   0.35079   0.41877   0.00000  Uiso   1.00
H433   H     0.87674   0.35814   0.35029   0.00000  Uiso   1.00
O434   O     0.84382   0.47492   0.08799   0.00000  Uiso   1.00
C435   C     0.84784   0.41973   0.08644   0.00000  Uiso   1.00
H436   H     0.83151   0.40468   0.11934   0.00000  Uiso   1.00
H437   H     0.89381   0.40800   0.09374   0.00000  Uiso   1.00
C438   C     0.81062   0.39161   0.03410   0.00000  Uiso   1.00
H439   H     0.82508   0.40525   0.49947   0.00000  Uiso   1.00
H440   H     0.81734   0.34923   0.03471   0.00000  Uiso   1.00
C441   C     0.74563   0.39928   0.02644   0.00000  Uiso   1.00
H442   H     0.72933   0.38178   0.05861   0.00000  Uiso   1.00
H443   H     0.72027   0.38047   0.48727   0.00000  Uiso   1.00
H444   H     0.73890   0.44151   0.02743   0.00000  Uiso   1.00
C445   C     0.01468   0.93141   0.24986   0.00000  Uiso   1.00
C446   C     0.14702   0.85139   0.48581   0.00000  Uiso   1.00
C447   C     0.12115   0.83230   0.43334   0.00000  Uiso   1.00
C448   C     0.20213   0.83695   0.01044   0.00000  Uiso   1.00
C449   C     0.24056   0.82272   0.48012   0.00000  Uiso   1.00
C450   C     0.21651   0.80232   0.42782   0.00000  Uiso   1.00
C451   C     0.15548   0.80112   0.40710   0.00000  Uiso   1.00
C452   C     0.21824   0.83032   0.06431   0.00000  Uiso   1.00
C453   C     0.31880   0.84537   0.05929   0.00000  Uiso   1.00
C454   C     0.06467   0.84869   0.40896   0.00000  Uiso   1.00
C455   C     0.02276   0.98617   0.25421   0.00000  Uiso   1.00
C456   C     0.03791   0.83620   0.35327   0.00000  Uiso   1.00
C457   C     0.30933   0.68107   0.24736   0.00000  Uiso   1.00
C458   C     0.31867   0.73544   0.25088   0.00000  Uiso   1.00
C459   C     0.29662   0.83215   0.14673   0.00000  Uiso   1.00
C460   C     0.30069   0.82804   0.00488   0.00000  Uiso   1.00
C461   C     0.27771   0.83685   0.08997   0.00000  Uiso   1.00
C462   C     0.04098   0.88893   0.43394   0.00000  Uiso   1.00
C463   C     0.07073   0.91076   0.48397   0.00000  Uiso   1.00
C464   C     0.12258   0.89073   0.01052   0.00000  Uiso   1.00
H465   H     0.24380   0.78524   0.40452   0.00000  Uiso   1.00
H466   H     0.33199   0.82057   0.48223   0.00000  Uiso   1.00
H467   H     0.00050   0.90508   0.41394   0.00000  Uiso   1.00
H468   H     0.14744   0.90869   0.04838   0.00000  Uiso   1.00
H469   H     0.05363   0.94340   0.00165   0.00000  Uiso   1.00
H470   H     0.13768   0.77813   0.36992   0.00000  Uiso   1.00
H471   H     0.06746   0.67035   0.26515   0.00000  Uiso   1.00
N472   N     0.14493   0.81890   0.23543   0.00000  Uiso   1.00
N473   N     0.18840   0.84777   0.26458   0.00000  Uiso   1.00
O474   O     0.29769   0.91296   0.25358   0.00000  Uiso   1.00
O475   O     0.05742   0.90371   0.24424   0.00000  Uiso   1.00
O476   O     0.31490   0.84024   0.33380   0.00000  Uiso   1.00
O477   O     0.07463   0.83099   0.32446   0.00000  Uiso   1.00
O478   O     0.27592   0.76296   0.25577   0.00000  Uiso   1.00
O479   O     0.03565   0.75371   0.24643   0.00000  Uiso   1.00
O480   O     0.25870   0.83567   0.17554   0.00000  Uiso   1.00
O481   O     0.01843   0.82642   0.16620   0.00000  Uiso   1.00
Zn482  Zn    0.27119   0.83951   0.25624   0.00000  Uiso   1.00
Zn483  Zn    0.06214   0.82716   0.24377   0.00000  Uiso   1.00
O484   O     0.04235   0.86680   0.08175   0.00000  Uiso   1.00
C485   C     0.04049   0.91809   0.10520   0.00000  Uiso   1.00
H486   H     0.02166   0.91711   0.14006   0.00000  Uiso   1.00
H487   H     0.01263   0.94249   0.07612   0.00000  Uiso   1.00
C488   C     0.10247   0.94533   0.12384   0.00000  Uiso   1.00
H489   H     0.13550   0.91603   0.13552   0.00000  Uiso   1.00
H490   H     0.11156   0.96674   0.09080   0.00000  Uiso   1.00
C491   C     0.10985   0.98576   0.17056   0.00000  Uiso   1.00
H492   H     0.07212   0.67741   0.16438   0.00000  Uiso   1.00
H493   H     0.15057   0.67757   0.17504   0.00000  Uiso   1.00
H494   H     0.11534   0.96588   0.20788   0.00000  Uiso   1.00
F495   F     0.25280   0.99368   0.23325   0.00000  Uiso   1.00
F496   F     0.15650   0.79278   0.19401   0.00000  Uiso   1.00
O497   O     0.17627   0.86945   0.30858   0.00000  Uiso   1.00
C498   C     0.20730   0.91849   0.32122   0.00000  Uiso   1.00
H499   H     0.19565   0.94311   0.28668   0.00000  Uiso   1.00
H500   H     0.25513   0.91442   0.33268   0.00000  Uiso   1.00
C501   C     0.19024   0.94529   0.36858   0.00000  Uiso   1.00
H502   H     0.14208   0.94910   0.35813   0.00000  Uiso   1.00
H503   H     0.20161   0.92099   0.40339   0.00000  Uiso   1.00
C504   C     0.22189   0.99938   0.38410   0.00000  Uiso   1.00
H505   H     0.27014   0.99645   0.39545   0.00000  Uiso   1.00
H506   H     0.20874   0.68412   0.41877   0.00000  Uiso   1.00
H507   H     0.21007   0.69148   0.35029   0.00000  Uiso   1.00
O508   O     0.17716   0.80825   0.08799   0.00000  Uiso   1.00
C509   C     0.18117   0.75306   0.08644   0.00000  Uiso   1.00
H510   H     0.16484   0.73801   0.11934   0.00000  Uiso   1.00
H511   H     0.22714   0.74133   0.09374   0.00000  Uiso   1.00
C512   C     0.14396   0.72494   0.03410   0.00000  Uiso   1.00
H513   H     0.15841   0.73858   0.49947   0.00000  Uiso   1.00
H514   H     0.15068   0.68257   0.03471   0.00000  Uiso   1.00
C515   C     0.07897   0.73262   0.02644   0.00000  Uiso   1.00
H516   H     0.06266   0.71511   0.05861   0.00000  Uiso   1.00
H517   H     0.05360   0.71380   0.48727   0.00000  Uiso   1.00
H518   H     0.07223   0.77485   0.02743   0.00000  Uiso   1.00
C519   C     0.34801   0.93141   0.24986   0.00000  Uiso   1.00
C520   C     0.48035   0.85139   0.48581   0.00000  Uiso   1.00
C521   C     0.45448   0.83230   0.43334   0.00000  Uiso   1.00
C522   C     0.53547   0.83695   0.01044   0.00000  Uiso   1.00
C523   C     0.57390   0.82272   0.48012   0.00000  Uiso   1.00
C524   C     0.54984   0.80232   0.42782   0.00000  Uiso   1.00
C525   C     0.48881   0.80112   0.40710   0.00000  Uiso   1.00
C526   C     0.55157   0.83032   0.06431   0.00000  Uiso   1.00
C527   C     0.65214   0.84537   0.05929   0.00000  Uiso   1.00
C528   C     0.39800   0.84869   0.40896   0.00000  Uiso   1.00
C529   C     0.35610   0.98617   0.25421   0.00000  Uiso   1.00
C530   C     0.37124   0.83620   0.35327   0.00000  Uiso   1.00
C531   C     0.64266   0.68107   0.24736   0.00000  Uiso   1.00
C532   C     0.65200   0.73544   0.25088   0.00000  Uiso   1.00
C533   C     0.62995   0.83215   0.14673   0.00000  Uiso   1.00
C534   C     0.63403   0.82804   0.00488   0.00000  Uiso   1.00
C535   C     0.61104   0.83685   0.08997   0.00000  Uiso   1.00
C536   C     0.37431   0.88893   0.43394   0.00000  Uiso   1.00
C537   C     0.40407   0.91076   0.48397   0.00000  Uiso   1.00
C538   C     0.45592   0.89073   0.01052   0.00000  Uiso   1.00
H539   H     0.57713   0.78524   0.40452   0.00000  Uiso   1.00
H540   H     0.66532   0.82057   0.48223   0.00000  Uiso   1.00
H541   H     0.33383   0.90508   0.41394   0.00000  Uiso   1.00
H542   H     0.48077   0.90869   0.04838   0.00000  Uiso   1.00
H543   H     0.38696   0.94340   0.00165   0.00000  Uiso   1.00
H544   H     0.47102   0.77813   0.36992   0.00000  Uiso   1.00
H545   H     0.40079   0.67035   0.26515   0.00000  Uiso   1.00
N546   N     0.47827   0.81890   0.23543   0.00000  Uiso   1.00
N547   N     0.52173   0.84777   0.26458   0.00000  Uiso   1.00
O548   O     0.63102   0.91296   0.25358   0.00000  Uiso   1.00
O549   O     0.39075   0.90371   0.24424   0.00000  Uiso   1.00
O550   O     0.64823   0.84024   0.33380   0.00000  Uiso   1.00
O551   O     0.40796   0.83099   0.32446   0.00000  Uiso   1.00
O552   O     0.60925   0.76296   0.25577   0.00000  Uiso   1.00
O553   O     0.36898   0.75371   0.24643   0.00000  Uiso   1.00
O554   O     0.59204   0.83567   0.17554   0.00000  Uiso   1.00
O555   O     0.35177   0.82642   0.16620   0.00000  Uiso   1.00
Zn556  Zn    0.60453   0.83951   0.25624   0.00000  Uiso   1.00
Zn557  Zn    0.39547   0.82716   0.24377   0.00000  Uiso   1.00
O558   O     0.37569   0.86680   0.08175   0.00000  Uiso   1.00
C559   C     0.37383   0.91809   0.10520   0.00000  Uiso   1.00
H560   H     0.35499   0.91711   0.14006   0.00000  Uiso   1.00
H561   H     0.34596   0.94249   0.07612   0.00000  Uiso   1.00
C562   C     0.43581   0.94533   0.12384   0.00000  Uiso   1.00
H563   H     0.46883   0.91603   0.13552   0.00000  Uiso   1.00
H564   H     0.44490   0.96674   0.09080   0.00000  Uiso   1.00
C565   C     0.44318   0.98576   0.17056   0.00000  Uiso   1.00
H566   H     0.40545   0.67741   0.16438   0.00000  Uiso   1.00
H567   H     0.48390   0.67757   0.17504   0.00000  Uiso   1.00
H568   H     0.44867   0.96588   0.20788   0.00000  Uiso   1.00
F569   F     0.58613   0.99368   0.23325   0.00000  Uiso   1.00
F570   F     0.48984   0.79278   0.19401   0.00000  Uiso   1.00
O571   O     0.50960   0.86945   0.30858   0.00000  Uiso   1.00
C572   C     0.54064   0.91849   0.32122   0.00000  Uiso   1.00
H573   H     0.52899   0.94311   0.28668   0.00000  Uiso   1.00
H574   H     0.58846   0.91442   0.33268   0.00000  Uiso   1.00
C575   C     0.52357   0.94529   0.36858   0.00000  Uiso   1.00
H576   H     0.47542   0.94910   0.35813   0.00000  Uiso   1.00
H577   H     0.53494   0.92099   0.40339   0.00000  Uiso   1.00
C578   C     0.55522   0.99938   0.38410   0.00000  Uiso   1.00
H579   H     0.60347   0.99645   0.39545   0.00000  Uiso   1.00
H580   H     0.54208   0.68412   0.41877   0.00000  Uiso   1.00
H581   H     0.54341   0.69148   0.35029   0.00000  Uiso   1.00
O582   O     0.51049   0.80825   0.08799   0.00000  Uiso   1.00
C583   C     0.51451   0.75306   0.08644   0.00000  Uiso   1.00
H584   H     0.49817   0.73801   0.11934   0.00000  Uiso   1.00
H585   H     0.56048   0.74133   0.09374   0.00000  Uiso   1.00
C586   C     0.47729   0.72494   0.03410   0.00000  Uiso   1.00
H587   H     0.49175   0.73858   0.49947   0.00000  Uiso   1.00
H588   H     0.48401   0.68257   0.03471   0.00000  Uiso   1.00
C589   C     0.41230   0.73262   0.02644   0.00000  Uiso   1.00
H590   H     0.39600   0.71511   0.05861   0.00000  Uiso   1.00
H591   H     0.38693   0.71380   0.48727   0.00000  Uiso   1.00
H592   H     0.40557   0.77485   0.02743   0.00000  Uiso   1.00
C593   C     0.68135   0.93141   0.24986   0.00000  Uiso   1.00
C594   C     0.81369   0.85139   0.48581   0.00000  Uiso   1.00
C595   C     0.78781   0.83230   0.43334   0.00000  Uiso   1.00
C596   C     0.86880   0.83695   0.01044   0.00000  Uiso   1.00
C597   C     0.90723   0.82272   0.48012   0.00000  Uiso   1.00
C598   C     0.88317   0.80232   0.42782   0.00000  Uiso   1.00
C599   C     0.82214   0.80112   0.40710   0.00000  Uiso   1.00
C600   C     0.88491   0.83032   0.06431   0.00000  Uiso   1.00
C601   C     0.98547   0.84537   0.05929   0.00000  Uiso   1.00
C602   C     0.73134   0.84869   0.40896   0.00000  Uiso   1.00
C603   C     0.68943   0.98617   0.25421   0.00000  Uiso   1.00
C604   C     0.70457   0.83620   0.35327   0.00000  Uiso   1.00
C605   C     0.97600   0.68107   0.24736   0.00000  Uiso   1.00
C606   C     0.98534   0.73544   0.25088   0.00000  Uiso   1.00
C607   C     0.96328   0.83215   0.14673   0.00000  Uiso   1.00
C608   C     0.96736   0.82804   0.00488   0.00000  Uiso   1.00
C609   C     0.94437   0.83685   0.08997   0.00000  Uiso   1.00
C610   C     0.70765   0.88893   0.43394   0.00000  Uiso   1.00
C611   C     0.73740   0.91076   0.48397   0.00000  Uiso   1.00
C612   C     0.78925   0.89073   0.01052   0.00000  Uiso   1.00
H613   H     0.91047   0.78524   0.40452   0.00000  Uiso   1.00
H614   H     0.99865   0.82057   0.48223   0.00000  Uiso   1.00
H615   H     0.66717   0.90508   0.41394   0.00000  Uiso   1.00
H616   H     0.81410   0.90869   0.04838   0.00000  Uiso   1.00
H617   H     0.72029   0.94340   0.00165   0.00000  Uiso   1.00
H618   H     0.80435   0.77813   0.36992   0.00000  Uiso   1.00
H619   H     0.73413   0.67035   0.26515   0.00000  Uiso   1.00
N620   N     0.81160   0.81890   0.23543   0.00000  Uiso   1.00
N621   N     0.85507   0.84777   0.26458   0.00000  Uiso   1.00
O622   O     0.96435   0.91296   0.25358   0.00000  Uiso   1.00
O623   O     0.72408   0.90371   0.24424   0.00000  Uiso   1.00
O624   O     0.98157   0.84024   0.33380   0.00000  Uiso   1.00
O625   O     0.74130   0.83099   0.32446   0.00000  Uiso   1.00
O626   O     0.94258   0.76296   0.25577   0.00000  Uiso   1.00
O627   O     0.70231   0.75371   0.24643   0.00000  Uiso   1.00
O628   O     0.92537   0.83567   0.17554   0.00000  Uiso   1.00
O629   O     0.68510   0.82642   0.16620   0.00000  Uiso   1.00
Zn630  Zn    0.93786   0.83951   0.25624   0.00000  Uiso   1.00
Zn631  Zn    0.72881   0.82716   0.24377   0.00000  Uiso   1.00
O632   O     0.70902   0.86680   0.08175   0.00000  Uiso   1.00
C633   C     0.70716   0.91809   0.10520   0.00000  Uiso   1.00
H634   H     0.68833   0.91711   0.14006   0.00000  Uiso   1.00
H635   H     0.67930   0.94249   0.07612   0.00000  Uiso   1.00
C636   C     0.76914   0.94533   0.12384   0.00000  Uiso   1.00
H637   H     0.80216   0.91603   0.13552   0.00000  Uiso   1.00
H638   H     0.77823   0.96674   0.09080   0.00000  Uiso   1.00
C639   C     0.77652   0.98576   0.17056   0.00000  Uiso   1.00
H640   H     0.73879   0.67741   0.16438   0.00000  Uiso   1.00
H641   H     0.81723   0.67757   0.17504   0.00000  Uiso   1.00
H642   H     0.78200   0.96588   0.20788   0.00000  Uiso   1.00
F643   F     0.91947   0.99368   0.23325   0.00000  Uiso   1.00
F644   F     0.82317   0.79278   0.19401   0.00000  Uiso   1.00
O645   O     0.84294   0.86945   0.30858   0.00000  Uiso   1.00
C646   C     0.87397   0.91849   0.32122   0.00000  Uiso   1.00
H647   H     0.86232   0.94311   0.28668   0.00000  Uiso   1.00
H648   H     0.92180   0.91442   0.33268   0.00000  Uiso   1.00
C649   C     0.85690   0.94529   0.36858   0.00000  Uiso   1.00
H650   H     0.80875   0.94910   0.35813   0.00000  Uiso   1.00
H651   H     0.86827   0.92099   0.40339   0.00000  Uiso   1.00
C652   C     0.88856   0.99938   0.38410   0.00000  Uiso   1.00
H653   H     0.93681   0.99645   0.39545   0.00000  Uiso   1.00
H654   H     0.87541   0.68412   0.41877   0.00000  Uiso   1.00
H655   H     0.87674   0.69148   0.35029   0.00000  Uiso   1.00
O656   O     0.84382   0.80825   0.08799   0.00000  Uiso   1.00
C657   C     0.84784   0.75306   0.08644   0.00000  Uiso   1.00
H658   H     0.83151   0.73801   0.11934   0.00000  Uiso   1.00
H659   H     0.89381   0.74133   0.09374   0.00000  Uiso   1.00
C660   C     0.81062   0.72494   0.03410   0.00000  Uiso   1.00
H661   H     0.82508   0.73858   0.49947   0.00000  Uiso   1.00
H662   H     0.81734   0.68257   0.03471   0.00000  Uiso   1.00
C663   C     0.74563   0.73262   0.02644   0.00000  Uiso   1.00
H664   H     0.72933   0.71511   0.05861   0.00000  Uiso   1.00
H665   H     0.72027   0.71380   0.48727   0.00000  Uiso   1.00
H666   H     0.73890   0.77485   0.02743   0.00000  Uiso   1.00
C667   C     0.01468   0.26474   0.74986   0.00000  Uiso   1.00
C668   C     0.14702   0.18472   0.98581   0.00000  Uiso   1.00
C669   C     0.12115   0.16563   0.93334   0.00000  Uiso   1.00
C670   C     0.20213   0.17028   0.51044   0.00000  Uiso   1.00
C671   C     0.24056   0.15605   0.98012   0.00000  Uiso   1.00
C672   C     0.21651   0.13566   0.92782   0.00000  Uiso   1.00
C673   C     0.15548   0.13445   0.90710   0.00000  Uiso   1.00
C674   C     0.21824   0.16365   0.56431   0.00000  Uiso   1.00
C675   C     0.31880   0.17870   0.55929   0.00000  Uiso   1.00
C676   C     0.06467   0.18203   0.90896   0.00000  Uiso   1.00
C677   C     0.02276   0.31951   0.75421   0.00000  Uiso   1.00
C678   C     0.03791   0.16953   0.85327   0.00000  Uiso   1.00
C679   C     0.30933   0.01440   0.74736   0.00000  Uiso   1.00
C680   C     0.31867   0.06877   0.75088   0.00000  Uiso   1.00
C681   C     0.29662   0.16548   0.64673   0.00000  Uiso   1.00
C682   C     0.30069   0.16138   0.50488   0.00000  Uiso   1.00
C683   C     0.27771   0.17019   0.58997   0.00000  Uiso   1.00
C684   C     0.04098   0.22226   0.93394   0.00000  Uiso   1.00
C685   C     0.07073   0.24409   0.98397   0.00000  Uiso   1.00
C686   C     0.12258   0.22406   0.51052   0.00000  Uiso   1.00
H687   H     0.24380   0.11858   0.90452   0.00000  Uiso   1.00
H688   H     0.33199   0.15391   0.98223   0.00000  Uiso   1.00
H689   H     0.00050   0.23842   0.91394   0.00000  Uiso   1.00
H690   H     0.14744   0.24202   0.54838   0.00000  Uiso   1.00
H691   H     0.05363   0.27673   0.50165   0.00000  Uiso   1.00
H692   H     0.13768   0.11146   0.86992   0.00000  Uiso   1.00
H693   H     0.06746   0.00369   0.76515   0.00000  Uiso   1.00
N694   N     0.14493   0.15223   0.73543   0.00000  Uiso   1.00
N695   N     0.18840   0.18110   0.76458   0.00000  Uiso   1.00
O696   O     0.29769   0.24629   0.75358   0.00000  Uiso   1.00
O697   O     0.05742   0.23704   0.74424   0.00000  Uiso   1.00
O698   O     0.31490   0.17358   0.83380   0.00000  Uiso   1.00
O699   O     0.07463   0.16433   0.82446   0.00000  Uiso   1.00
O700   O     0.27592   0.09629   0.75577   0.00000  Uiso   1.00
O701   O     0.03565   0.08704   0.74643   0.00000  Uiso   1.00
O702   O     0.25870   0.16901   0.67554   0.00000  Uiso   1.00
O703   O     0.01843   0.15976   0.66620   0.00000  Uiso   1.00
Zn704  Zn    0.27119   0.17284   0.75624   0.00000  Uiso   1.00
Zn705  Zn    0.06214   0.16049   0.74377   0.00000  Uiso   1.00
O706   O     0.04235   0.20013   0.58175   0.00000  Uiso   1.00
C707   C     0.04049   0.25142   0.60520   0.00000  Uiso   1.00
H708   H     0.02166   0.25045   0.64006   0.00000  Uiso   1.00
H709   H     0.01263   0.27583   0.57612   0.00000  Uiso   1.00
C710   C     0.10247   0.27866   0.62384   0.00000  Uiso   1.00
H711   H     0.13550   0.24937   0.63552   0.00000  Uiso   1.00
H712   H     0.11156   0.30008   0.59080   0.00000  Uiso   1.00
C713   C     0.10985   0.31909   0.67056   0.00000  Uiso   1.00
H714   H     0.07212   0.01074   0.66438   0.00000  Uiso   1.00
H715   H     0.15057   0.01090   0.67504   0.00000  Uiso   1.00
H716   H     0.11534   0.29921   0.70788   0.00000  Uiso   1.00
F717   F     0.25280   0.32701   0.73325   0.00000  Uiso   1.00
F718   F     0.15650   0.12611   0.69401   0.00000  Uiso   1.00
O719   O     0.17627   0.20278   0.80858   0.00000  Uiso   1.00
C720   C     0.20730   0.25182   0.82122   0.00000  Uiso   1.00
H721   H     0.19565   0.27645   0.78668   0.00000  Uiso   1.00
H722   H     0.25513   0.24775   0.83268   0.00000  Uiso   1.00
C723   C     0.19024   0.27862   0.86858   0.00000  Uiso   1.00
H724   H     0.14208   0.28243   0.85813   0.00000  Uiso   1.00
H725   H     0.20161   0.25432   0.90339   0.00000  Uiso   1.00
C726   C     0.22189   0.33271   0.88410   0.00000  Uiso   1.00
H727   H     0.27014   0.32978   0.89545   0.00000  Uiso   1.00
H728   H     0.20874   0.01745   0.91877   0.00000  Uiso   1.00
H729   H     0.21007   0.02481   0.85029   0.00000  Uiso   1.00
O730   O     0.17716   0.14158   0.58799   0.00000  Uiso   1.00
C731   C     0.18117   0.08640   0.58644   0.00000  Uiso   1.00
H732   H     0.16484   0.07135   0.61934   0.00000  Uiso   1.00
H733   H     0.22714   0.07466   0.59374   0.00000  Uiso   1.00
C734   C     0.14396   0.05827   0.53410   0.00000  Uiso   1.00
H735   H     0.15841   0.07191   0.99947   0.00000  Uiso   1.00
H736   H     0.15068   0.01590   0.53471   0.00000  Uiso   1.00
C737   C     0.07897   0.06595   0.52644   0.00000  Uiso   1.00
H738   H     0.06266   0.04845   0.55861   0.00000  Uiso   1.00
H739   H     0.05360   0.04713   0.98727   0.00000  Uiso   1.00
H740   H     0.07223   0.10818   0.52743   0.00000  Uiso   1.00
C741   C     0.34801   0.26474   0.74986   0.00000  Uiso   1.00
C742   C     0.48035   0.18472   0.98581   0.00000  Uiso   1.00
C743   C     0.45448   0.16563   0.93334   0.00000  Uiso   1.00
C744   C     0.53547   0.17028   0.51044   0.00000  Uiso   1.00
C745   C     0.57390   0.15605   0.98012   0.00000  Uiso   1.00
C746   C     0.54984   0.13566   0.92782   0.00000  Uiso   1.00
C747   C     0.48881   0.13445   0.90710   0.00000  Uiso   1.00
C748   C     0.55157   0.16365   0.56431   0.00000  Uiso   1.00
C749   C     0.65214   0.17870   0.55929   0.00000  Uiso   1.00
C750   C     0.39800   0.18203   0.90896   0.00000  Uiso   1.00
C751   C     0.35610   0.31951   0.75421   0.00000  Uiso   1.00
C752   C     0.37124   0.16953   0.85327   0.00000  Uiso   1.00
C753   C     0.64266   0.01440   0.74736   0.00000  Uiso   1.00
C754   C     0.65200   0.06877   0.75088   0.00000  Uiso   1.00
C755   C     0.62995   0.16548   0.64673   0.00000  Uiso   1.00
C756   C     0.63403   0.16138   0.50488   0.00000  Uiso   1.00
C757   C     0.61104   0.17019   0.58997   0.00000  Uiso   1.00
C758   C     0.37431   0.22226   0.93394   0.00000  Uiso   1.00
C759   C     0.40407   0.24409   0.98397   0.00000  Uiso   1.00
C760   C     0.45592   0.22406   0.51052   0.00000  Uiso   1.00
H761   H     0.57713   0.11858   0.90452   0.00000  Uiso   1.00
H762   H     0.66532   0.15391   0.98223   0.00000  Uiso   1.00
H763   H     0.33383   0.23842   0.91394   0.00000  Uiso   1.00
H764   H     0.48077   0.24202   0.54838   0.00000  Uiso   1.00
H765   H     0.38696   0.27673   0.50165   0.00000  Uiso   1.00
H766   H     0.47102   0.11146   0.86992   0.00000  Uiso   1.00
H767   H     0.40079   0.00369   0.76515   0.00000  Uiso   1.00
N768   N     0.47827   0.15223   0.73543   0.00000  Uiso   1.00
N769   N     0.52173   0.18110   0.76458   0.00000  Uiso   1.00
O770   O     0.63102   0.24629   0.75358   0.00000  Uiso   1.00
O771   O     0.39075   0.23704   0.74424   0.00000  Uiso   1.00
O772   O     0.64823   0.17358   0.83380   0.00000  Uiso   1.00
O773   O     0.40796   0.16433   0.82446   0.00000  Uiso   1.00
O774   O     0.60925   0.09629   0.75577   0.00000  Uiso   1.00
O775   O     0.36898   0.08704   0.74643   0.00000  Uiso   1.00
O776   O     0.59204   0.16901   0.67554   0.00000  Uiso   1.00
O777   O     0.35177   0.15976   0.66620   0.00000  Uiso   1.00
Zn778  Zn    0.60453   0.17284   0.75624   0.00000  Uiso   1.00
Zn779  Zn    0.39547   0.16049   0.74377   0.00000  Uiso   1.00
O780   O     0.37569   0.20013   0.58175   0.00000  Uiso   1.00
C781   C     0.37383   0.25142   0.60520   0.00000  Uiso   1.00
H782   H     0.35499   0.25045   0.64006   0.00000  Uiso   1.00
H783   H     0.34596   0.27583   0.57612   0.00000  Uiso   1.00
C784   C     0.43581   0.27866   0.62384   0.00000  Uiso   1.00
H785   H     0.46883   0.24937   0.63552   0.00000  Uiso   1.00
H786   H     0.44490   0.30008   0.59080   0.00000  Uiso   1.00
C787   C     0.44318   0.31909   0.67056   0.00000  Uiso   1.00
H788   H     0.40545   0.01074   0.66438   0.00000  Uiso   1.00
H789   H     0.48390   0.01090   0.67504   0.00000  Uiso   1.00
H790   H     0.44867   0.29921   0.70788   0.00000  Uiso   1.00
F791   F     0.58613   0.32701   0.73325   0.00000  Uiso   1.00
F792   F     0.48984   0.12611   0.69401   0.00000  Uiso   1.00
O793   O     0.50960   0.20278   0.80858   0.00000  Uiso   1.00
C794   C     0.54064   0.25182   0.82122   0.00000  Uiso   1.00
H795   H     0.52899   0.27645   0.78668   0.00000  Uiso   1.00
H796   H     0.58846   0.24775   0.83268   0.00000  Uiso   1.00
C797   C     0.52357   0.27862   0.86858   0.00000  Uiso   1.00
H798   H     0.47542   0.28243   0.85813   0.00000  Uiso   1.00
H799   H     0.53494   0.25432   0.90339   0.00000  Uiso   1.00
C800   C     0.55522   0.33271   0.88410   0.00000  Uiso   1.00
H801   H     0.60347   0.32978   0.89545   0.00000  Uiso   1.00
H802   H     0.54208   0.01745   0.91877   0.00000  Uiso   1.00
H803   H     0.54341   0.02481   0.85029   0.00000  Uiso   1.00
O804   O     0.51049   0.14158   0.58799   0.00000  Uiso   1.00
C805   C     0.51451   0.08640   0.58644   0.00000  Uiso   1.00
H806   H     0.49817   0.07135   0.61934   0.00000  Uiso   1.00
H807   H     0.56048   0.07466   0.59374   0.00000  Uiso   1.00
C808   C     0.47729   0.05827   0.53410   0.00000  Uiso   1.00
H809   H     0.49175   0.07191   0.99947   0.00000  Uiso   1.00
H810   H     0.48401   0.01590   0.53471   0.00000  Uiso   1.00
C811   C     0.41230   0.06595   0.52644   0.00000  Uiso   1.00
H812   H     0.39600   0.04845   0.55861   0.00000  Uiso   1.00
H813   H     0.38693   0.04713   0.98727   0.00000  Uiso   1.00
H814   H     0.40557   0.10818   0.52743   0.00000  Uiso   1.00
C815   C     0.68135   0.26474   0.74986   0.00000  Uiso   1.00
C816   C     0.81369   0.18472   0.98581   0.00000  Uiso   1.00
C817   C     0.78781   0.16563   0.93334   0.00000  Uiso   1.00
C818   C     0.86880   0.17028   0.51044   0.00000  Uiso   1.00
C819   C     0.90723   0.15605   0.98012   0.00000  Uiso   1.00
C820   C     0.88317   0.13566   0.92782   0.00000  Uiso   1.00
C821   C     0.82214   0.13445   0.90710   0.00000  Uiso   1.00
C822   C     0.88491   0.16365   0.56431   0.00000  Uiso   1.00
C823   C     0.98547   0.17870   0.55929   0.00000  Uiso   1.00
C824   C     0.73134   0.18203   0.90896   0.00000  Uiso   1.00
C825   C     0.68943   0.31951   0.75421   0.00000  Uiso   1.00
C826   C     0.70457   0.16953   0.85327   0.00000  Uiso   1.00
C827   C     0.97600   0.01440   0.74736   0.00000  Uiso   1.00
C828   C     0.98534   0.06877   0.75088   0.00000  Uiso   1.00
C829   C     0.96328   0.16548   0.64673   0.00000  Uiso   1.00
C830   C     0.96736   0.16138   0.50488   0.00000  Uiso   1.00
C831   C     0.94437   0.17019   0.58997   0.00000  Uiso   1.00
C832   C     0.70765   0.22226   0.93394   0.00000  Uiso   1.00
C833   C     0.73740   0.24409   0.98397   0.00000  Uiso   1.00
C834   C     0.78925   0.22406   0.51052   0.00000  Uiso   1.00
H835   H     0.91047   0.11858   0.90452   0.00000  Uiso   1.00
H836   H     0.99865   0.15391   0.98223   0.00000  Uiso   1.00
H837   H     0.66717   0.23842   0.91394   0.00000  Uiso   1.00
H838   H     0.81410   0.24202   0.54838   0.00000  Uiso   1.00
H839   H     0.72029   0.27673   0.50165   0.00000  Uiso   1.00
H840   H     0.80435   0.11146   0.86992   0.00000  Uiso   1.00
H841   H     0.73413   0.00369   0.76515   0.00000  Uiso   1.00
N842   N     0.81160   0.15223   0.73543   0.00000  Uiso   1.00
N843   N     0.85507   0.18110   0.76458   0.00000  Uiso   1.00
O844   O     0.96435   0.24629   0.75358   0.00000  Uiso   1.00
O845   O     0.72408   0.23704   0.74424   0.00000  Uiso   1.00
O846   O     0.98157   0.17358   0.83380   0.00000  Uiso   1.00
O847   O     0.74130   0.16433   0.82446   0.00000  Uiso   1.00
O848   O     0.94258   0.09629   0.75577   0.00000  Uiso   1.00
O849   O     0.70231   0.08704   0.74643   0.00000  Uiso   1.00
O850   O     0.92537   0.16901   0.67554   0.00000  Uiso   1.00
O851   O     0.68510   0.15976   0.66620   0.00000  Uiso   1.00
Zn852  Zn    0.93786   0.17284   0.75624   0.00000  Uiso   1.00
Zn853  Zn    0.72881   0.16049   0.74377   0.00000  Uiso   1.00
O854   O     0.70902   0.20013   0.58175   0.00000  Uiso   1.00
C855   C     0.70716   0.25142   0.60520   0.00000  Uiso   1.00
H856   H     0.68833   0.25045   0.64006   0.00000  Uiso   1.00
H857   H     0.67930   0.27583   0.57612   0.00000  Uiso   1.00
C858   C     0.76914   0.27866   0.62384   0.00000  Uiso   1.00
H859   H     0.80216   0.24937   0.63552   0.00000  Uiso   1.00
H860   H     0.77823   0.30008   0.59080   0.00000  Uiso   1.00
C861   C     0.77652   0.31909   0.67056   0.00000  Uiso   1.00
H862   H     0.73879   0.01074   0.66438   0.00000  Uiso   1.00
H863   H     0.81723   0.01090   0.67504   0.00000  Uiso   1.00
H864   H     0.78200   0.29921   0.70788   0.00000  Uiso   1.00
F865   F     0.91947   0.32701   0.73325   0.00000  Uiso   1.00
F866   F     0.82317   0.12611   0.69401   0.00000  Uiso   1.00
O867   O     0.84294   0.20278   0.80858   0.00000  Uiso   1.00
C868   C     0.87397   0.25182   0.82122   0.00000  Uiso   1.00
H869   H     0.86232   0.27645   0.78668   0.00000  Uiso   1.00
H870   H     0.92180   0.24775   0.83268   0.00000  Uiso   1.00
C871   C     0.85690   0.27862   0.86858   0.00000  Uiso   1.00
H872   H     0.80875   0.28243   0.85813   0.00000  Uiso   1.00
H873   H     0.86827   0.25432   0.90339   0.00000  Uiso   1.00
C874   C     0.88856   0.33271   0.88410   0.00000  Uiso   1.00
H875   H     0.93681   0.32978   0.89545   0.00000  Uiso   1.00
H876   H     0.87541   0.01745   0.91877   0.00000  Uiso   1.00
H877   H     0.87674   0.02481   0.85029   0.00000  Uiso   1.00
O878   O     0.84382   0.14158   0.58799   0.00000  Uiso   1.00
C879   C     0.84784   0.08640   0.58644   0.00000  Uiso   1.00
H880   H     0.83151   0.07135   0.61934   0.00000  Uiso   1.00
H881   H     0.89381   0.07466   0.59374   0.00000  Uiso   1.00
C882   C     0.81062   0.05827   0.53410   0.00000  Uiso   1.00
H883   H     0.82508   0.07191   0.99947   0.00000  Uiso   1.00
H884   H     0.81734   0.01590   0.53471   0.00000  Uiso   1.00
C885   C     0.74563   0.06595   0.52644   0.00000  Uiso   1.00
H886   H     0.72933   0.04845   0.55861   0.00000  Uiso   1.00
H887   H     0.72027   0.04713   0.98727   0.00000  Uiso   1.00
H888   H     0.73890   0.10818   0.52743   0.00000  Uiso   1.00
C889   C     0.01468   0.59808   0.74986   0.00000  Uiso   1.00
C890   C     0.14702   0.51806   0.98581   0.00000  Uiso   1.00
C891   C     0.12115   0.49896   0.93334   0.00000  Uiso   1.00
C892   C     0.20213   0.50361   0.51044   0.00000  Uiso   1.00
C893   C     0.24056   0.48939   0.98012   0.00000  Uiso   1.00
C894   C     0.21651   0.46899   0.92782   0.00000  Uiso   1.00
C895   C     0.15548   0.46778   0.90710   0.00000  Uiso   1.00
C896   C     0.21824   0.49699   0.56431   0.00000  Uiso   1.00
C897   C     0.31880   0.51204   0.55929   0.00000  Uiso   1.00
C898   C     0.06467   0.51536   0.90896   0.00000  Uiso   1.00
C899   C     0.02276   0.65284   0.75421   0.00000  Uiso   1.00
C900   C     0.03791   0.50286   0.85327   0.00000  Uiso   1.00
C901   C     0.30933   0.34773   0.74736   0.00000  Uiso   1.00
C902   C     0.31867   0.40210   0.75088   0.00000  Uiso   1.00
C903   C     0.29662   0.49882   0.64673   0.00000  Uiso   1.00
C904   C     0.30069   0.49471   0.50488   0.00000  Uiso   1.00
C905   C     0.27771   0.50352   0.58997   0.00000  Uiso   1.00
C906   C     0.04098   0.55560   0.93394   0.00000  Uiso   1.00
C907   C     0.07073   0.57743   0.98397   0.00000  Uiso   1.00
C908   C     0.12258   0.55739   0.51052   0.00000  Uiso   1.00
H909   H     0.24380   0.45191   0.90452   0.00000  Uiso   1.00
H910   H     0.33199   0.48724   0.98223   0.00000  Uiso   1.00
H911   H     0.00050   0.57175   0.91394   0.00000  Uiso   1.00
H912   H     0.14744   0.57536   0.54838   0.00000  Uiso   1.00
H913   H     0.05363   0.61007   0.50165   0.00000  Uiso   1.00
H914   H     0.13768   0.44479   0.86992   0.00000  Uiso   1.00
H915   H     0.06746   0.33702   0.76515   0.00000  Uiso   1.00
N916   N     0.14493   0.48556   0.73543   0.00000  Uiso   1.00
N917   N     0.18840   0.51444   0.76458   0.00000  Uiso   1.00
O918   O     0.29769   0.57963   0.75358   0.00000  Uiso   1.00
O919   O     0.05742   0.57038   0.74424   0.00000  Uiso   1.00
O920   O     0.31490   0.50691   0.83380   0.00000  Uiso   1.00
O921   O     0.07463   0.49766   0.82446   0.00000  Uiso   1.00
O922   O     0.27592   0.42962   0.75577   0.00000  Uiso   1.00
O923   O     0.03565   0.42037   0.74643   0.00000  Uiso   1.00
O924   O     0.25870   0.50234   0.67554   0.00000  Uiso   1.00
O925   O     0.01843   0.49309   0.66620   0.00000  Uiso   1.00
Zn926  Zn    0.27119   0.50618   0.75624   0.00000  Uiso   1.00
Zn927  Zn    0.06214   0.49382   0.74377   0.00000  Uiso   1.00
O928   O     0.04235   0.53347   0.58175   0.00000  Uiso   1.00
C929   C     0.04049   0.58475   0.60520   0.00000  Uiso   1.00
H930   H     0.02166   0.58378   0.64006   0.00000  Uiso   1.00
H931   H     0.01263   0.60916   0.57612   0.00000  Uiso   1.00
C932   C     0.10247   0.61199   0.62384   0.00000  Uiso   1.00
H933   H     0.13550   0.58270   0.63552   0.00000  Uiso   1.00
H934   H     0.11156   0.63341   0.59080   0.00000  Uiso   1.00
C935   C     0.10985   0.65243   0.67056   0.00000  Uiso   1.00
H936   H     0.07212   0.34407   0.66438   0.00000  Uiso   1.00
H937   H     0.15057   0.34424   0.67504   0.00000  Uiso   1.00
H938   H     0.11534   0.63254   0.70788   0.00000  Uiso   1.00
F939   F     0.25280   0.66035   0.73325   0.00000  Uiso   1.00
F940   F     0.15650   0.45945   0.69401   0.00000  Uiso   1.00
O941   O     0.17627   0.53611   0.80858   0.00000  Uiso   1.00
C942   C     0.20730   0.58515   0.82122   0.00000  Uiso   1.00
H943   H     0.19565   0.60978   0.78668   0.00000  Uiso   1.00
H944   H     0.25513   0.58109   0.83268   0.00000  Uiso   1.00
C945   C     0.19024   0.61195   0.86858   0.00000  Uiso   1.00
H946   H     0.14208   0.61577   0.85813   0.00000  Uiso   1.00
H947   H     0.20161   0.58766   0.90339   0.00000  Uiso   1.00
C948   C     0.22189   0.66604   0.88410   0.00000  Uiso   1.00
H949   H     0.27014   0.66311   0.89545   0.00000  Uiso   1.00
H950   H     0.20874   0.35079   0.91877   0.00000  Uiso   1.00
H951   H     0.21007   0.35814   0.85029   0.00000  Uiso   1.00
O952   O     0.17716   0.47492   0.58799   0.00000  Uiso   1.00
C953   C     0.18117   0.41973   0.58644   0.00000  Uiso   1.00
H954   H     0.16484   0.40468   0.61934   0.00000  Uiso   1.00
H955   H     0.22714   0.40800   0.59374   0.00000  Uiso   1.00
C956   C     0.14396   0.39161   0.53410   0.00000  Uiso   1.00
H957   H     0.15841   0.40525   0.99947   0.00000  Uiso   1.00
H958   H     0.15068   0.34923   0.53471   0.00000  Uiso   1.00
C959   C     0.07897   0.39928   0.52644   0.00000  Uiso   1.00
H960   H     0.06266   0.38178   0.55861   0.00000  Uiso   1.00
H961   H     0.05360   0.38047   0.98727   0.00000  Uiso   1.00
H962   H     0.07223   0.44151   0.52743   0.00000  Uiso   1.00
C963   C     0.34801   0.59808   0.74986   0.00000  Uiso   1.00
C964   C     0.48035   0.51806   0.98581   0.00000  Uiso   1.00
C965   C     0.45448   0.49896   0.93334   0.00000  Uiso   1.00
C966   C     0.53547   0.50361   0.51044   0.00000  Uiso   1.00
C967   C     0.57390   0.48939   0.98012   0.00000  Uiso   1.00
C968   C     0.54984   0.46899   0.92782   0.00000  Uiso   1.00
C969   C     0.48881   0.46778   0.90710   0.00000  Uiso   1.00
C970   C     0.55157   0.49699   0.56431   0.00000  Uiso   1.00
C971   C     0.65214   0.51204   0.55929   0.00000  Uiso   1.00
C972   C     0.39800   0.51536   0.90896   0.00000  Uiso   1.00
C973   C     0.35610   0.65284   0.75421   0.00000  Uiso   1.00
C974   C     0.37124   0.50286   0.85327   0.00000  Uiso   1.00
C975   C     0.64266   0.34773   0.74736   0.00000  Uiso   1.00
C976   C     0.65200   0.40210   0.75088   0.00000  Uiso   1.00
C977   C     0.62995   0.49882   0.64673   0.00000  Uiso   1.00
C978   C     0.63403   0.49471   0.50488   0.00000  Uiso   1.00
C979   C     0.61104   0.50352   0.58997   0.00000  Uiso   1.00
C980   C     0.37431   0.55560   0.93394   0.00000  Uiso   1.00
C981   C     0.40407   0.57743   0.98397   0.00000  Uiso   1.00
C982   C     0.45592   0.55739   0.51052   0.00000  Uiso   1.00
H983   H     0.57713   0.45191   0.90452   0.00000  Uiso   1.00
H984   H     0.66532   0.48724   0.98223   0.00000  Uiso   1.00
H985   H     0.33383   0.57175   0.91394   0.00000  Uiso   1.00
H986   H     0.48077   0.57536   0.54838   0.00000  Uiso   1.00
H987   H     0.38696   0.61007   0.50165   0.00000  Uiso   1.00
H988   H     0.47102   0.44479   0.86992   0.00000  Uiso   1.00
H989   H     0.40079   0.33702   0.76515   0.00000  Uiso   1.00
N990   N     0.47827   0.48556   0.73543   0.00000  Uiso   1.00
N991   N     0.52173   0.51444   0.76458   0.00000  Uiso   1.00
O992   O     0.63102   0.57963   0.75358   0.00000  Uiso   1.00
O993   O     0.39075   0.57038   0.74424   0.00000  Uiso   1.00
O994   O     0.64823   0.50691   0.83380   0.00000  Uiso   1.00
O995   O     0.40796   0.49766   0.82446   0.00000  Uiso   1.00
O996   O     0.60925   0.42962   0.75577   0.00000  Uiso   1.00
O997   O     0.36898   0.42037   0.74643   0.00000  Uiso   1.00
O998   O     0.59204   0.50234   0.67554   0.00000  Uiso   1.00
O999   O     0.35177   0.49309   0.66620   0.00000  Uiso   1.00
Zn1000 Zn    0.60453   0.50618   0.75624   0.00000  Uiso   1.00
Zn1001 Zn    0.39547   0.49382   0.74377   0.00000  Uiso   1.00
O1002  O     0.37569   0.53347   0.58175   0.00000  Uiso   1.00
C1003  C     0.37383   0.58475   0.60520   0.00000  Uiso   1.00
H1004  H     0.35499   0.58378   0.64006   0.00000  Uiso   1.00
H1005  H     0.34596   0.60916   0.57612   0.00000  Uiso   1.00
C1006  C     0.43581   0.61199   0.62384   0.00000  Uiso   1.00
H1007  H     0.46883   0.58270   0.63552   0.00000  Uiso   1.00
H1008  H     0.44490   0.63341   0.59080   0.00000  Uiso   1.00
C1009  C     0.44318   0.65243   0.67056   0.00000  Uiso   1.00
H1010  H     0.40545   0.34407   0.66438   0.00000  Uiso   1.00
H1011  H     0.48390   0.34424   0.67504   0.00000  Uiso   1.00
H1012  H     0.44867   0.63254   0.70788   0.00000  Uiso   1.00
F1013  F     0.58613   0.66035   0.73325   0.00000  Uiso   1.00
F1014  F     0.48984   0.45945   0.69401   0.00000  Uiso   1.00
O1015  O     0.50960   0.53611   0.80858   0.00000  Uiso   1.00
C1016  C     0.54064   0.58515   0.82122   0.00000  Uiso   1.00
H1017  H     0.52899   0.60978   0.78668   0.00000  Uiso   1.00
H1018  H     0.58846   0.58109   0.83268   0.00000  Uiso   1.00
C1019  C     0.52357   0.61195   0.86858   0.00000  Uiso   1.00
H1020  H     0.47542   0.61577   0.85813   0.00000  Uiso   1.00
H1021  H     0.53494   0.58766   0.90339   0.00000  Uiso   1.00
C1022  C     0.55522   0.66604   0.88410   0.00000  Uiso   1.00
H1023  H     0.60347   0.66311   0.89545   0.00000  Uiso   1.00
H1024  H     0.54208   0.35079   0.91877   0.00000  Uiso   1.00
H1025  H     0.54341   0.35814   0.85029   0.00000  Uiso   1.00
O1026  O     0.51049   0.47492   0.58799   0.00000  Uiso   1.00
C1027  C     0.51451   0.41973   0.58644   0.00000  Uiso   1.00
H1028  H     0.49817   0.40468   0.61934   0.00000  Uiso   1.00
H1029  H     0.56048   0.40800   0.59374   0.00000  Uiso   1.00
C1030  C     0.47729   0.39161   0.53410   0.00000  Uiso   1.00
H1031  H     0.49175   0.40525   0.99947   0.00000  Uiso   1.00
H1032  H     0.48401   0.34923   0.53471   0.00000  Uiso   1.00
C1033  C     0.41230   0.39928   0.52644   0.00000  Uiso   1.00
H1034  H     0.39600   0.38178   0.55861   0.00000  Uiso   1.00
H1035  H     0.38693   0.38047   0.98727   0.00000  Uiso   1.00
H1036  H     0.40557   0.44151   0.52743   0.00000  Uiso   1.00
C1037  C     0.68135   0.59808   0.74986   0.00000  Uiso   1.00
C1038  C     0.81369   0.51806   0.98581   0.00000  Uiso   1.00
C1039  C     0.78781   0.49896   0.93334   0.00000  Uiso   1.00
C1040  C     0.86880   0.50361   0.51044   0.00000  Uiso   1.00
C1041  C     0.90723   0.48939   0.98012   0.00000  Uiso   1.00
C1042  C     0.88317   0.46899   0.92782   0.00000  Uiso   1.00
C1043  C     0.82214   0.46778   0.90710   0.00000  Uiso   1.00
C1044  C     0.88491   0.49699   0.56431   0.00000  Uiso   1.00
C1045  C     0.98547   0.51204   0.55929   0.00000  Uiso   1.00
C1046  C     0.73134   0.51536   0.90896   0.00000  Uiso   1.00
C1047  C     0.68943   0.65284   0.75421   0.00000  Uiso   1.00
C1048  C     0.70457   0.50286   0.85327   0.00000  Uiso   1.00
C1049  C     0.97600   0.34773   0.74736   0.00000  Uiso   1.00
C1050  C     0.98534   0.40210   0.75088   0.00000  Uiso   1.00
C1051  C     0.96328   0.49882   0.64673   0.00000  Uiso   1.00
C1052  C     0.96736   0.49471   0.50488   0.00000  Uiso   1.00
C1053  C     0.94437   0.50352   0.58997   0.00000  Uiso   1.00
C1054  C     0.70765   0.55560   0.93394   0.00000  Uiso   1.00
C1055  C     0.73740   0.57743   0.98397   0.00000  Uiso   1.00
C1056  C     0.78925   0.55739   0.51052   0.00000  Uiso   1.00
H1057  H     0.91047   0.45191   0.90452   0.00000  Uiso   1.00
H1058  H     0.99865   0.48724   0.98223   0.00000  Uiso   1.00
H1059  H     0.66717   0.57175   0.91394   0.00000  Uiso   1.00
H1060  H     0.81410   0.57536   0.54838   0.00000  Uiso   1.00
H1061  H     0.72029   0.61007   0.50165   0.00000  Uiso   1.00
H1062  H     0.80435   0.44479   0.86992   0.00000  Uiso   1.00
H1063  H     0.73413   0.33702   0.76515   0.00000  Uiso   1.00
N1064  N     0.81160   0.48556   0.73543   0.00000  Uiso   1.00
N1065  N     0.85507   0.51444   0.76458   0.00000  Uiso   1.00
O1066  O     0.96435   0.57963   0.75358   0.00000  Uiso   1.00
O1067  O     0.72408   0.57038   0.74424   0.00000  Uiso   1.00
O1068  O     0.98157   0.50691   0.83380   0.00000  Uiso   1.00
O1069  O     0.74130   0.49766   0.82446   0.00000  Uiso   1.00
O1070  O     0.94258   0.42962   0.75577   0.00000  Uiso   1.00
O1071  O     0.70231   0.42037   0.74643   0.00000  Uiso   1.00
O1072  O     0.92537   0.50234   0.67554   0.00000  Uiso   1.00
O1073  O     0.68510   0.49309   0.66620   0.00000  Uiso   1.00
Zn1074 Zn    0.93786   0.50618   0.75624   0.00000  Uiso   1.00
Zn1075 Zn    0.72881   0.49382   0.74377   0.00000  Uiso   1.00
O1076  O     0.70902   0.53347   0.58175   0.00000  Uiso   1.00
C1077  C     0.70716   0.58475   0.60520   0.00000  Uiso   1.00
H1078  H     0.68833   0.58378   0.64006   0.00000  Uiso   1.00
H1079  H     0.67930   0.60916   0.57612   0.00000  Uiso   1.00
C1080  C     0.76914   0.61199   0.62384   0.00000  Uiso   1.00
H1081  H     0.80216   0.58270   0.63552   0.00000  Uiso   1.00
H1082  H     0.77823   0.63341   0.59080   0.00000  Uiso   1.00
C1083  C     0.77652   0.65243   0.67056   0.00000  Uiso   1.00
H1084  H     0.73879   0.34407   0.66438   0.00000  Uiso   1.00
H1085  H     0.81723   0.34424   0.67504   0.00000  Uiso   1.00
H1086  H     0.78200   0.63254   0.70788   0.00000  Uiso   1.00
F1087  F     0.91947   0.66035   0.73325   0.00000  Uiso   1.00
F1088  F     0.82317   0.45945   0.69401   0.00000  Uiso   1.00
O1089  O     0.84294   0.53611   0.80858   0.00000  Uiso   1.00
C1090  C     0.87397   0.58515   0.82122   0.00000  Uiso   1.00
H1091  H     0.86232   0.60978   0.78668   0.00000  Uiso   1.00
H1092  H     0.92180   0.58109   0.83268   0.00000  Uiso   1.00
C1093  C     0.85690   0.61195   0.86858   0.00000  Uiso   1.00
H1094  H     0.80875   0.61577   0.85813   0.00000  Uiso   1.00
H1095  H     0.86827   0.58766   0.90339   0.00000  Uiso   1.00
C1096  C     0.88856   0.66604   0.88410   0.00000  Uiso   1.00
H1097  H     0.93681   0.66311   0.89545   0.00000  Uiso   1.00
H1098  H     0.87541   0.35079   0.91877   0.00000  Uiso   1.00
H1099  H     0.87674   0.35814   0.85029   0.00000  Uiso   1.00
O1100  O     0.84382   0.47492   0.58799   0.00000  Uiso   1.00
C1101  C     0.84784   0.41973   0.58644   0.00000  Uiso   1.00
H1102  H     0.83151   0.40468   0.61934   0.00000  Uiso   1.00
H1103  H     0.89381   0.40800   0.59374   0.00000  Uiso   1.00
C1104  C     0.81062   0.39161   0.53410   0.00000  Uiso   1.00
H1105  H     0.82508   0.40525   0.99947   0.00000  Uiso   1.00
H1106  H     0.81734   0.34923   0.53471   0.00000  Uiso   1.00
C1107  C     0.74563   0.39928   0.52644   0.00000  Uiso   1.00
H1108  H     0.72933   0.38178   0.55861   0.00000  Uiso   1.00
H1109  H     0.72027   0.38047   0.98727   0.00000  Uiso   1.00
H1110  H     0.73890   0.44151   0.52743   0.00000  Uiso   1.00
C1111  C     0.01468   0.93141   0.74986   0.00000  Uiso   1.00
C1112  C     0.14702   0.85139   0.98581   0.00000  Uiso   1.00
C1113  C     0.12115   0.83230   0.93334   0.00000  Uiso   1.00
C1114  C     0.20213   0.83695   0.51044   0.00000  Uiso   1.00
C1115  C     0.24056   0.82272   0.98012   0.00000  Uiso   1.00
C1116  C     0.21651   0.80232   0.92782   0.00000  Uiso   1.00
C1117  C     0.15548   0.80112   0.90710   0.00000  Uiso   1.00
C1118  C     0.21824   0.83032   0.56431   0.00000  Uiso   1.00
C1119  C     0.31880   0.84537   0.55929   0.00000  Uiso   1.00
C1120  C     0.06467   0.84869   0.90896   0.00000  Uiso   1.00
C1121  C     0.02276   0.98617   0.75421   0.00000  Uiso   1.00
C1122  C     0.03791   0.83620   0.85327   0.00000  Uiso   1.00
C1123  C     0.30933   0.68107   0.74736   0.00000  Uiso   1.00
C1124  C     0.31867   0.73544   0.75088   0.00000  Uiso   1.00
C1125  C     0.29662   0.83215   0.64673   0.00000  Uiso   1.00
C1126  C     0.30069   0.82804   0.50488   0.00000  Uiso   1.00
C1127  C     0.27771   0.83685   0.58997   0.00000  Uiso   1.00
C1128  C     0.04098   0.88893   0.93394   0.00000  Uiso   1.00
C1129  C     0.07073   0.91076   0.98397   0.00000  Uiso   1.00
C1130  C     0.12258   0.89073   0.51052   0.00000  Uiso   1.00
H1131  H     0.24380   0.78524   0.90452   0.00000  Uiso   1.00
H1132  H     0.33199   0.82057   0.98223   0.00000  Uiso   1.00
H1133  H     0.00050   0.90508   0.91394   0.00000  Uiso   1.00
H1134  H     0.14744   0.90869   0.54838   0.00000  Uiso   1.00
H1135  H     0.05363   0.94340   0.50165   0.00000  Uiso   1.00
H1136  H     0.13768   0.77813   0.86992   0.00000  Uiso   1.00
H1137  H     0.06746   0.67035   0.76515   0.00000  Uiso   1.00
N1138  N     0.14493   0.81890   0.73543   0.00000  Uiso   1.00
N1139  N     0.18840   0.84777   0.76458   0.00000  Uiso   1.00
O1140  O     0.29769   0.91296   0.75358   0.00000  Uiso   1.00
O1141  O     0.05742   0.90371   0.74424   0.00000  Uiso   1.00
O1142  O     0.31490   0.84024   0.83380   0.00000  Uiso   1.00
O1143  O     0.07463   0.83099   0.82446   0.00000  Uiso   1.00
O1144  O     0.27592   0.76296   0.75577   0.00000  Uiso   1.00
O1145  O     0.03565   0.75371   0.74643   0.00000  Uiso   1.00
O1146  O     0.25870   0.83567   0.67554   0.00000  Uiso   1.00
O1147  O     0.01843   0.82642   0.66620   0.00000  Uiso   1.00
Zn1148 Zn    0.27119   0.83951   0.75624   0.00000  Uiso   1.00
Zn1149 Zn    0.06214   0.82716   0.74377   0.00000  Uiso   1.00
O1150  O     0.04235   0.86680   0.58175   0.00000  Uiso   1.00
C1151  C     0.04049   0.91809   0.60520   0.00000  Uiso   1.00
H1152  H     0.02166   0.91711   0.64006   0.00000  Uiso   1.00
H1153  H     0.01263   0.94249   0.57612   0.00000  Uiso   1.00
C1154  C     0.10247   0.94533   0.62384   0.00000  Uiso   1.00
H1155  H     0.13550   0.91603   0.63552   0.00000  Uiso   1.00
H1156  H     0.11156   0.96674   0.59080   0.00000  Uiso   1.00
C1157  C     0.10985   0.98576   0.67056   0.00000  Uiso   1.00
H1158  H     0.07212   0.67741   0.66438   0.00000  Uiso   1.00
H1159  H     0.15057   0.67757   0.67504   0.00000  Uiso   1.00
H1160  H     0.11534   0.96588   0.70788   0.00000  Uiso   1.00
F1161  F     0.25280   0.99368   0.73325   0.00000  Uiso   1.00
F1162  F     0.15650   0.79278   0.69401   0.00000  Uiso   1.00
O1163  O     0.17627   0.86945   0.80858   0.00000  Uiso   1.00
C1164  C     0.20730   0.91849   0.82122   0.00000  Uiso   1.00
H1165  H     0.19565   0.94311   0.78668   0.00000  Uiso   1.00
H1166  H     0.25513   0.91442   0.83268   0.00000  Uiso   1.00
C1167  C     0.19024   0.94529   0.86858   0.00000  Uiso   1.00
H1168  H     0.14208   0.94910   0.85813   0.00000  Uiso   1.00
H1169  H     0.20161   0.92099   0.90339   0.00000  Uiso   1.00
C1170  C     0.22189   0.99938   0.88410   0.00000  Uiso   1.00
H1171  H     0.27014   0.99645   0.89545   0.00000  Uiso   1.00
H1172  H     0.20874   0.68412   0.91877   0.00000  Uiso   1.00
H1173  H     0.21007   0.69148   0.85029   0.00000  Uiso   1.00
O1174  O     0.17716   0.80825   0.58799   0.00000  Uiso   1.00
C1175  C     0.18117   0.75306   0.58644   0.00000  Uiso   1.00
H1176  H     0.16484   0.73801   0.61934   0.00000  Uiso   1.00
H1177  H     0.22714   0.74133   0.59374   0.00000  Uiso   1.00
C1178  C     0.14396   0.72494   0.53410   0.00000  Uiso   1.00
H1179  H     0.15841   0.73858   0.99947   0.00000  Uiso   1.00
H1180  H     0.15068   0.68257   0.53471   0.00000  Uiso   1.00
C1181  C     0.07897   0.73262   0.52644   0.00000  Uiso   1.00
H1182  H     0.06266   0.71511   0.55861   0.00000  Uiso   1.00
H1183  H     0.05360   0.71380   0.98727   0.00000  Uiso   1.00
H1184  H     0.07223   0.77485   0.52743   0.00000  Uiso   1.00
C1185  C     0.34801   0.93141   0.74986   0.00000  Uiso   1.00
C1186  C     0.48035   0.85139   0.98581   0.00000  Uiso   1.00
C1187  C     0.45448   0.83230   0.93334   0.00000  Uiso   1.00
C1188  C     0.53547   0.83695   0.51044   0.00000  Uiso   1.00
C1189  C     0.57390   0.82272   0.98012   0.00000  Uiso   1.00
C1190  C     0.54984   0.80232   0.92782   0.00000  Uiso   1.00
C1191  C     0.48881   0.80112   0.90710   0.00000  Uiso   1.00
C1192  C     0.55157   0.83032   0.56431   0.00000  Uiso   1.00
C1193  C     0.65214   0.84537   0.55929   0.00000  Uiso   1.00
C1194  C     0.39800   0.84869   0.90896   0.00000  Uiso   1.00
C1195  C     0.35610   0.98617   0.75421   0.00000  Uiso   1.00
C1196  C     0.37124   0.83620   0.85327   0.00000  Uiso   1.00
C1197  C     0.64266   0.68107   0.74736   0.00000  Uiso   1.00
C1198  C     0.65200   0.73544   0.75088   0.00000  Uiso   1.00
C1199  C     0.62995   0.83215   0.64673   0.00000  Uiso   1.00
C1200  C     0.63403   0.82804   0.50488   0.00000  Uiso   1.00
C1201  C     0.61104   0.83685   0.58997   0.00000  Uiso   1.00
C1202  C     0.37431   0.88893   0.93394   0.00000  Uiso   1.00
C1203  C     0.40407   0.91076   0.98397   0.00000  Uiso   1.00
C1204  C     0.45592   0.89073   0.51052   0.00000  Uiso   1.00
H1205  H     0.57713   0.78524   0.90452   0.00000  Uiso   1.00
H1206  H     0.66532   0.82057   0.98223   0.00000  Uiso   1.00
H1207  H     0.33383   0.90508   0.91394   0.00000  Uiso   1.00
H1208  H     0.48077   0.90869   0.54838   0.00000  Uiso   1.00
H1209  H     0.38696   0.94340   0.50165   0.00000  Uiso   1.00
H1210  H     0.47102   0.77813   0.86992   0.00000  Uiso   1.00
H1211  H     0.40079   0.67035   0.76515   0.00000  Uiso   1.00
N1212  N     0.47827   0.81890   0.73543   0.00000  Uiso   1.00
N1213  N     0.52173   0.84777   0.76458   0.00000  Uiso   1.00
O1214  O     0.63102   0.91296   0.75358   0.00000  Uiso   1.00
O1215  O     0.39075   0.90371   0.74424   0.00000  Uiso   1.00
O1216  O     0.64823   0.84024   0.83380   0.00000  Uiso   1.00
O1217  O     0.40796   0.83099   0.82446   0.00000  Uiso   1.00
O1218  O     0.60925   0.76296   0.75577   0.00000  Uiso   1.00
O1219  O     0.36898   0.75371   0.74643   0.00000  Uiso   1.00
O1220  O     0.59204   0.83567   0.67554   0.00000  Uiso   1.00
O1221  O     0.35177   0.82642   0.66620   0.00000  Uiso   1.00
Zn1222 Zn    0.60453   0.83951   0.75624   0.00000  Uiso   1.00
Zn1223 Zn    0.39547   0.82716   0.74377   0.00000  Uiso   1.00
O1224  O     0.37569   0.86680   0.58175   0.00000  Uiso   1.00
C1225  C     0.37383   0.91809   0.60520   0.00000  Uiso   1.00
H1226  H     0.35499   0.91711   0.64006   0.00000  Uiso   1.00
H1227  H     0.34596   0.94249   0.57612   0.00000  Uiso   1.00
C1228  C     0.43581   0.94533   0.62384   0.00000  Uiso   1.00
H1229  H     0.46883   0.91603   0.63552   0.00000  Uiso   1.00
H1230  H     0.44490   0.96674   0.59080   0.00000  Uiso   1.00
C1231  C     0.44318   0.98576   0.67056   0.00000  Uiso   1.00
H1232  H     0.40545   0.67741   0.66438   0.00000  Uiso   1.00
H1233  H     0.48390   0.67757   0.67504   0.00000  Uiso   1.00
H1234  H     0.44867   0.96588   0.70788   0.00000  Uiso   1.00
F1235  F     0.58613   0.99368   0.73325   0.00000  Uiso   1.00
F1236  F     0.48984   0.79278   0.69401   0.00000  Uiso   1.00
O1237  O     0.50960   0.86945   0.80858   0.00000  Uiso   1.00
C1238  C     0.54064   0.91849   0.82122   0.00000  Uiso   1.00
H1239  H     0.52899   0.94311   0.78668   0.00000  Uiso   1.00
H1240  H     0.58846   0.91442   0.83268   0.00000  Uiso   1.00
C1241  C     0.52357   0.94529   0.86858   0.00000  Uiso   1.00
H1242  H     0.47542   0.94910   0.85813   0.00000  Uiso   1.00
H1243  H     0.53494   0.92099   0.90339   0.00000  Uiso   1.00
C1244  C     0.55522   0.99938   0.88410   0.00000  Uiso   1.00
H1245  H     0.60347   0.99645   0.89545   0.00000  Uiso   1.00
H1246  H     0.54208   0.68412   0.91877   0.00000  Uiso   1.00
H1247  H     0.54341   0.69148   0.85029   0.00000  Uiso   1.00
O1248  O     0.51049   0.80825   0.58799   0.00000  Uiso   1.00
C1249  C     0.51451   0.75306   0.58644   0.00000  Uiso   1.00
H1250  H     0.49817   0.73801   0.61934   0.00000  Uiso   1.00
H1251  H     0.56048   0.74133   0.59374   0.00000  Uiso   1.00
C1252  C     0.47729   0.72494   0.53410   0.00000  Uiso   1.00
H1253  H     0.49175   0.73858   0.99947   0.00000  Uiso   1.00
H1254  H     0.48401   0.68257   0.53471   0.00000  Uiso   1.00
C1255  C     0.41230   0.73262   0.52644   0.00000  Uiso   1.00
H1256  H     0.39600   0.71511   0.55861   0.00000  Uiso   1.00
H1257  H     0.38693   0.71380   0.98727   0.00000  Uiso   1.00
H1258  H     0.40557   0.77485   0.52743   0.00000  Uiso   1.00
C1259  C     0.68135   0.93141   0.74986   0.00000  Uiso   1.00
C1260  C     0.81369   0.85139   0.98581   0.00000  Uiso   1.00
C1261  C     0.78781   0.83230   0.93334   0.00000  Uiso   1.00
C1262  C     0.86880   0.83695   0.51044   0.00000  Uiso   1.00
C1263  C     0.90723   0.82272   0.98012   0.00000  Uiso   1.00
C1264  C     0.88317   0.80232   0.92782   0.00000  Uiso   1.00
C1265  C     0.82214   0.80112   0.90710   0.00000  Uiso   1.00
C1266  C     0.88491   0.83032   0.56431   0.00000  Uiso   1.00
C1267  C     0.98547   0.84537   0.55929   0.00000  Uiso   1.00
C1268  C     0.73134   0.84869   0.90896   0.00000  Uiso   1.00
C1269  C     0.68943   0.98617   0.75421   0.00000  Uiso   1.00
C1270  C     0.70457   0.83620   0.85327   0.00000  Uiso   1.00
C1271  C     0.97600   0.68107   0.74736   0.00000  Uiso   1.00
C1272  C     0.98534   0.73544   0.75088   0.00000  Uiso   1.00
C1273  C     0.96328   0.83215   0.64673   0.00000  Uiso   1.00
C1274  C     0.96736   0.82804   0.50488   0.00000  Uiso   1.00
C1275  C     0.94437   0.83685   0.58997   0.00000  Uiso   1.00
C1276  C     0.70765   0.88893   0.93394   0.00000  Uiso   1.00
C1277  C     0.73740   0.91076   0.98397   0.00000  Uiso   1.00
C1278  C     0.78925   0.89073   0.51052   0.00000  Uiso   1.00
H1279  H     0.91047   0.78524   0.90452   0.00000  Uiso   1.00
H1280  H     0.99865   0.82057   0.98223   0.00000  Uiso   1.00
H1281  H     0.66717   0.90508   0.91394   0.00000  Uiso   1.00
H1282  H     0.81410   0.90869   0.54838   0.00000  Uiso   1.00
H1283  H     0.72029   0.94340   0.50165   0.00000  Uiso   1.00
H1284  H     0.80435   0.77813   0.86992   0.00000  Uiso   1.00
H1285  H     0.73413   0.67035   0.76515   0.00000  Uiso   1.00
N1286  N     0.81160   0.81890   0.73543   0.00000  Uiso   1.00
N1287  N     0.85507   0.84777   0.76458   0.00000  Uiso   1.00
O1288  O     0.96435   0.91296   0.75358   0.00000  Uiso   1.00
O1289  O     0.72408   0.90371   0.74424   0.00000  Uiso   1.00
O1290  O     0.98157   0.84024   0.83380   0.00000  Uiso   1.00
O1291  O     0.74130   0.83099   0.82446   0.00000  Uiso   1.00
O1292  O     0.94258   0.76296   0.75577   0.00000  Uiso   1.00
O1293  O     0.70231   0.75371   0.74643   0.00000  Uiso   1.00
O1294  O     0.92537   0.83567   0.67554   0.00000  Uiso   1.00
O1295  O     0.68510   0.82642   0.66620   0.00000  Uiso   1.00
Zn1296 Zn    0.93786   0.83951   0.75624   0.00000  Uiso   1.00
Zn1297 Zn    0.72881   0.82716   0.74377   0.00000  Uiso   1.00
O1298  O     0.70902   0.86680   0.58175   0.00000  Uiso   1.00
C1299  C     0.70716   0.91809   0.60520   0.00000  Uiso   1.00
H1300  H     0.68833   0.91711   0.64006   0.00000  Uiso   1.00
H1301  H     0.67930   0.94249   0.57612   0.00000  Uiso   1.00
C1302  C     0.76914   0.94533   0.62384   0.00000  Uiso   1.00
H1303  H     0.80216   0.91603   0.63552   0.00000  Uiso   1.00
H1304  H     0.77823   0.96674   0.59080   0.00000  Uiso   1.00
C1305  C     0.77652   0.98576   0.67056   0.00000  Uiso   1.00
H1306  H     0.73879   0.67741   0.66438   0.00000  Uiso   1.00
H1307  H     0.81723   0.67757   0.67504   0.00000  Uiso   1.00
H1308  H     0.78200   0.96588   0.70788   0.00000  Uiso   1.00
F1309  F     0.91947   0.99368   0.73325   0.00000  Uiso   1.00
F1310  F     0.82317   0.79278   0.69401   0.00000  Uiso   1.00
O1311  O     0.84294   0.86945   0.80858   0.00000  Uiso   1.00
C1312  C     0.87397   0.91849   0.82122   0.00000  Uiso   1.00
H1313  H     0.86232   0.94311   0.78668   0.00000  Uiso   1.00
H1314  H     0.92180   0.91442   0.83268   0.00000  Uiso   1.00
C1315  C     0.85690   0.94529   0.86858   0.00000  Uiso   1.00
H1316  H     0.80875   0.94910   0.85813   0.00000  Uiso   1.00
H1317  H     0.86827   0.92099   0.90339   0.00000  Uiso   1.00
C1318  C     0.88856   0.99938   0.88410   0.00000  Uiso   1.00
H1319  H     0.93681   0.99645   0.89545   0.00000  Uiso   1.00
H1320  H     0.87541   0.68412   0.91877   0.00000  Uiso   1.00
H1321  H     0.87674   0.69148   0.85029   0.00000  Uiso   1.00
O1322  O     0.84382   0.80825   0.58799   0.00000  Uiso   1.00
C1323  C     0.84784   0.75306   0.58644   0.00000  Uiso   1.00
H1324  H     0.83151   0.73801   0.61934   0.00000  Uiso   1.00
H1325  H     0.89381   0.74133   0.59374   0.00000  Uiso   1.00
C1326  C     0.81062   0.72494   0.53410   0.00000  Uiso   1.00
H1327  H     0.82508   0.73858   0.99947   0.00000  Uiso   1.00
H1328  H     0.81734   0.68257   0.53471   0.00000  Uiso   1.00
C1329  C     0.74563   0.73262   0.52644   0.00000  Uiso   1.00
H1330  H     0.72933   0.71511   0.55861   0.00000  Uiso   1.00
H1331  H     0.72027   0.71380   0.98727   0.00000  Uiso   1.00
H1332  H     0.73890   0.77485   0.52743   0.00000  Uiso   1.00
loop_
_geom_bond_atom_site_label_1
_geom_bond_atom_site_label_2
_geom_bond_distance
_geom_bond_site_symmetry_2
_ccdc_geom_bond_type
C1     C11     1.405   .     S
C1     O31     1.300   .     A
C1     O178    1.285   1_455 S
C2     C3      1.394   .     A
C2     C670    1.379   .     S
C2     C686    1.395   .     S
C3     C10     1.422   .     A
C3     C7      1.433   .     A
C4     C8      1.376   .     A
C4     C668    1.379   1_554 S
C4     C671    1.394   1_554 S
C5     C6      1.393   .     A
C5     C670    1.394   .     S
C5     C682    1.399   .     S
C6     C7      1.404   .     A
C6     H21     1.083   .     S
C7     H26     1.078   .     S
C8     C17     1.391   .     A
C8     O64     1.386   .     S
C9     C17     1.418   .     A
C9     C16     1.407   .     A
C9     O114    1.392   .     S
C10    C12     1.434   .     S
C10    C18     1.406   .     A
C11    C383    1.335   1_455 S
C11    H249    1.087   .     S
C12    O33     1.288   .     A
C12    O180    1.311   1_455 S
C13    C14     1.397   .     S
C13    C529    1.335   1_545 S
C13    F495    1.362   1_545 S
C14    O34     1.292   .     A
C14    O109    1.289   .     S
C15    O36     1.308   .     A
C15    C17     1.441   .     S
C15    O111    1.293   .     S
C16    C671    1.399   1_554 S
C16    H688    1.073   1_554 S
C18    H23     1.083   .     S
C18    C19     1.382   .     A
C19    C686    1.387   .     S
C19    H691    1.080   .     S
C20    H24     1.073   .     S
C20    C668    1.395   1_554 S
C20    C685    1.387   1_554 S
H22    C682    1.073   .     S
H25    C685    1.080   1_554 S
H27    C455    1.087   1_545 S
N28    F52     1.330   .     S
N28    N29     1.281   .     D
N28    Zn39    2.043   .     S
N29    Zn38    2.043   .     S
N29    O53     1.345   .     S
O30    Zn38    1.967   .     S
O30    C75     1.285   .     S
O31    Zn39    1.976   .     S
O32    Zn38    2.016   .     S
O32    C86     1.311   .     S
O33    Zn39    2.036   .     S
O34    Zn38    1.976   .     S
O35    Zn39    1.967   .     S
O35    C162    1.289   1_455 S
O36    Zn38    2.036   .     S
O37    Zn39    2.016   .     S
O37    C163    1.293   1_455 S
O40    C41     1.429   .     S
O40    C157    1.392   1_455 S
C41    H42     1.106   .     S
C41    H43     1.115   .     S
C41    C44     1.537   .     S
C44    C47     1.522   .     S
C44    H45     1.112   .     S
C44    H46     1.103   .     S
C47    H50     1.102   .     S
C47    H270    1.111   .     S
C47    H271    1.106   .     S
H48    C491    1.111   1_545 S
H49    C491    1.106   1_545 S
F51    C235    1.362   .     S
O53    C54     1.402   .     S
C54    H56     1.106   .     S
C54    H55     1.112   .     S
C54    C57     1.528   .     S
C57    H58     1.112   .     S
C57    H59     1.112   .     S
C57    C60     1.525   .     S
C60    H61     1.111   .     S
C60    H284    1.111   .     S
C60    H285    1.111   .     S
H62    C504    1.111   1_545 S
H63    C504    1.111   1_545 S
O64    C65     1.426   .     S
C65    C68     1.536   .     S
C65    H66     1.102   .     S
C65    H67     1.116   .     S
C68    C71     1.523   .     S
C68    H70     1.110   .     S
C68    H735    1.107   1_554 S
H69    C734    1.107   .     S
C71    H74     1.105   .     S
C71    H72     1.111   .     S
C71    H739    1.110   1_554 S
H73    C737    1.110   .     S
C75    C85     1.405   .     S
C75    O105    1.300   .     A
C76    C77     1.394   .     A
C76    C744    1.379   .     S
C76    C760    1.395   .     S
C77    C84     1.422   .     A
C77    C81     1.433   .     A
C78    C82     1.376   .     A
C78    C742    1.379   1_554 S
C78    C745    1.394   1_554 S
C79    C80     1.393   .     A
C79    C744    1.394   .     S
C79    C756    1.399   .     S
C80    C81     1.404   .     A
C80    H95     1.083   .     S
C81    H100    1.078   .     S
C82    C91     1.391   .     A
C82    O138    1.386   .     S
C83    C91     1.418   .     A
C83    C90     1.407   .     A
C83    O188    1.392   .     S
C84    C86     1.434   .     S
C84    C92     1.406   .     A
C85    C235    1.335   .     S
C85    H323    1.087   .     S
C86    O107    1.288   .     A
C87    C88     1.397   .     S
C87    C603    1.335   1_545 S
C87    F569    1.362   1_545 S
C88    O108    1.292   .     A
C88    O183    1.289   .     S
C89    O110    1.308   .     A
C89    C91     1.441   .     S
C89    O185    1.293   .     S
C90    C745    1.399   1_554 S
C90    H762    1.073   1_554 S
C92    H97     1.083   .     S
C92    C93     1.382   .     A
C93    C760    1.387   .     S
C93    H765    1.080   .     S
C94    H98     1.073   .     S
C94    C742    1.395   1_554 S
C94    C759    1.387   1_554 S
H96    C756    1.073   .     S
H99    C759    1.080   1_554 S
H101   C529    1.087   1_545 S
N102   F126    1.330   .     S
N102   N103    1.281   .     D
N102   Zn113   2.043   .     S
N103   Zn112   2.043   .     S
N103   O127    1.345   .     S
O104   Zn112   1.967   .     S
O104   C149    1.285   .     S
O105   Zn113   1.976   .     S
O106   Zn112   2.016   .     S
O106   C160    1.311   .     S
O107   Zn113   2.036   .     S
O108   Zn112   1.976   .     S
O109   Zn113   1.967   .     S
O110   Zn112   2.036   .     S
O111   Zn113   2.016   .     S
O114   C115    1.429   .     S
C115   H116    1.106   .     S
C115   H117    1.115   .     S
C115   C118    1.537   .     S
C118   C121    1.522   .     S
C118   H119    1.112   .     S
C118   H120    1.103   .     S
C121   H124    1.102   .     S
C121   H344    1.111   .     S
C121   H345    1.106   .     S
H122   C565    1.111   1_545 S
H123   C565    1.106   1_545 S
F125   C309    1.362   .     S
O127   C128    1.402   .     S
C128   H130    1.106   .     S
C128   H129    1.112   .     S
C128   C131    1.528   .     S
C131   H132    1.112   .     S
C131   H133    1.112   .     S
C131   C134    1.525   .     S
C134   H135    1.111   .     S
C134   H358    1.111   .     S
C134   H359    1.111   .     S
H136   C578    1.111   1_545 S
H137   C578    1.111   1_545 S
O138   C139    1.426   .     S
C139   C142    1.536   .     S
C139   H140    1.102   .     S
C139   H141    1.116   .     S
C142   C145    1.523   .     S
C142   H144    1.110   .     S
C142   H809    1.107   1_554 S
H143   C808    1.107   .     S
C145   H148    1.105   .     S
C145   H146    1.111   .     S
C145   H813    1.110   1_554 S
H147   C811    1.110   .     S
C149   C159    1.405   .     S
C149   O179    1.300   .     A
C150   C151    1.394   .     A
C150   C818    1.379   .     S
C150   C834    1.395   .     S
C151   C158    1.422   .     A
C151   C155    1.433   .     A
C152   C156    1.376   .     A
C152   C816    1.379   1_554 S
C152   C819    1.394   1_554 S
C153   C154    1.393   .     A
C153   C818    1.394   .     S
C153   C830    1.399   .     S
C154   C155    1.404   .     A
C154   H169    1.083   .     S
C155   H174    1.078   .     S
C156   C165    1.391   .     A
C156   O212    1.386   .     S
C157   C165    1.418   .     A
C157   C164    1.407   .     A
C157   O40     1.392   1_655 S
C158   C160    1.434   .     S
C158   C166    1.406   .     A
C159   C309    1.335   .     S
C159   H397    1.087   .     S
C160   O181    1.288   .     A
C161   C162    1.397   .     S
C161   C455    1.335   1_645 S
C161   F643    1.362   1_545 S
C162   O182    1.292   .     A
C162   O35     1.289   1_655 S
C163   O184    1.308   .     A
C163   C165    1.441   .     S
C163   O37     1.293   1_655 S
C164   C819    1.399   1_554 S
C164   H836    1.073   1_554 S
C166   H171    1.083   .     S
C166   C167    1.382   .     A
C167   C834    1.387   .     S
C167   H839    1.080   .     S
C168   H172    1.073   .     S
C168   C816    1.395   1_554 S
C168   C833    1.387   1_554 S
H170   C830    1.073   .     S
H173   C833    1.080   1_554 S
H175   C603    1.087   1_545 S
N176   F200    1.330   .     S
N176   N177    1.281   .     D
N176   Zn187   2.043   .     S
N177   Zn186   2.043   .     S
N177   O201    1.345   .     S
O178   Zn186   1.967   .     S
O178   C1      1.285   1_655 S
O179   Zn187   1.976   .     S
O180   Zn186   2.016   .     S
O180   C12     1.311   1_655 S
O181   Zn187   2.036   .     S
O182   Zn186   1.976   .     S
O183   Zn187   1.967   .     S
O184   Zn186   2.036   .     S
O185   Zn187   2.016   .     S
O188   C189    1.429   .     S
C189   H190    1.106   .     S
C189   H191    1.115   .     S
C189   C192    1.537   .     S
C192   C195    1.522   .     S
C192   H193    1.112   .     S
C192   H194    1.103   .     S
C195   H198    1.102   .     S
C195   H418    1.111   .     S
C195   H419    1.106   .     S
H196   C639    1.111   1_545 S
H197   C639    1.106   1_545 S
F199   C383    1.362   .     S
O201   C202    1.402   .     S
C202   H204    1.106   .     S
C202   H203    1.112   .     S
C202   C205    1.528   .     S
C205   H206    1.112   .     S
C205   H207    1.112   .     S
C205   C208    1.525   .     S
C208   H209    1.111   .     S
C208   H432    1.111   .     S
C208   H433    1.111   .     S
H210   C652    1.111   1_545 S
H211   C652    1.111   1_545 S
O212   C213    1.426   .     S
C213   C216    1.536   .     S
C213   H214    1.102   .     S
C213   H215    1.116   .     S
C216   C219    1.523   .     S
C216   H218    1.110   .     S
C216   H883    1.107   1_554 S
H217   C882    1.107   .     S
C219   H222    1.105   .     S
C219   H220    1.111   .     S
C219   H887    1.110   1_554 S
H221   C885    1.110   .     S
C223   C233    1.405   .     S
C223   O253    1.300   .     A
C223   O400    1.285   1_455 S
C224   C225    1.394   .     A
C224   C892    1.379   .     S
C224   C908    1.395   .     S
C225   C232    1.422   .     A
C225   C229    1.433   .     A
C226   C230    1.376   .     A
C226   C890    1.379   1_554 S
C226   C893    1.394   1_554 S
C227   C228    1.393   .     A
C227   C892    1.394   .     S
C227   C904    1.399   .     S
C228   C229    1.404   .     A
C228   H243    1.083   .     S
C229   H248    1.078   .     S
C230   C239    1.391   .     A
C230   O286    1.386   .     S
C231   C239    1.418   .     A
C231   C238    1.407   .     A
C231   O336    1.392   .     S
C232   C234    1.434   .     S
C232   C240    1.406   .     A
C233   C605    1.335   1_455 S
C233   H471    1.087   .     S
C234   O255    1.288   .     A
C234   O402    1.311   1_455 S
C235   C236    1.397   .     S
C236   O256    1.292   .     A
C236   O331    1.289   .     S
C237   O258    1.308   .     A
C237   C239    1.441   .     S
C237   O333    1.293   .     S
C238   C893    1.399   1_554 S
C238   H910    1.073   1_554 S
C240   H245    1.083   .     S
C240   C241    1.382   .     A
C241   C908    1.387   .     S
C241   H913    1.080   .     S
C242   H246    1.073   .     S
C242   C890    1.395   1_554 S
C242   C907    1.387   1_554 S
H244   C904    1.073   .     S
H247   C907    1.080   1_554 S
N250   F274    1.330   .     S
N250   N251    1.281   .     D
N250   Zn261   2.043   .     S
N251   Zn260   2.043   .     S
N251   O275    1.345   .     S
O252   Zn260   1.967   .     S
O252   C297    1.285   .     S
O253   Zn261   1.976   .     S
O254   Zn260   2.016   .     S
O254   C308    1.311   .     S
O255   Zn261   2.036   .     S
O256   Zn260   1.976   .     S
O257   Zn261   1.967   .     S
O257   C384    1.289   1_455 S
O258   Zn260   2.036   .     S
O259   Zn261   2.016   .     S
O259   C385    1.293   1_455 S
O262   C263    1.429   .     S
O262   C379    1.392   1_455 S
C263   H264    1.106   .     S
C263   H265    1.115   .     S
C263   C266    1.537   .     S
C266   C269    1.522   .     S
C266   H267    1.112   .     S
C266   H268    1.103   .     S
C269   H272    1.102   .     S
C269   H492    1.111   .     S
C269   H493    1.106   .     S
F273   C457    1.362   .     S
O275   C276    1.402   .     S
C276   H278    1.106   .     S
C276   H277    1.112   .     S
C276   C279    1.528   .     S
C279   H280    1.112   .     S
C279   H281    1.112   .     S
C279   C282    1.525   .     S
C282   H283    1.111   .     S
C282   H506    1.111   .     S
C282   H507    1.111   .     S
O286   C287    1.426   .     S
C287   C290    1.536   .     S
C287   H288    1.102   .     S
C287   H289    1.116   .     S
C290   C293    1.523   .     S
C290   H292    1.110   .     S
C290   H957    1.107   1_554 S
H291   C956    1.107   .     S
C293   H296    1.105   .     S
C293   H294    1.111   .     S
C293   H961    1.110   1_554 S
H295   C959    1.110   .     S
C297   C307    1.405   .     S
C297   O327    1.300   .     A
C298   C299    1.394   .     A
C298   C966    1.379   .     S
C298   C982    1.395   .     S
C299   C306    1.422   .     A
C299   C303    1.433   .     A
C300   C304    1.376   .     A
C300   C964    1.379   1_554 S
C300   C967    1.394   1_554 S
C301   C302    1.393   .     A
C301   C966    1.394   .     S
C301   C978    1.399   .     S
C302   C303    1.404   .     A
C302   H317    1.083   .     S
C303   H322    1.078   .     S
C304   C313    1.391   .     A
C304   O360    1.386   .     S
C305   C313    1.418   .     A
C305   C312    1.407   .     A
C305   O410    1.392   .     S
C306   C308    1.434   .     S
C306   C314    1.406   .     A
C307   C457    1.335   .     S
C307   H545    1.087   .     S
C308   O329    1.288   .     A
C309   C310    1.397   .     S
C310   O330    1.292   .     A
C310   O405    1.289   .     S
C311   O332    1.308   .     A
C311   C313    1.441   .     S
C311   O407    1.293   .     S
C312   C967    1.399   1_554 S
C312   H984    1.073   1_554 S
C314   H319    1.083   .     S
C314   C315    1.382   .     A
C315   C982    1.387   .     S
C315   H987    1.080   .     S
C316   H320    1.073   .     S
C316   C964    1.395   1_554 S
C316   C981    1.387   1_554 S
H318   C978    1.073   .     S
H321   C981    1.080   1_554 S
N324   F348    1.330   .     S
N324   N325    1.281   .     D
N324   Zn335   2.043   .     S
N325   Zn334   2.043   .     S
N325   O349    1.345   .     S
O326   Zn334   1.967   .     S
O326   C371    1.285   .     S
O327   Zn335   1.976   .     S
O328   Zn334   2.016   .     S
O328   C382    1.311   .     S
O329   Zn335   2.036   .     S
O330   Zn334   1.976   .     S
O331   Zn335   1.967   .     S
O332   Zn334   2.036   .     S
O333   Zn335   2.016   .     S
O336   C337    1.429   .     S
C337   H338    1.106   .     S
C337   H339    1.115   .     S
C337   C340    1.537   .     S
C340   C343    1.522   .     S
C340   H341    1.112   .     S
C340   H342    1.103   .     S
C343   H346    1.102   .     S
C343   H566    1.111   .     S
C343   H567    1.106   .     S
F347   C531    1.362   .     S
O349   C350    1.402   .     S
C350   H352    1.106   .     S
C350   H351    1.112   .     S
C350   C353    1.528   .     S
C353   H354    1.112   .     S
C353   H355    1.112   .     S
C353   C356    1.525   .     S
C356   H357    1.111   .     S
C356   H580    1.111   .     S
C356   H581    1.111   .     S
O360   C361    1.426   .     S
C361   C364    1.536   .     S
C361   H362    1.102   .     S
C361   H363    1.116   .     S
C364   C367    1.523   .     S
C364   H366    1.110   .     S
C364   H1031   1.107   1_554 S
H365   C1030   1.107   .     S
C367   H370    1.105   .     S
C367   H368    1.111   .     S
C367   H1035   1.110   1_554 S
H369   C1033   1.110   .     S
C371   C381    1.405   .     S
C371   O401    1.300   .     A
C372   C373    1.394   .     A
C372   C1040   1.379   .     S
C372   C1056   1.395   .     S
C373   C380    1.422   .     A
C373   C377    1.433   .     A
C374   C378    1.376   .     A
C374   C1038   1.379   1_554 S
C374   C1041   1.394   1_554 S
C375   C376    1.393   .     A
C375   C1040   1.394   .     S
C375   C1052   1.399   .     S
C376   C377    1.404   .     A
C376   H391    1.083   .     S
C377   H396    1.078   .     S
C378   C387    1.391   .     A
C378   O434    1.386   .     S
C379   C387    1.418   .     A
C379   C386    1.407   .     A
C379   O262    1.392   1_655 S
C380   C382    1.434   .     S
C380   C388    1.406   .     A
C381   C531    1.335   .     S
C381   H619    1.087   .     S
C382   O403    1.288   .     A
C383   C384    1.397   .     S
C383   C11     1.335   1_655 S
C384   O404    1.292   .     A
C384   O257    1.289   1_655 S
C385   O406    1.308   .     A
C385   C387    1.441   .     S
C385   O259    1.293   1_655 S
C386   C1041   1.399   1_554 S
C386   H1058   1.073   1_554 S
C388   H393    1.083   .     S
C388   C389    1.382   .     A
C389   C1056   1.387   .     S
C389   H1061   1.080   .     S
C390   H394    1.073   .     S
C390   C1038   1.395   1_554 S
C390   C1055   1.387   1_554 S
H392   C1052   1.073   .     S
H395   C1055   1.080   1_554 S
N398   F422    1.330   .     S
N398   N399    1.281   .     D
N398   Zn409   2.043   .     S
N399   Zn408   2.043   .     S
N399   O423    1.345   .     S
O400   Zn408   1.967   .     S
O400   C223    1.285   1_655 S
O401   Zn409   1.976   .     S
O402   Zn408   2.016   .     S
O402   C234    1.311   1_655 S
O403   Zn409   2.036   .     S
O404   Zn408   1.976   .     S
O405   Zn409   1.967   .     S
O406   Zn408   2.036   .     S
O407   Zn409   2.016   .     S
O410   C411    1.429   .     S
C411   H412    1.106   .     S
C411   H413    1.115   .     S
C411   C414    1.537   .     S
C414   C417    1.522   .     S
C414   H415    1.112   .     S
C414   H416    1.103   .     S
C417   H420    1.102   .     S
C417   H640    1.111   .     S
C417   H641    1.106   .     S
F421   C605    1.362   .     S
O423   C424    1.402   .     S
C424   H426    1.106   .     S
C424   H425    1.112   .     S
C424   C427    1.528   .     S
C427   H428    1.112   .     S
C427   H429    1.112   .     S
C427   C430    1.525   .     S
C430   H431    1.111   .     S
C430   H654    1.111   .     S
C430   H655    1.111   .     S
O434   C435    1.426   .     S
C435   C438    1.536   .     S
C435   H436    1.102   .     S
C435   H437    1.116   .     S
C438   C441    1.523   .     S
C438   H440    1.110   .     S
C438   H1105   1.107   1_554 S
H439   C1104   1.107   .     S
C441   H444    1.105   .     S
C441   H442    1.111   .     S
C441   H1109   1.110   1_554 S
H443   C1107   1.110   .     S
C445   C455    1.405   .     S
C445   O475    1.300   .     A
C445   O622    1.285   1_455 S
C446   C447    1.394   .     A
C446   C1114   1.379   .     S
C446   C1130   1.395   .     S
C447   C454    1.422   .     A
C447   C451    1.433   .     A
C448   C452    1.376   .     A
C448   C1112   1.379   1_554 S
C448   C1115   1.394   1_554 S
C449   C450    1.393   .     A
C449   C1114   1.394   .     S
C449   C1126   1.399   .     S
C450   C451    1.404   .     A
C450   H465    1.083   .     S
C451   H470    1.078   .     S
C452   C461    1.391   .     A
C452   O508    1.386   .     S
C453   C461    1.418   .     A
C453   C460    1.407   .     A
C453   O558    1.392   .     S
C454   C456    1.434   .     S
C454   C462    1.406   .     A
C455   C161    1.335   1_465 S
C455   H27     1.087   1_565 S
C456   O477    1.288   .     A
C456   O624    1.311   1_455 S
C457   C458    1.397   .     S
C458   O478    1.292   .     A
C458   O553    1.289   .     S
C459   O480    1.308   .     A
C459   C461    1.441   .     S
C459   O555    1.293   .     S
C460   C1115   1.399   1_554 S
C460   H1132   1.073   1_554 S
C462   H467    1.083   .     S
C462   C463    1.382   .     A
C463   C1130   1.387   .     S
C463   H1135   1.080   .     S
C464   H468    1.073   .     S
C464   C1112   1.395   1_554 S
C464   C1129   1.387   1_554 S
H466   C1126   1.073   .     S
H469   C1129   1.080   1_554 S
N472   F496    1.330   .     S
N472   N473    1.281   .     D
N472   Zn483   2.043   .     S
N473   Zn482   2.043   .     S
N473   O497    1.345   .     S
O474   Zn482   1.967   .     S
O474   C519    1.285   .     S
O475   Zn483   1.976   .     S
O476   Zn482   2.016   .     S
O476   C530    1.311   .     S
O477   Zn483   2.036   .     S
O478   Zn482   1.976   .     S
O479   Zn483   1.967   .     S
O479   C606    1.289   1_455 S
O480   Zn482   2.036   .     S
O481   Zn483   2.016   .     S
O481   C607    1.293   1_455 S
O484   C485    1.429   .     S
O484   C601    1.392   1_455 S
C485   H486    1.106   .     S
C485   H487    1.115   .     S
C485   C488    1.537   .     S
C488   C491    1.522   .     S
C488   H489    1.112   .     S
C488   H490    1.103   .     S
C491   H494    1.102   .     S
C491   H48     1.111   1_565 S
C491   H49     1.106   1_565 S
F495   C13     1.362   1_565 S
O497   C498    1.402   .     S
C498   H500    1.106   .     S
C498   H499    1.112   .     S
C498   C501    1.528   .     S
C501   H502    1.112   .     S
C501   H503    1.112   .     S
C501   C504    1.525   .     S
C504   H505    1.111   .     S
C504   H62     1.111   1_565 S
C504   H63     1.111   1_565 S
O508   C509    1.426   .     S
C509   C512    1.536   .     S
C509   H510    1.102   .     S
C509   H511    1.116   .     S
C512   C515    1.523   .     S
C512   H514    1.110   .     S
C512   H1179   1.107   1_554 S
H513   C1178   1.107   .     S
C515   H518    1.105   .     S
C515   H516    1.111   .     S
C515   H1183   1.110   1_554 S
H517   C1181   1.110   .     S
C519   C529    1.405   .     S
C519   O549    1.300   .     A
C520   C521    1.394   .     A
C520   C1188   1.379   .     S
C520   C1204   1.395   .     S
C521   C528    1.422   .     A
C521   C525    1.433   .     A
C522   C526    1.376   .     A
C522   C1186   1.379   1_554 S
C522   C1189   1.394   1_554 S
C523   C524    1.393   .     A
C523   C1188   1.394   .     S
C523   C1200   1.399   .     S
C524   C525    1.404   .     A
C524   H539    1.083   .     S
C525   H544    1.078   .     S
C526   C535    1.391   .     A
C526   O582    1.386   .     S
C527   C535    1.418   .     A
C527   C534    1.407   .     A
C527   O632    1.392   .     S
C528   C530    1.434   .     S
C528   C536    1.406   .     A
C529   C13     1.335   1_565 S
C529   H101    1.087   1_565 S
C530   O551    1.288   .     A
C531   C532    1.397   .     S
C532   O552    1.292   .     A
C532   O627    1.289   .     S
C533   O554    1.308   .     A
C533   C535    1.441   .     S
C533   O629    1.293   .     S
C534   C1189   1.399   1_554 S
C534   H1206   1.073   1_554 S
C536   H541    1.083   .     S
C536   C537    1.382   .     A
C537   C1204   1.387   .     S
C537   H1209   1.080   .     S
C538   H542    1.073   .     S
C538   C1186   1.395   1_554 S
C538   C1203   1.387   1_554 S
H540   C1200   1.073   .     S
H543   C1203   1.080   1_554 S
N546   F570    1.330   .     S
N546   N547    1.281   .     D
N546   Zn557   2.043   .     S
N547   Zn556   2.043   .     S
N547   O571    1.345   .     S
O548   Zn556   1.967   .     S
O548   C593    1.285   .     S
O549   Zn557   1.976   .     S
O550   Zn556   2.016   .     S
O550   C604    1.311   .     S
O551   Zn557   2.036   .     S
O552   Zn556   1.976   .     S
O553   Zn557   1.967   .     S
O554   Zn556   2.036   .     S
O555   Zn557   2.016   .     S
O558   C559    1.429   .     S
C559   H560    1.106   .     S
C559   H561    1.115   .     S
C559   C562    1.537   .     S
C562   C565    1.522   .     S
C562   H563    1.112   .     S
C562   H564    1.103   .     S
C565   H568    1.102   .     S
C565   H122    1.111   1_565 S
C565   H123    1.106   1_565 S
F569   C87     1.362   1_565 S
O571   C572    1.402   .     S
C572   H574    1.106   .     S
C572   H573    1.112   .     S
C572   C575    1.528   .     S
C575   H576    1.112   .     S
C575   H577    1.112   .     S
C575   C578    1.525   .     S
C578   H579    1.111   .     S
C578   H136    1.111   1_565 S
C578   H137    1.111   1_565 S
O582   C583    1.426   .     S
C583   C586    1.536   .     S
C583   H584    1.102   .     S
C583   H585    1.116   .     S
C586   C589    1.523   .     S
C586   H588    1.110   .     S
C586   H1253   1.107   1_554 S
H587   C1252   1.107   .     S
C589   H592    1.105   .     S
C589   H590    1.111   .     S
C589   H1257   1.110   1_554 S
H591   C1255   1.110   .     S
C593   C603    1.405   .     S
C593   O623    1.300   .     A
C594   C595    1.394   .     A
C594   C1262   1.379   .     S
C594   C1278   1.395   .     S
C595   C602    1.422   .     A
C595   C599    1.433   .     A
C596   C600    1.376   .     A
C596   C1260   1.379   1_554 S
C596   C1263   1.394   1_554 S
C597   C598    1.393   .     A
C597   C1262   1.394   .     S
C597   C1274   1.399   .     S
C598   C599    1.404   .     A
C598   H613    1.083   .     S
C599   H618    1.078   .     S
C600   C609    1.391   .     A
C600   O656    1.386   .     S
C601   C609    1.418   .     A
C601   C608    1.407   .     A
C601   O484    1.392   1_655 S
C602   C604    1.434   .     S
C602   C610    1.406   .     A
C603   C87     1.335   1_565 S
C603   H175    1.087   1_565 S
C604   O625    1.288   .     A
C605   C606    1.397   .     S
C605   C233    1.335   1_655 S
C606   O626    1.292   .     A
C606   O479    1.289   1_655 S
C607   O628    1.308   .     A
C607   C609    1.441   .     S
C607   O481    1.293   1_655 S
C608   C1263   1.399   1_554 S
C608   H1280   1.073   1_554 S
C610   H615    1.083   .     S
C610   C611    1.382   .     A
C611   C1278   1.387   .     S
C611   H1283   1.080   .     S
C612   H616    1.073   .     S
C612   C1260   1.395   1_554 S
C612   C1277   1.387   1_554 S
H614   C1274   1.073   .     S
H617   C1277   1.080   1_554 S
N620   F644    1.330   .     S
N620   N621    1.281   .     D
N620   Zn631   2.043   .     S
N621   Zn630   2.043   .     S
N621   O645    1.345   .     S
O622   Zn630   1.967   .     S
O622   C445    1.285   1_655 S
O623   Zn631   1.976   .     S
O624   Zn630   2.016   .     S
O624   C456    1.311   1_655 S
O625   Zn631   2.036   .     S
O626   Zn630   1.976   .     S
O627   Zn631   1.967   .     S
O628   Zn630   2.036   .     S
O629   Zn631   2.016   .     S
O632   C633    1.429   .     S
C633   H634    1.106   .     S
C633   H635    1.115   .     S
C633   C636    1.537   .     S
C636   C639    1.522   .     S
C636   H637    1.112   .     S
C636   H638    1.103   .     S
C639   H642    1.102   .     S
C639   H196    1.111   1_565 S
C639   H197    1.106   1_565 S
F643   C161    1.362   1_565 S
O645   C646    1.402   .     S
C646   H648    1.106   .     S
C646   H647    1.112   .     S
C646   C649    1.528   .     S
C649   H650    1.112   .     S
C649   H651    1.112   .     S
C649   C652    1.525   .     S
C652   H653    1.111   .     S
C652   H210    1.111   1_565 S
C652   H211    1.111   1_565 S
O656   C657    1.426   .     S
C657   C660    1.536   .     S
C657   H658    1.102   .     S
C657   H659    1.116   .     S
C660   C663    1.523   .     S
C660   H662    1.110   .     S
C660   H1327   1.107   1_554 S
H661   C1326   1.107   .     S
C663   H666    1.105   .     S
C663   H664    1.111   .     S
C663   H1331   1.110   1_554 S
H665   C1329   1.110   .     S
C667   C677    1.405   .     S
C667   O697    1.300   .     A
C667   O844    1.285   1_455 S
C668   C669    1.394   .     A
C668   C4      1.379   1_556 S
C668   C20     1.395   1_556 S
C669   C676    1.422   .     A
C669   C673    1.433   .     A
C670   C674    1.376   .     A
C671   C672    1.393   .     A
C671   C4      1.394   1_556 S
C671   C16     1.399   1_556 S
C672   C673    1.404   .     A
C672   H687    1.083   .     S
C673   H692    1.078   .     S
C674   C683    1.391   .     A
C674   O730    1.386   .     S
C675   C683    1.418   .     A
C675   C682    1.407   .     A
C675   O780    1.392   .     S
C676   C678    1.434   .     S
C676   C684    1.406   .     A
C677   C1049   1.335   1_455 S
C677   H915    1.087   .     S
C678   O699    1.288   .     A
C678   O846    1.311   1_455 S
C679   C680    1.397   .     S
C679   C1195   1.335   1_545 S
C679   F1161   1.362   1_545 S
C680   O700    1.292   .     A
C680   O775    1.289   .     S
C681   O702    1.308   .     A
C681   C683    1.441   .     S
C681   O777    1.293   .     S
C684   H689    1.083   .     S
C684   C685    1.382   .     A
C685   C20     1.387   1_556 S
C685   H25     1.080   1_556 S
C686   H690    1.073   .     S
H688   C16     1.073   1_556 S
H693   C1121   1.087   1_545 S
N694   F718    1.330   .     S
N694   N695    1.281   .     D
N694   Zn705   2.043   .     S
N695   Zn704   2.043   .     S
N695   O719    1.345   .     S
O696   Zn704   1.967   .     S
O696   C741    1.285   .     S
O697   Zn705   1.976   .     S
O698   Zn704   2.016   .     S
O698   C752    1.311   .     S
O699   Zn705   2.036   .     S
O700   Zn704   1.976   .     S
O701   Zn705   1.967   .     S
O701   C828    1.289   1_455 S
O702   Zn704   2.036   .     S
O703   Zn705   2.016   .     S
O703   C829    1.293   1_455 S
O706   C707    1.429   .     S
O706   C823    1.392   1_455 S
C707   H708    1.106   .     S
C707   H709    1.115   .     S
C707   C710    1.537   .     S
C710   C713    1.522   .     S
C710   H711    1.112   .     S
C710   H712    1.103   .     S
C713   H716    1.102   .     S
C713   H936    1.111   .     S
C713   H937    1.106   .     S
H714   C1157   1.111   1_545 S
H715   C1157   1.106   1_545 S
F717   C901    1.362   .     S
O719   C720    1.402   .     S
C720   H722    1.106   .     S
C720   H721    1.112   .     S
C720   C723    1.528   .     S
C723   H724    1.112   .     S
C723   H725    1.112   .     S
C723   C726    1.525   .     S
C726   H727    1.111   .     S
C726   H950    1.111   .     S
C726   H951    1.111   .     S
H728   C1170   1.111   1_545 S
H729   C1170   1.111   1_545 S
O730   C731    1.426   .     S
C731   C734    1.536   .     S
C731   H732    1.102   .     S
C731   H733    1.116   .     S
C734   C737    1.523   .     S
C734   H736    1.110   .     S
H735   C68     1.107   1_556 S
C737   H740    1.105   .     S
C737   H738    1.111   .     S
H739   C71     1.110   1_556 S
C741   C751    1.405   .     S
C741   O771    1.300   .     A
C742   C743    1.394   .     A
C742   C78     1.379   1_556 S
C742   C94     1.395   1_556 S
C743   C750    1.422   .     A
C743   C747    1.433   .     A
C744   C748    1.376   .     A
C745   C746    1.393   .     A
C745   C78     1.394   1_556 S
C745   C90     1.399   1_556 S
C746   C747    1.404   .     A
C746   H761    1.083   .     S
C747   H766    1.078   .     S
C748   C757    1.391   .     A
C748   O804    1.386   .     S
C749   C757    1.418   .     A
C749   C756    1.407   .     A
C749   O854    1.392   .     S
C750   C752    1.434   .     S
C750   C758    1.406   .     A
C751   C901    1.335   .     S
C751   H989    1.087   .     S
C752   O773    1.288   .     A
C753   C754    1.397   .     S
C753   C1269   1.335   1_545 S
C753   F1235   1.362   1_545 S
C754   O774    1.292   .     A
C754   O849    1.289   .     S
C755   O776    1.308   .     A
C755   C757    1.441   .     S
C755   O851    1.293   .     S
C758   H763    1.083   .     S
C758   C759    1.382   .     A
C759   C94     1.387   1_556 S
C759   H99     1.080   1_556 S
C760   H764    1.073   .     S
H762   C90     1.073   1_556 S
H767   C1195   1.087   1_545 S
N768   F792    1.330   .     S
N768   N769    1.281   .     D
N768   Zn779   2.043   .     S
N769   Zn778   2.043   .     S
N769   O793    1.345   .     S
O770   Zn778   1.967   .     S
O770   C815    1.285   .     S
O771   Zn779   1.976   .     S
O772   Zn778   2.016   .     S
O772   C826    1.311   .     S
O773   Zn779   2.036   .     S
O774   Zn778   1.976   .     S
O775   Zn779   1.967   .     S
O776   Zn778   2.036   .     S
O777   Zn779   2.016   .     S
O780   C781    1.429   .     S
C781   H782    1.106   .     S
C781   H783    1.115   .     S
C781   C784    1.537   .     S
C784   C787    1.522   .     S
C784   H785    1.112   .     S
C784   H786    1.103   .     S
C787   H790    1.102   .     S
C787   H1010   1.111   .     S
C787   H1011   1.106   .     S
H788   C1231   1.111   1_545 S
H789   C1231   1.106   1_545 S
F791   C975    1.362   .     S
O793   C794    1.402   .     S
C794   H796    1.106   .     S
C794   H795    1.112   .     S
C794   C797    1.528   .     S
C797   H798    1.112   .     S
C797   H799    1.112   .     S
C797   C800    1.525   .     S
C800   H801    1.111   .     S
C800   H1024   1.111   .     S
C800   H1025   1.111   .     S
H802   C1244   1.111   1_545 S
H803   C1244   1.111   1_545 S
O804   C805    1.426   .     S
C805   C808    1.536   .     S
C805   H806    1.102   .     S
C805   H807    1.116   .     S
C808   C811    1.523   .     S
C808   H810    1.110   .     S
H809   C142    1.107   1_556 S
C811   H814    1.105   .     S
C811   H812    1.111   .     S
H813   C145    1.110   1_556 S
C815   C825    1.405   .     S
C815   O845    1.300   .     A
C816   C817    1.394   .     A
C816   C152    1.379   1_556 S
C816   C168    1.395   1_556 S
C817   C824    1.422   .     A
C817   C821    1.433   .     A
C818   C822    1.376   .     A
C819   C820    1.393   .     A
C819   C152    1.394   1_556 S
C819   C164    1.399   1_556 S
C820   C821    1.404   .     A
C820   H835    1.083   .     S
C821   H840    1.078   .     S
C822   C831    1.391   .     A
C822   O878    1.386   .     S
C823   C831    1.418   .     A
C823   C830    1.407   .     A
C823   O706    1.392   1_655 S
C824   C826    1.434   .     S
C824   C832    1.406   .     A
C825   C975    1.335   .     S
C825   H1063   1.087   .     S
C826   O847    1.288   .     A
C827   C828    1.397   .     S
C827   C1121   1.335   1_645 S
C827   F1309   1.362   1_545 S
C828   O848    1.292   .     A
C828   O701    1.289   1_655 S
C829   O850    1.308   .     A
C829   C831    1.441   .     S
C829   O703    1.293   1_655 S
C832   H837    1.083   .     S
C832   C833    1.382   .     A
C833   C168    1.387   1_556 S
C833   H173    1.080   1_556 S
C834   H838    1.073   .     S
H836   C164    1.073   1_556 S
H841   C1269   1.087   1_545 S
N842   F866    1.330   .     S
N842   N843    1.281   .     D
N842   Zn853   2.043   .     S
N843   Zn852   2.043   .     S
N843   O867    1.345   .     S
O844   Zn852   1.967   .     S
O844   C667    1.285   1_655 S
O845   Zn853   1.976   .     S
O846   Zn852   2.016   .     S
O846   C678    1.311   1_655 S
O847   Zn853   2.036   .     S
O848   Zn852   1.976   .     S
O849   Zn853   1.967   .     S
O850   Zn852   2.036   .     S
O851   Zn853   2.016   .     S
O854   C855    1.429   .     S
C855   H856    1.106   .     S
C855   H857    1.115   .     S
C855   C858    1.537   .     S
C858   C861    1.522   .     S
C858   H859    1.112   .     S
C858   H860    1.103   .     S
C861   H864    1.102   .     S
C861   H1084   1.111   .     S
C861   H1085   1.106   .     S
H862   C1305   1.111   1_545 S
H863   C1305   1.106   1_545 S
F865   C1049   1.362   .     S
O867   C868    1.402   .     S
C868   H870    1.106   .     S
C868   H869    1.112   .     S
C868   C871    1.528   .     S
C871   H872    1.112   .     S
C871   H873    1.112   .     S
C871   C874    1.525   .     S
C874   H875    1.111   .     S
C874   H1098   1.111   .     S
C874   H1099   1.111   .     S
H876   C1318   1.111   1_545 S
H877   C1318   1.111   1_545 S
O878   C879    1.426   .     S
C879   C882    1.536   .     S
C879   H880    1.102   .     S
C879   H881    1.116   .     S
C882   C885    1.523   .     S
C882   H884    1.110   .     S
H883   C216    1.107   1_556 S
C885   H888    1.105   .     S
C885   H886    1.111   .     S
H887   C219    1.110   1_556 S
C889   C899    1.405   .     S
C889   O919    1.300   .     A
C889   O1066   1.285   1_455 S
C890   C891    1.394   .     A
C890   C226    1.379   1_556 S
C890   C242    1.395   1_556 S
C891   C898    1.422   .     A
C891   C895    1.433   .     A
C892   C896    1.376   .     A
C893   C894    1.393   .     A
C893   C226    1.394   1_556 S
C893   C238    1.399   1_556 S
C894   C895    1.404   .     A
C894   H909    1.083   .     S
C895   H914    1.078   .     S
C896   C905    1.391   .     A
C896   O952    1.386   .     S
C897   C905    1.418   .     A
C897   C904    1.407   .     A
C897   O1002   1.392   .     S
C898   C900    1.434   .     S
C898   C906    1.406   .     A
C899   C1271   1.335   1_455 S
C899   H1137   1.087   .     S
C900   O921    1.288   .     A
C900   O1068   1.311   1_455 S
C901   C902    1.397   .     S
C902   O922    1.292   .     A
C902   O997    1.289   .     S
C903   O924    1.308   .     A
C903   C905    1.441   .     S
C903   O999    1.293   .     S
C906   H911    1.083   .     S
C906   C907    1.382   .     A
C907   C242    1.387   1_556 S
C907   H247    1.080   1_556 S
C908   H912    1.073   .     S
H910   C238    1.073   1_556 S
N916   F940    1.330   .     S
N916   N917    1.281   .     D
N916   Zn927   2.043   .     S
N917   Zn926   2.043   .     S
N917   O941    1.345   .     S
O918   Zn926   1.967   .     S
O918   C963    1.285   .     S
O919   Zn927   1.976   .     S
O920   Zn926   2.016   .     S
O920   C974    1.311   .     S
O921   Zn927   2.036   .     S
O922   Zn926   1.976   .     S
O923   Zn927   1.967   .     S
O923   C1050   1.289   1_455 S
O924   Zn926   2.036   .     S
O925   Zn927   2.016   .     S
O925   C1051   1.293   1_455 S
O928   C929    1.429   .     S
O928   C1045   1.392   1_455 S
C929   H930    1.106   .     S
C929   H931    1.115   .     S
C929   C932    1.537   .     S
C932   C935    1.522   .     S
C932   H933    1.112   .     S
C932   H934    1.103   .     S
C935   H938    1.102   .     S
C935   H1158   1.111   .     S
C935   H1159   1.106   .     S
F939   C1123   1.362   .     S
O941   C942    1.402   .     S
C942   H944    1.106   .     S
C942   H943    1.112   .     S
C942   C945    1.528   .     S
C945   H946    1.112   .     S
C945   H947    1.112   .     S
C945   C948    1.525   .     S
C948   H949    1.111   .     S
C948   H1172   1.111   .     S
C948   H1173   1.111   .     S
O952   C953    1.426   .     S
C953   C956    1.536   .     S
C953   H954    1.102   .     S
C953   H955    1.116   .     S
C956   C959    1.523   .     S
C956   H958    1.110   .     S
H957   C290    1.107   1_556 S
C959   H962    1.105   .     S
C959   H960    1.111   .     S
H961   C293    1.110   1_556 S
C963   C973    1.405   .     S
C963   O993    1.300   .     A
C964   C965    1.394   .     A
C964   C300    1.379   1_556 S
C964   C316    1.395   1_556 S
C965   C972    1.422   .     A
C965   C969    1.433   .     A
C966   C970    1.376   .     A
C967   C968    1.393   .     A
C967   C300    1.394   1_556 S
C967   C312    1.399   1_556 S
C968   C969    1.404   .     A
C968   H983    1.083   .     S
C969   H988    1.078   .     S
C970   C979    1.391   .     A
C970   O1026   1.386   .     S
C971   C979    1.418   .     A
C971   C978    1.407   .     A
C971   O1076   1.392   .     S
C972   C974    1.434   .     S
C972   C980    1.406   .     A
C973   C1123   1.335   .     S
C973   H1211   1.087   .     S
C974   O995    1.288   .     A
C975   C976    1.397   .     S
C976   O996    1.292   .     A
C976   O1071   1.289   .     S
C977   O998    1.308   .     A
C977   C979    1.441   .     S
C977   O1073   1.293   .     S
C980   H985    1.083   .     S
C980   C981    1.382   .     A
C981   C316    1.387   1_556 S
C981   H321    1.080   1_556 S
C982   H986    1.073   .     S
H984   C312    1.073   1_556 S
N990   F1014   1.330   .     S
N990   N991    1.281   .     D
N990   Zn1001  2.043   .     S
N991   Zn1000  2.043   .     S
N991   O1015   1.345   .     S
O992   Zn1000  1.967   .     S
O992   C1037   1.285   .     S
O993   Zn1001  1.976   .     S
O994   Zn1000  2.016   .     S
O994   C1048   1.311   .     S
O995   Zn1001  2.036   .     S
O996   Zn1000  1.976   .     S
O997   Zn1001  1.967   .     S
O998   Zn1000  2.036   .     S
O999   Zn1001  2.016   .     S
O1002  C1003   1.429   .     S
C1003  H1004   1.106   .     S
C1003  H1005   1.115   .     S
C1003  C1006   1.537   .     S
C1006  C1009   1.522   .     S
C1006  H1007   1.112   .     S
C1006  H1008   1.103   .     S
C1009  H1012   1.102   .     S
C1009  H1232   1.111   .     S
C1009  H1233   1.106   .     S
F1013  C1197   1.362   .     S
O1015  C1016   1.402   .     S
C1016  H1018   1.106   .     S
C1016  H1017   1.112   .     S
C1016  C1019   1.528   .     S
C1019  H1020   1.112   .     S
C1019  H1021   1.112   .     S
C1019  C1022   1.525   .     S
C1022  H1023   1.111   .     S
C1022  H1246   1.111   .     S
C1022  H1247   1.111   .     S
O1026  C1027   1.426   .     S
C1027  C1030   1.536   .     S
C1027  H1028   1.102   .     S
C1027  H1029   1.116   .     S
C1030  C1033   1.523   .     S
C1030  H1032   1.110   .     S
H1031  C364    1.107   1_556 S
C1033  H1036   1.105   .     S
C1033  H1034   1.111   .     S
H1035  C367    1.110   1_556 S
C1037  C1047   1.405   .     S
C1037  O1067   1.300   .     A
C1038  C1039   1.394   .     A
C1038  C374    1.379   1_556 S
C1038  C390    1.395   1_556 S
C1039  C1046   1.422   .     A
C1039  C1043   1.433   .     A
C1040  C1044   1.376   .     A
C1041  C1042   1.393   .     A
C1041  C374    1.394   1_556 S
C1041  C386    1.399   1_556 S
C1042  C1043   1.404   .     A
C1042  H1057   1.083   .     S
C1043  H1062   1.078   .     S
C1044  C1053   1.391   .     A
C1044  O1100   1.386   .     S
C1045  C1053   1.418   .     A
C1045  C1052   1.407   .     A
C1045  O928    1.392   1_655 S
C1046  C1048   1.434   .     S
C1046  C1054   1.406   .     A
C1047  C1197   1.335   .     S
C1047  H1285   1.087   .     S
C1048  O1069   1.288   .     A
C1049  C1050   1.397   .     S
C1049  C677    1.335   1_655 S
C1050  O1070   1.292   .     A
C1050  O923    1.289   1_655 S
C1051  O1072   1.308   .     A
C1051  C1053   1.441   .     S
C1051  O925    1.293   1_655 S
C1054  H1059   1.083   .     S
C1054  C1055   1.382   .     A
C1055  C390    1.387   1_556 S
C1055  H395    1.080   1_556 S
C1056  H1060   1.073   .     S
H1058  C386    1.073   1_556 S
N1064  F1088   1.330   .     S
N1064  N1065   1.281   .     D
N1064  Zn1075  2.043   .     S
N1065  Zn1074  2.043   .     S
N1065  O1089   1.345   .     S
O1066  Zn1074  1.967   .     S
O1066  C889    1.285   1_655 S
O1067  Zn1075  1.976   .     S
O1068  Zn1074  2.016   .     S
O1068  C900    1.311   1_655 S
O1069  Zn1075  2.036   .     S
O1070  Zn1074  1.976   .     S
O1071  Zn1075  1.967   .     S
O1072  Zn1074  2.036   .     S
O1073  Zn1075  2.016   .     S
O1076  C1077   1.429   .     S
C1077  H1078   1.106   .     S
C1077  H1079   1.115   .     S
C1077  C1080   1.537   .     S
C1080  C1083   1.522   .     S
C1080  H1081   1.112   .     S
C1080  H1082   1.103   .     S
C1083  H1086   1.102   .     S
C1083  H1306   1.111   .     S
C1083  H1307   1.106   .     S
F1087  C1271   1.362   .     S
O1089  C1090   1.402   .     S
C1090  H1092   1.106   .     S
C1090  H1091   1.112   .     S
C1090  C1093   1.528   .     S
C1093  H1094   1.112   .     S
C1093  H1095   1.112   .     S
C1093  C1096   1.525   .     S
C1096  H1097   1.111   .     S
C1096  H1320   1.111   .     S
C1096  H1321   1.111   .     S
O1100  C1101   1.426   .     S
C1101  C1104   1.536   .     S
C1101  H1102   1.102   .     S
C1101  H1103   1.116   .     S
C1104  C1107   1.523   .     S
C1104  H1106   1.110   .     S
H1105  C438    1.107   1_556 S
C1107  H1110   1.105   .     S
C1107  H1108   1.111   .     S
H1109  C441    1.110   1_556 S
C1111  C1121   1.405   .     S
C1111  O1141   1.300   .     A
C1111  O1288   1.285   1_455 S
C1112  C1113   1.394   .     A
C1112  C448    1.379   1_556 S
C1112  C464    1.395   1_556 S
C1113  C1120   1.422   .     A
C1113  C1117   1.433   .     A
C1114  C1118   1.376   .     A
C1115  C1116   1.393   .     A
C1115  C448    1.394   1_556 S
C1115  C460    1.399   1_556 S
C1116  C1117   1.404   .     A
C1116  H1131   1.083   .     S
C1117  H1136   1.078   .     S
C1118  C1127   1.391   .     A
C1118  O1174   1.386   .     S
C1119  C1127   1.418   .     A
C1119  C1126   1.407   .     A
C1119  O1224   1.392   .     S
C1120  C1122   1.434   .     S
C1120  C1128   1.406   .     A
C1121  C827    1.335   1_465 S
C1121  H693    1.087   1_565 S
C1122  O1143   1.288   .     A
C1122  O1290   1.311   1_455 S
C1123  C1124   1.397   .     S
C1124  O1144   1.292   .     A
C1124  O1219   1.289   .     S
C1125  O1146   1.308   .     A
C1125  C1127   1.441   .     S
C1125  O1221   1.293   .     S
C1128  H1133   1.083   .     S
C1128  C1129   1.382   .     A
C1129  C464    1.387   1_556 S
C1129  H469    1.080   1_556 S
C1130  H1134   1.073   .     S
H1132  C460    1.073   1_556 S
N1138  F1162   1.330   .     S
N1138  N1139   1.281   .     D
N1138  Zn1149  2.043   .     S
N1139  Zn1148  2.043   .     S
N1139  O1163   1.345   .     S
O1140  Zn1148  1.967   .     S
O1140  C1185   1.285   .     S
O1141  Zn1149  1.976   .     S
O1142  Zn1148  2.016   .     S
O1142  C1196   1.311   .     S
O1143  Zn1149  2.036   .     S
O1144  Zn1148  1.976   .     S
O1145  Zn1149  1.967   .     S
O1145  C1272   1.289   1_455 S
O1146  Zn1148  2.036   .     S
O1147  Zn1149  2.016   .     S
O1147  C1273   1.293   1_455 S
O1150  C1151   1.429   .     S
O1150  C1267   1.392   1_455 S
C1151  H1152   1.106   .     S
C1151  H1153   1.115   .     S
C1151  C1154   1.537   .     S
C1154  C1157   1.522   .     S
C1154  H1155   1.112   .     S
C1154  H1156   1.103   .     S
C1157  H1160   1.102   .     S
C1157  H714    1.111   1_565 S
C1157  H715    1.106   1_565 S
F1161  C679    1.362   1_565 S
O1163  C1164   1.402   .     S
C1164  H1166   1.106   .     S
C1164  H1165   1.112   .     S
C1164  C1167   1.528   .     S
C1167  H1168   1.112   .     S
C1167  H1169   1.112   .     S
C1167  C1170   1.525   .     S
C1170  H1171   1.111   .     S
C1170  H728    1.111   1_565 S
C1170  H729    1.111   1_565 S
O1174  C1175   1.426   .     S
C1175  C1178   1.536   .     S
C1175  H1176   1.102   .     S
C1175  H1177   1.116   .     S
C1178  C1181   1.523   .     S
C1178  H1180   1.110   .     S
H1179  C512    1.107   1_556 S
C1181  H1184   1.105   .     S
C1181  H1182   1.111   .     S
H1183  C515    1.110   1_556 S
C1185  C1195   1.405   .     S
C1185  O1215   1.300   .     A
C1186  C1187   1.394   .     A
C1186  C522    1.379   1_556 S
C1186  C538    1.395   1_556 S
C1187  C1194   1.422   .     A
C1187  C1191   1.433   .     A
C1188  C1192   1.376   .     A
C1189  C1190   1.393   .     A
C1189  C522    1.394   1_556 S
C1189  C534    1.399   1_556 S
C1190  C1191   1.404   .     A
C1190  H1205   1.083   .     S
C1191  H1210   1.078   .     S
C1192  C1201   1.391   .     A
C1192  O1248   1.386   .     S
C1193  C1201   1.418   .     A
C1193  C1200   1.407   .     A
C1193  O1298   1.392   .     S
C1194  C1196   1.434   .     S
C1194  C1202   1.406   .     A
C1195  C679    1.335   1_565 S
C1195  H767    1.087   1_565 S
C1196  O1217   1.288   .     A
C1197  C1198   1.397   .     S
C1198  O1218   1.292   .     A
C1198  O1293   1.289   .     S
C1199  O1220   1.308   .     A
C1199  C1201   1.441   .     S
C1199  O1295   1.293   .     S
C1202  H1207   1.083   .     S
C1202  C1203   1.382   .     A
C1203  C538    1.387   1_556 S
C1203  H543    1.080   1_556 S
C1204  H1208   1.073   .     S
H1206  C534    1.073   1_556 S
N1212  F1236   1.330   .     S
N1212  N1213   1.281   .     D
N1212  Zn1223  2.043   .     S
N1213  Zn1222  2.043   .     S
N1213  O1237   1.345   .     S
O1214  Zn1222  1.967   .     S
O1214  C1259   1.285   .     S
O1215  Zn1223  1.976   .     S
O1216  Zn1222  2.016   .     S
O1216  C1270   1.311   .     S
O1217  Zn1223  2.036   .     S
O1218  Zn1222  1.976   .     S
O1219  Zn1223  1.967   .     S
O1220  Zn1222  2.036   .     S
O1221  Zn1223  2.016   .     S
O1224  C1225   1.429   .     S
C1225  H1226   1.106   .     S
C1225  H1227   1.115   .     S
C1225  C1228   1.537   .     S
C1228  C1231   1.522   .     S
C1228  H1229   1.112   .     S
C1228  H1230   1.103   .     S
C1231  H1234   1.102   .     S
C1231  H788    1.111   1_565 S
C1231  H789    1.106   1_565 S
F1235  C753    1.362   1_565 S
O1237  C1238   1.402   .     S
C1238  H1240   1.106   .     S
C1238  H1239   1.112   .     S
C1238  C1241   1.528   .     S
C1241  H1242   1.112   .     S
C1241  H1243   1.112   .     S
C1241  C1244   1.525   .     S
C1244  H1245   1.111   .     S
C1244  H802    1.111   1_565 S
C1244  H803    1.111   1_565 S
O1248  C1249   1.426   .     S
C1249  C1252   1.536   .     S
C1249  H1250   1.102   .     S
C1249  H1251   1.116   .     S
C1252  C1255   1.523   .     S
C1252  H1254   1.110   .     S
H1253  C586    1.107   1_556 S
C1255  H1258   1.105   .     S
C1255  H1256   1.111   .     S
H1257  C589    1.110   1_556 S
C1259  C1269   1.405   .     S
C1259  O1289   1.300   .     A
C1260  C1261   1.394   .     A
C1260  C596    1.379   1_556 S
C1260  C612    1.395   1_556 S
C1261  C1268   1.422   .     A
C1261  C1265   1.433   .     A
C1262  C1266   1.376   .     A
C1263  C1264   1.393   .     A
C1263  C596    1.394   1_556 S
C1263  C608    1.399   1_556 S
C1264  C1265   1.404   .     A
C1264  H1279   1.083   .     S
C1265  H1284   1.078   .     S
C1266  C1275   1.391   .     A
C1266  O1322   1.386   .     S
C1267  C1275   1.418   .     A
C1267  C1274   1.407   .     A
C1267  O1150   1.392   1_655 S
C1268  C1270   1.434   .     S
C1268  C1276   1.406   .     A
C1269  C753    1.335   1_565 S
C1269  H841    1.087   1_565 S
C1270  O1291   1.288   .     A
C1271  C1272   1.397   .     S
C1271  C899    1.335   1_655 S
C1272  O1292   1.292   .     A
C1272  O1145   1.289   1_655 S
C1273  O1294   1.308   .     A
C1273  C1275   1.441   .     S
C1273  O1147   1.293   1_655 S
C1276  H1281   1.083   .     S
C1276  C1277   1.382   .     A
C1277  C612    1.387   1_556 S
C1277  H617    1.080   1_556 S
C1278  H1282   1.073   .     S
H1280  C608    1.073   1_556 S
N1286  F1310   1.330   .     S
N1286  N1287   1.281   .     D
N1286  Zn1297  2.043   .     S
N1287  Zn1296  2.043   .     S
N1287  O1311   1.345   .     S
O1288  Zn1296  1.967   .     S
O1288  C1111   1.285   1_655 S
O1289  Zn1297  1.976   .     S
O1290  Zn1296  2.016   .     S
O1290  C1122   1.311   1_655 S
O1291  Zn1297  2.036   .     S
O1292  Zn1296  1.976   .     S
O1293  Zn1297  1.967   .     S
O1294  Zn1296  2.036   .     S
O1295  Zn1297  2.016   .     S
O1298  C1299   1.429   .     S
C1299  H1300   1.106   .     S
C1299  H1301   1.115   .     S
C1299  C1302   1.537   .     S
C1302  C1305   1.522   .     S
C1302  H1303   1.112   .     S
C1302  H1304   1.103   .     S
C1305  H1308   1.102   .     S
C1305  H862    1.111   1_565 S
C1305  H863    1.106   1_565 S
F1309  C827    1.362   1_565 S
O1311  C1312   1.402   .     S
C1312  H1314   1.106   .     S
C1312  H1313   1.112   .     S
C1312  C1315   1.528   .     S
C1315  H1316   1.112   .     S
C1315  H1317   1.112   .     S
C1315  C1318   1.525   .     S
C1318  H1319   1.111   .     S
C1318  H876    1.111   1_565 S
C1318  H877    1.111   1_565 S
O1322  C1323   1.426   .     S
C1323  C1326   1.536   .     S
C1323  H1324   1.102   .     S
C1323  H1325   1.116   .     S
C1326  C1329   1.523   .     S
C1326  H1328   1.110   .     S
H1327  C660    1.107   1_556 S
C1329  H1332   1.105   .     S
C1329  H1330   1.111   .     S
H1331  C663    1.110   1_556 S
