data_str_m2_o2_o10_pcu_sym.59
_audit_creation_date              2020-01-03
_audit_creation_method            'Materials Studio'
_symmetry_space_group_name_H-M    'P1'
_symmetry_Int_Tables_number       1
_symmetry_cell_setting            triclinic
loop_
_symmetry_equiv_pos_as_xyz
  x,y,z
_cell_length_a                    26.1272
_cell_length_b                    30.2268
_cell_length_c                    28.0268
_cell_angle_alpha                 89.3178
_cell_angle_beta                  98.0104
_cell_angle_gamma                 92.8362
loop_
_atom_site_label
_atom_site_type_symbol
_atom_site_fract_x
_atom_site_fract_y
_atom_site_fract_z
_atom_site_U_iso_or_equiv
_atom_site_adp_type
_atom_site_occupancy
C1     C     0.16686   0.16531   0.25032   0.00000  Uiso   1.00
C2     C     0.18433   0.28878   0.44803   0.00000  Uiso   1.00
C3     C     0.16308   0.25085   0.02661   0.00000  Uiso   1.00
C4     C     0.16377   0.25198   0.47221   0.00000  Uiso   1.00
C5     C     0.06799   0.24930   0.23766   0.00000  Uiso   1.00
C6     C     0.26535   0.25027   0.26242   0.00000  Uiso   1.00
C7     C     0.01258   0.24753   0.23119   0.00000  Uiso   1.00
C8     C     0.32079   0.25099   0.26923   0.00000  Uiso   1.00
C9     C     0.21368   0.04936   0.27065   0.00000  Uiso   1.00
C10    C     0.15956   0.45476   0.20304   0.00000  Uiso   1.00
C11    C     0.21323   0.09613   0.27172   0.00000  Uiso   1.00
C12    C     0.16389   0.33506   0.24908   0.00000  Uiso   1.00
C13    C     0.15468   0.40793   0.20229   0.00000  Uiso   1.00
C14    C     0.16834   0.11740   0.25135   0.00000  Uiso   1.00
C15    C     0.15946   0.38380   0.24671   0.00000  Uiso   1.00
C16    C     0.12374   0.09296   0.23231   0.00000  Uiso   1.00
C17    C     0.16168   0.40692   0.29002   0.00000  Uiso   1.00
C18    C     0.12317   0.04721   0.23282   0.00000  Uiso   1.00
C19    C     0.16423   0.45273   0.29059   0.00000  Uiso   1.00
C20    C     0.16773   0.02522   0.25090   0.00000  Uiso   1.00
C21    C     0.16481   0.47675   0.24787   0.00000  Uiso   1.00
C22    C     0.26268   0.02686   0.28760   0.00000  Uiso   1.00
C23    C     0.20662   0.26666   0.05749   0.00000  Uiso   1.00
C24    C     0.15833   0.48028   0.15699   0.00000  Uiso   1.00
C25    C     0.26009   0.12309   0.29163   0.00000  Uiso   1.00
C26    C     0.14320   0.38514   0.15506   0.00000  Uiso   1.00
C27    C     0.25151   0.29493   0.13402   0.00000  Uiso   1.00
C28    C     0.11683   0.17703   0.36798   0.00000  Uiso   1.00
C29    C     0.08502   0.20344   0.12124   0.00000  Uiso   1.00
C30    C     0.22580   0.31690   0.37794   0.00000  Uiso   1.00
C31    C     0.07239   0.21844   0.01690   0.00000  Uiso   1.00
C32    C     0.19671   0.33146   0.47442   0.00000  Uiso   1.00
C33    C     0.14629   0.21464   0.44432   0.00000  Uiso   1.00
C34    C     0.20679   0.26935   0.10764   0.00000  Uiso   1.00
C35    C     0.14395   0.21534   0.39388   0.00000  Uiso   1.00
C36    C     0.12523   0.22976   0.09984   0.00000  Uiso   1.00
C37    C     0.19049   0.28476   0.39832   0.00000  Uiso   1.00
C38    C     0.12092   0.23282   0.04832   0.00000  Uiso   1.00
Cu39   Cu    0.16667   0.24999   0.29821   0.00000  Uiso   1.00
Cu40   Cu    0.16667   0.25000   0.20178   0.00000  Uiso   1.00
H41    H     0.32567   0.24280   0.19501   0.00000  Uiso   1.00
H42    H     0.13539   0.46775   0.12427   0.00000  Uiso   1.00
H43    H     0.31031   0.14119   0.35016   0.00000  Uiso   1.00
H44    H     0.16542   0.37342   0.09048   0.00000  Uiso   1.00
H45    H     0.32797   0.31148   0.13967   0.00000  Uiso   1.00
H46    H     0.11228   0.11080   0.35892   0.00000  Uiso   1.00
H47    H     0.09538   0.17576   0.14481   0.00000  Uiso   1.00
H48    H     0.21609   0.35116   0.37334   0.00000  Uiso   1.00
H49    H     0.05831   0.23852   0.48592   0.00000  Uiso   1.00
H50    H     0.17522   0.33944   0.00339   0.00000  Uiso   1.00
H51    H     0.00765   0.25477   0.30568   0.00000  Uiso   1.00
H52    H     0.08914   0.10944   0.21736   0.00000  Uiso   1.00
H53    H     0.16146   0.38965   0.32388   0.00000  Uiso   1.00
H54    H     0.08805   0.02868   0.21810   0.00000  Uiso   1.00
H55    H     0.16639   0.46970   0.32471   0.00000  Uiso   1.00
H56    H     0.24030   0.27915   0.04204   0.00000  Uiso   1.00
H57    H     0.13243   0.18503   0.46159   0.00000  Uiso   1.00
H58    H     0.29345   0.04362   0.31164   0.00000  Uiso   1.00
N59    N     0.16667   0.25001   0.12934   0.00000  Uiso   1.00
N60    N     0.16667   0.24999   0.37065   0.00000  Uiso   1.00
O61    O     0.16667   0.18572   0.29071   0.00000  Uiso   1.00
O62    O     0.18394   0.01495   0.15476   0.00000  Uiso   1.00
O63    O     0.28240   0.14713   0.26495   0.00000  Uiso   1.00
O64    O     0.27831   0.12112   0.34088   0.00000  Uiso   1.00
O65    O     0.10337   0.36201   0.14576   0.00000  Uiso   1.00
O66    O     0.17746   0.39073   0.12110   0.00000  Uiso   1.00
O67    O     0.24539   0.32177   0.16459   0.00000  Uiso   1.00
O68    O     0.30070   0.29123   0.12052   0.00000  Uiso   1.00
O69    O     0.07814   0.18207   0.33895   0.00000  Uiso   1.00
O70    O     0.13406   0.13453   0.37875   0.00000  Uiso   1.00
O71    O     0.03968   0.21281   0.11307   0.00000  Uiso   1.00
O72    O     0.16666   0.31427   0.20928   0.00000  Uiso   1.00
O73    O     0.26832   0.30618   0.37041   0.00000  Uiso   1.00
O74    O     0.04941   0.18324   0.02355   0.00000  Uiso   1.00
O75    O     0.23124   0.35755   0.46534   0.00000  Uiso   1.00
O76    O     0.16667   0.18573   0.20928   0.00000  Uiso   1.00
O77    O     0.16666   0.31427   0.29072   0.00000  Uiso   1.00
O78    O     0.09161   0.24999   0.28132   0.00000  Uiso   1.00
O79    O     0.24172   0.25000   0.21868   0.00000  Uiso   1.00
O80    O     0.09161   0.25000   0.19988   0.00000  Uiso   1.00
O81    O     0.24172   0.25000   0.30011   0.00000  Uiso   1.00
O82    O     0.27027   0.48989   0.27385   0.00000  Uiso   1.00
C83    C     0.50019   0.16531   0.25032   0.00000  Uiso   1.00
C84    C     0.51767   0.28878   0.44803   0.00000  Uiso   1.00
C85    C     0.49641   0.25085   0.02661   0.00000  Uiso   1.00
C86    C     0.49710   0.25198   0.47221   0.00000  Uiso   1.00
C87    C     0.40133   0.24930   0.23766   0.00000  Uiso   1.00
C88    C     0.59868   0.25027   0.26242   0.00000  Uiso   1.00
C89    C     0.34591   0.24753   0.23119   0.00000  Uiso   1.00
C90    C     0.65412   0.25099   0.26923   0.00000  Uiso   1.00
C91    C     0.54701   0.04936   0.27065   0.00000  Uiso   1.00
C92    C     0.49289   0.45476   0.20304   0.00000  Uiso   1.00
C93    C     0.54657   0.09613   0.27172   0.00000  Uiso   1.00
C94    C     0.49723   0.33506   0.24908   0.00000  Uiso   1.00
C95    C     0.48801   0.40793   0.20229   0.00000  Uiso   1.00
C96    C     0.50167   0.11740   0.25135   0.00000  Uiso   1.00
C97    C     0.49280   0.38380   0.24671   0.00000  Uiso   1.00
C98    C     0.45708   0.09296   0.23231   0.00000  Uiso   1.00
C99    C     0.49501   0.40692   0.29002   0.00000  Uiso   1.00
C100   C     0.45650   0.04721   0.23282   0.00000  Uiso   1.00
C101   C     0.49756   0.45273   0.29059   0.00000  Uiso   1.00
C102   C     0.50106   0.02522   0.25090   0.00000  Uiso   1.00
C103   C     0.49814   0.47675   0.24787   0.00000  Uiso   1.00
C104   C     0.59602   0.02686   0.28760   0.00000  Uiso   1.00
C105   C     0.53996   0.26666   0.05749   0.00000  Uiso   1.00
C106   C     0.49166   0.48028   0.15699   0.00000  Uiso   1.00
C107   C     0.59343   0.12309   0.29163   0.00000  Uiso   1.00
C108   C     0.47653   0.38514   0.15506   0.00000  Uiso   1.00
C109   C     0.58484   0.29493   0.13402   0.00000  Uiso   1.00
C110   C     0.45017   0.17703   0.36798   0.00000  Uiso   1.00
C111   C     0.41835   0.20344   0.12124   0.00000  Uiso   1.00
C112   C     0.55913   0.31690   0.37794   0.00000  Uiso   1.00
C113   C     0.40572   0.21844   0.01690   0.00000  Uiso   1.00
C114   C     0.53004   0.33146   0.47442   0.00000  Uiso   1.00
C115   C     0.47963   0.21464   0.44432   0.00000  Uiso   1.00
C116   C     0.54012   0.26935   0.10764   0.00000  Uiso   1.00
C117   C     0.47729   0.21534   0.39388   0.00000  Uiso   1.00
C118   C     0.45856   0.22976   0.09984   0.00000  Uiso   1.00
C119   C     0.52383   0.28476   0.39832   0.00000  Uiso   1.00
C120   C     0.45426   0.23282   0.04832   0.00000  Uiso   1.00
Cu121  Cu    0.50000   0.24999   0.29821   0.00000  Uiso   1.00
Cu122  Cu    0.50000   0.25000   0.20178   0.00000  Uiso   1.00
H123   H     0.65900   0.24280   0.19501   0.00000  Uiso   1.00
H124   H     0.46872   0.46775   0.12427   0.00000  Uiso   1.00
H125   H     0.64364   0.14119   0.35016   0.00000  Uiso   1.00
H126   H     0.49875   0.37342   0.09048   0.00000  Uiso   1.00
H127   H     0.66131   0.31148   0.13967   0.00000  Uiso   1.00
H128   H     0.44562   0.11080   0.35892   0.00000  Uiso   1.00
H129   H     0.42871   0.17576   0.14481   0.00000  Uiso   1.00
H130   H     0.54943   0.35116   0.37334   0.00000  Uiso   1.00
H131   H     0.39165   0.23852   0.48592   0.00000  Uiso   1.00
H132   H     0.50856   0.33944   0.00339   0.00000  Uiso   1.00
H133   H     0.34099   0.25477   0.30568   0.00000  Uiso   1.00
H134   H     0.42247   0.10944   0.21736   0.00000  Uiso   1.00
H135   H     0.49480   0.38965   0.32388   0.00000  Uiso   1.00
H136   H     0.42138   0.02868   0.21810   0.00000  Uiso   1.00
H137   H     0.49972   0.46970   0.32471   0.00000  Uiso   1.00
H138   H     0.57363   0.27915   0.04204   0.00000  Uiso   1.00
H139   H     0.46577   0.18503   0.46159   0.00000  Uiso   1.00
H140   H     0.62678   0.04362   0.31164   0.00000  Uiso   1.00
N141   N     0.50000   0.25001   0.12934   0.00000  Uiso   1.00
N142   N     0.50000   0.24999   0.37065   0.00000  Uiso   1.00
O143   O     0.50000   0.18572   0.29071   0.00000  Uiso   1.00
O144   O     0.51728   0.01495   0.15476   0.00000  Uiso   1.00
O145   O     0.61573   0.14713   0.26495   0.00000  Uiso   1.00
O146   O     0.61164   0.12112   0.34088   0.00000  Uiso   1.00
O147   O     0.43670   0.36201   0.14576   0.00000  Uiso   1.00
O148   O     0.51080   0.39073   0.12110   0.00000  Uiso   1.00
O149   O     0.57872   0.32177   0.16459   0.00000  Uiso   1.00
O150   O     0.63403   0.29123   0.12052   0.00000  Uiso   1.00
O151   O     0.41147   0.18207   0.33895   0.00000  Uiso   1.00
O152   O     0.46740   0.13453   0.37875   0.00000  Uiso   1.00
O153   O     0.37301   0.21281   0.11307   0.00000  Uiso   1.00
O154   O     0.50000   0.31427   0.20928   0.00000  Uiso   1.00
O155   O     0.60166   0.30618   0.37041   0.00000  Uiso   1.00
O156   O     0.38274   0.18324   0.02355   0.00000  Uiso   1.00
O157   O     0.56457   0.35755   0.46534   0.00000  Uiso   1.00
O158   O     0.50000   0.18573   0.20928   0.00000  Uiso   1.00
O159   O     0.50000   0.31427   0.29072   0.00000  Uiso   1.00
O160   O     0.42495   0.24999   0.28132   0.00000  Uiso   1.00
O161   O     0.57505   0.25000   0.21868   0.00000  Uiso   1.00
O162   O     0.42495   0.25000   0.19988   0.00000  Uiso   1.00
O163   O     0.57505   0.25000   0.30011   0.00000  Uiso   1.00
O164   O     0.60360   0.48989   0.27385   0.00000  Uiso   1.00
C165   C     0.83352   0.16531   0.25032   0.00000  Uiso   1.00
C166   C     0.85100   0.28878   0.44803   0.00000  Uiso   1.00
C167   C     0.82975   0.25085   0.02661   0.00000  Uiso   1.00
C168   C     0.83043   0.25198   0.47221   0.00000  Uiso   1.00
C169   C     0.73466   0.24930   0.23766   0.00000  Uiso   1.00
C170   C     0.93201   0.25027   0.26242   0.00000  Uiso   1.00
C171   C     0.67924   0.24753   0.23119   0.00000  Uiso   1.00
C172   C     0.98746   0.25099   0.26923   0.00000  Uiso   1.00
C173   C     0.88035   0.04936   0.27065   0.00000  Uiso   1.00
C174   C     0.82622   0.45476   0.20304   0.00000  Uiso   1.00
C175   C     0.87990   0.09613   0.27172   0.00000  Uiso   1.00
C176   C     0.83056   0.33506   0.24908   0.00000  Uiso   1.00
C177   C     0.82135   0.40793   0.20229   0.00000  Uiso   1.00
C178   C     0.83500   0.11740   0.25135   0.00000  Uiso   1.00
C179   C     0.82613   0.38380   0.24671   0.00000  Uiso   1.00
C180   C     0.79041   0.09296   0.23231   0.00000  Uiso   1.00
C181   C     0.82835   0.40692   0.29002   0.00000  Uiso   1.00
C182   C     0.78983   0.04721   0.23282   0.00000  Uiso   1.00
C183   C     0.83089   0.45273   0.29059   0.00000  Uiso   1.00
C184   C     0.83440   0.02522   0.25090   0.00000  Uiso   1.00
C185   C     0.83148   0.47675   0.24787   0.00000  Uiso   1.00
C186   C     0.92935   0.02686   0.28760   0.00000  Uiso   1.00
C187   C     0.87329   0.26666   0.05749   0.00000  Uiso   1.00
C188   C     0.82499   0.48028   0.15699   0.00000  Uiso   1.00
C189   C     0.92676   0.12309   0.29163   0.00000  Uiso   1.00
C190   C     0.80987   0.38514   0.15506   0.00000  Uiso   1.00
C191   C     0.91817   0.29493   0.13402   0.00000  Uiso   1.00
C192   C     0.78350   0.17703   0.36798   0.00000  Uiso   1.00
C193   C     0.75168   0.20344   0.12124   0.00000  Uiso   1.00
C194   C     0.89247   0.31690   0.37794   0.00000  Uiso   1.00
C195   C     0.73905   0.21844   0.01690   0.00000  Uiso   1.00
C196   C     0.86337   0.33146   0.47442   0.00000  Uiso   1.00
C197   C     0.81296   0.21464   0.44432   0.00000  Uiso   1.00
C198   C     0.87346   0.26935   0.10764   0.00000  Uiso   1.00
C199   C     0.81062   0.21534   0.39388   0.00000  Uiso   1.00
C200   C     0.79190   0.22976   0.09984   0.00000  Uiso   1.00
C201   C     0.85716   0.28476   0.39832   0.00000  Uiso   1.00
C202   C     0.78759   0.23282   0.04832   0.00000  Uiso   1.00
Cu203  Cu    0.83333   0.24999   0.29821   0.00000  Uiso   1.00
Cu204  Cu    0.83333   0.25000   0.20178   0.00000  Uiso   1.00
H205   H     0.99234   0.24280   0.19501   0.00000  Uiso   1.00
H206   H     0.80206   0.46775   0.12427   0.00000  Uiso   1.00
H207   H     0.97698   0.14119   0.35016   0.00000  Uiso   1.00
H208   H     0.83209   0.37342   0.09048   0.00000  Uiso   1.00
H209   H     0.99464   0.31148   0.13967   0.00000  Uiso   1.00
H210   H     0.77895   0.11080   0.35892   0.00000  Uiso   1.00
H211   H     0.76205   0.17576   0.14481   0.00000  Uiso   1.00
H212   H     0.88276   0.35116   0.37334   0.00000  Uiso   1.00
H213   H     0.72498   0.23852   0.48592   0.00000  Uiso   1.00
H214   H     0.84189   0.33944   0.00339   0.00000  Uiso   1.00
H215   H     0.67432   0.25477   0.30568   0.00000  Uiso   1.00
H216   H     0.75581   0.10944   0.21736   0.00000  Uiso   1.00
H217   H     0.82813   0.38965   0.32388   0.00000  Uiso   1.00
H218   H     0.75472   0.02868   0.21810   0.00000  Uiso   1.00
H219   H     0.83306   0.46970   0.32471   0.00000  Uiso   1.00
H220   H     0.90696   0.27915   0.04204   0.00000  Uiso   1.00
H221   H     0.79910   0.18503   0.46159   0.00000  Uiso   1.00
H222   H     0.96011   0.04362   0.31164   0.00000  Uiso   1.00
N223   N     0.83333   0.25001   0.12934   0.00000  Uiso   1.00
N224   N     0.83333   0.24999   0.37065   0.00000  Uiso   1.00
O225   O     0.83334   0.18572   0.29071   0.00000  Uiso   1.00
O226   O     0.85061   0.01495   0.15476   0.00000  Uiso   1.00
O227   O     0.94906   0.14713   0.26495   0.00000  Uiso   1.00
O228   O     0.94498   0.12112   0.34088   0.00000  Uiso   1.00
O229   O     0.77004   0.36201   0.14576   0.00000  Uiso   1.00
O230   O     0.84413   0.39073   0.12110   0.00000  Uiso   1.00
O231   O     0.91206   0.32177   0.16459   0.00000  Uiso   1.00
O232   O     0.96736   0.29123   0.12052   0.00000  Uiso   1.00
O233   O     0.74480   0.18207   0.33895   0.00000  Uiso   1.00
O234   O     0.80073   0.13453   0.37875   0.00000  Uiso   1.00
O235   O     0.70634   0.21281   0.11307   0.00000  Uiso   1.00
O236   O     0.83333   0.31427   0.20928   0.00000  Uiso   1.00
O237   O     0.93499   0.30618   0.37041   0.00000  Uiso   1.00
O238   O     0.71608   0.18324   0.02355   0.00000  Uiso   1.00
O239   O     0.89791   0.35755   0.46534   0.00000  Uiso   1.00
O240   O     0.83334   0.18573   0.20928   0.00000  Uiso   1.00
O241   O     0.83333   0.31427   0.29072   0.00000  Uiso   1.00
O242   O     0.75828   0.24999   0.28132   0.00000  Uiso   1.00
O243   O     0.90839   0.25000   0.21868   0.00000  Uiso   1.00
O244   O     0.75828   0.25000   0.19988   0.00000  Uiso   1.00
O245   O     0.90839   0.25000   0.30011   0.00000  Uiso   1.00
O246   O     0.93694   0.48989   0.27385   0.00000  Uiso   1.00
C247   C     0.16686   0.66531   0.25032   0.00000  Uiso   1.00
C248   C     0.18433   0.78878   0.44803   0.00000  Uiso   1.00
C249   C     0.16308   0.75085   0.02661   0.00000  Uiso   1.00
C250   C     0.16377   0.75198   0.47221   0.00000  Uiso   1.00
C251   C     0.06799   0.74930   0.23766   0.00000  Uiso   1.00
C252   C     0.26535   0.75027   0.26242   0.00000  Uiso   1.00
C253   C     0.01258   0.74753   0.23119   0.00000  Uiso   1.00
C254   C     0.32079   0.75099   0.26923   0.00000  Uiso   1.00
C255   C     0.21368   0.54936   0.27065   0.00000  Uiso   1.00
C256   C     0.15956   0.95476   0.20304   0.00000  Uiso   1.00
C257   C     0.21323   0.59613   0.27172   0.00000  Uiso   1.00
C258   C     0.16389   0.83506   0.24908   0.00000  Uiso   1.00
C259   C     0.15468   0.90793   0.20229   0.00000  Uiso   1.00
C260   C     0.16834   0.61740   0.25135   0.00000  Uiso   1.00
C261   C     0.15946   0.88380   0.24671   0.00000  Uiso   1.00
C262   C     0.12374   0.59296   0.23231   0.00000  Uiso   1.00
C263   C     0.16168   0.90692   0.29002   0.00000  Uiso   1.00
C264   C     0.12317   0.54721   0.23282   0.00000  Uiso   1.00
C265   C     0.16423   0.95273   0.29059   0.00000  Uiso   1.00
C266   C     0.16773   0.52522   0.25090   0.00000  Uiso   1.00
C267   C     0.16481   0.97675   0.24787   0.00000  Uiso   1.00
C268   C     0.26268   0.52686   0.28760   0.00000  Uiso   1.00
C269   C     0.20662   0.76666   0.05749   0.00000  Uiso   1.00
C270   C     0.15833   0.98028   0.15699   0.00000  Uiso   1.00
C271   C     0.26009   0.62309   0.29163   0.00000  Uiso   1.00
C272   C     0.14320   0.88514   0.15506   0.00000  Uiso   1.00
C273   C     0.25151   0.79493   0.13402   0.00000  Uiso   1.00
C274   C     0.11683   0.67703   0.36798   0.00000  Uiso   1.00
C275   C     0.08502   0.70344   0.12124   0.00000  Uiso   1.00
C276   C     0.22580   0.81690   0.37794   0.00000  Uiso   1.00
C277   C     0.07239   0.71844   0.01690   0.00000  Uiso   1.00
C278   C     0.19671   0.83146   0.47442   0.00000  Uiso   1.00
C279   C     0.14629   0.71464   0.44432   0.00000  Uiso   1.00
C280   C     0.20679   0.76935   0.10764   0.00000  Uiso   1.00
C281   C     0.14395   0.71534   0.39388   0.00000  Uiso   1.00
C282   C     0.12523   0.72976   0.09984   0.00000  Uiso   1.00
C283   C     0.19049   0.78476   0.39832   0.00000  Uiso   1.00
C284   C     0.12092   0.73282   0.04832   0.00000  Uiso   1.00
Cu285  Cu    0.16667   0.74999   0.29821   0.00000  Uiso   1.00
Cu286  Cu    0.16667   0.75000   0.20178   0.00000  Uiso   1.00
H287   H     0.32567   0.74280   0.19501   0.00000  Uiso   1.00
H288   H     0.13539   0.96775   0.12427   0.00000  Uiso   1.00
H289   H     0.31031   0.64119   0.35016   0.00000  Uiso   1.00
H290   H     0.16542   0.87342   0.09048   0.00000  Uiso   1.00
H291   H     0.32797   0.81148   0.13967   0.00000  Uiso   1.00
H292   H     0.11228   0.61080   0.35892   0.00000  Uiso   1.00
H293   H     0.09538   0.67576   0.14481   0.00000  Uiso   1.00
H294   H     0.21609   0.85116   0.37334   0.00000  Uiso   1.00
H295   H     0.05831   0.73852   0.48592   0.00000  Uiso   1.00
H296   H     0.17522   0.83944   0.00339   0.00000  Uiso   1.00
H297   H     0.00765   0.75477   0.30568   0.00000  Uiso   1.00
H298   H     0.08914   0.60944   0.21736   0.00000  Uiso   1.00
H299   H     0.16146   0.88965   0.32388   0.00000  Uiso   1.00
H300   H     0.08805   0.52868   0.21810   0.00000  Uiso   1.00
H301   H     0.16639   0.96970   0.32471   0.00000  Uiso   1.00
H302   H     0.24030   0.77915   0.04204   0.00000  Uiso   1.00
H303   H     0.13243   0.68503   0.46159   0.00000  Uiso   1.00
H304   H     0.29345   0.54362   0.31164   0.00000  Uiso   1.00
N305   N     0.16667   0.75001   0.12934   0.00000  Uiso   1.00
N306   N     0.16667   0.74999   0.37065   0.00000  Uiso   1.00
O307   O     0.16667   0.68572   0.29071   0.00000  Uiso   1.00
O308   O     0.18394   0.51495   0.15476   0.00000  Uiso   1.00
O309   O     0.28240   0.64713   0.26495   0.00000  Uiso   1.00
O310   O     0.27831   0.62112   0.34088   0.00000  Uiso   1.00
O311   O     0.10337   0.86201   0.14576   0.00000  Uiso   1.00
O312   O     0.17746   0.89073   0.12110   0.00000  Uiso   1.00
O313   O     0.24539   0.82177   0.16459   0.00000  Uiso   1.00
O314   O     0.30070   0.79123   0.12052   0.00000  Uiso   1.00
O315   O     0.07814   0.68207   0.33895   0.00000  Uiso   1.00
O316   O     0.13406   0.63453   0.37875   0.00000  Uiso   1.00
O317   O     0.03968   0.71281   0.11307   0.00000  Uiso   1.00
O318   O     0.16666   0.81427   0.20928   0.00000  Uiso   1.00
O319   O     0.26832   0.80618   0.37041   0.00000  Uiso   1.00
O320   O     0.04941   0.68324   0.02355   0.00000  Uiso   1.00
O321   O     0.23124   0.85755   0.46534   0.00000  Uiso   1.00
O322   O     0.16667   0.68573   0.20928   0.00000  Uiso   1.00
O323   O     0.16666   0.81427   0.29072   0.00000  Uiso   1.00
O324   O     0.09161   0.74999   0.28132   0.00000  Uiso   1.00
O325   O     0.24172   0.75000   0.21868   0.00000  Uiso   1.00
O326   O     0.09161   0.75000   0.19988   0.00000  Uiso   1.00
O327   O     0.24172   0.75000   0.30011   0.00000  Uiso   1.00
O328   O     0.27027   0.98989   0.27385   0.00000  Uiso   1.00
C329   C     0.50019   0.66531   0.25032   0.00000  Uiso   1.00
C330   C     0.51767   0.78878   0.44803   0.00000  Uiso   1.00
C331   C     0.49641   0.75085   0.02661   0.00000  Uiso   1.00
C332   C     0.49710   0.75198   0.47221   0.00000  Uiso   1.00
C333   C     0.40133   0.74930   0.23766   0.00000  Uiso   1.00
C334   C     0.59868   0.75027   0.26242   0.00000  Uiso   1.00
C335   C     0.34591   0.74753   0.23119   0.00000  Uiso   1.00
C336   C     0.65412   0.75099   0.26923   0.00000  Uiso   1.00
C337   C     0.54701   0.54936   0.27065   0.00000  Uiso   1.00
C338   C     0.49289   0.95476   0.20304   0.00000  Uiso   1.00
C339   C     0.54657   0.59613   0.27172   0.00000  Uiso   1.00
C340   C     0.49723   0.83506   0.24908   0.00000  Uiso   1.00
C341   C     0.48801   0.90793   0.20229   0.00000  Uiso   1.00
C342   C     0.50167   0.61740   0.25135   0.00000  Uiso   1.00
C343   C     0.49280   0.88380   0.24671   0.00000  Uiso   1.00
C344   C     0.45708   0.59296   0.23231   0.00000  Uiso   1.00
C345   C     0.49501   0.90692   0.29002   0.00000  Uiso   1.00
C346   C     0.45650   0.54721   0.23282   0.00000  Uiso   1.00
C347   C     0.49756   0.95273   0.29059   0.00000  Uiso   1.00
C348   C     0.50106   0.52522   0.25090   0.00000  Uiso   1.00
C349   C     0.49814   0.97675   0.24787   0.00000  Uiso   1.00
C350   C     0.59602   0.52686   0.28760   0.00000  Uiso   1.00
C351   C     0.53996   0.76666   0.05749   0.00000  Uiso   1.00
C352   C     0.49166   0.98028   0.15699   0.00000  Uiso   1.00
C353   C     0.59343   0.62309   0.29163   0.00000  Uiso   1.00
C354   C     0.47653   0.88514   0.15506   0.00000  Uiso   1.00
C355   C     0.58484   0.79493   0.13402   0.00000  Uiso   1.00
C356   C     0.45017   0.67703   0.36798   0.00000  Uiso   1.00
C357   C     0.41835   0.70344   0.12124   0.00000  Uiso   1.00
C358   C     0.55913   0.81690   0.37794   0.00000  Uiso   1.00
C359   C     0.40572   0.71844   0.01690   0.00000  Uiso   1.00
C360   C     0.53004   0.83146   0.47442   0.00000  Uiso   1.00
C361   C     0.47963   0.71464   0.44432   0.00000  Uiso   1.00
C362   C     0.54012   0.76935   0.10764   0.00000  Uiso   1.00
C363   C     0.47729   0.71534   0.39388   0.00000  Uiso   1.00
C364   C     0.45856   0.72976   0.09984   0.00000  Uiso   1.00
C365   C     0.52383   0.78476   0.39832   0.00000  Uiso   1.00
C366   C     0.45426   0.73282   0.04832   0.00000  Uiso   1.00
Cu367  Cu    0.50000   0.74999   0.29821   0.00000  Uiso   1.00
Cu368  Cu    0.50000   0.75000   0.20178   0.00000  Uiso   1.00
H369   H     0.65900   0.74280   0.19501   0.00000  Uiso   1.00
H370   H     0.46872   0.96775   0.12427   0.00000  Uiso   1.00
H371   H     0.64364   0.64119   0.35016   0.00000  Uiso   1.00
H372   H     0.49875   0.87342   0.09048   0.00000  Uiso   1.00
H373   H     0.66131   0.81148   0.13967   0.00000  Uiso   1.00
H374   H     0.44562   0.61080   0.35892   0.00000  Uiso   1.00
H375   H     0.42871   0.67576   0.14481   0.00000  Uiso   1.00
H376   H     0.54943   0.85116   0.37334   0.00000  Uiso   1.00
H377   H     0.39165   0.73852   0.48592   0.00000  Uiso   1.00
H378   H     0.50856   0.83944   0.00339   0.00000  Uiso   1.00
H379   H     0.34099   0.75477   0.30568   0.00000  Uiso   1.00
H380   H     0.42247   0.60944   0.21736   0.00000  Uiso   1.00
H381   H     0.49480   0.88965   0.32388   0.00000  Uiso   1.00
H382   H     0.42138   0.52868   0.21810   0.00000  Uiso   1.00
H383   H     0.49972   0.96970   0.32471   0.00000  Uiso   1.00
H384   H     0.57363   0.77915   0.04204   0.00000  Uiso   1.00
H385   H     0.46577   0.68503   0.46159   0.00000  Uiso   1.00
H386   H     0.62678   0.54362   0.31164   0.00000  Uiso   1.00
N387   N     0.50000   0.75001   0.12934   0.00000  Uiso   1.00
N388   N     0.50000   0.74999   0.37065   0.00000  Uiso   1.00
O389   O     0.50000   0.68572   0.29071   0.00000  Uiso   1.00
O390   O     0.51728   0.51495   0.15476   0.00000  Uiso   1.00
O391   O     0.61573   0.64713   0.26495   0.00000  Uiso   1.00
O392   O     0.61164   0.62112   0.34088   0.00000  Uiso   1.00
O393   O     0.43670   0.86201   0.14576   0.00000  Uiso   1.00
O394   O     0.51080   0.89073   0.12110   0.00000  Uiso   1.00
O395   O     0.57872   0.82177   0.16459   0.00000  Uiso   1.00
O396   O     0.63403   0.79123   0.12052   0.00000  Uiso   1.00
O397   O     0.41147   0.68207   0.33895   0.00000  Uiso   1.00
O398   O     0.46740   0.63453   0.37875   0.00000  Uiso   1.00
O399   O     0.37301   0.71281   0.11307   0.00000  Uiso   1.00
O400   O     0.50000   0.81427   0.20928   0.00000  Uiso   1.00
O401   O     0.60166   0.80618   0.37041   0.00000  Uiso   1.00
O402   O     0.38274   0.68324   0.02355   0.00000  Uiso   1.00
O403   O     0.56457   0.85755   0.46534   0.00000  Uiso   1.00
O404   O     0.50000   0.68573   0.20928   0.00000  Uiso   1.00
O405   O     0.50000   0.81427   0.29072   0.00000  Uiso   1.00
O406   O     0.42495   0.74999   0.28132   0.00000  Uiso   1.00
O407   O     0.57505   0.75000   0.21868   0.00000  Uiso   1.00
O408   O     0.42495   0.75000   0.19988   0.00000  Uiso   1.00
O409   O     0.57505   0.75000   0.30011   0.00000  Uiso   1.00
O410   O     0.60360   0.98989   0.27385   0.00000  Uiso   1.00
C411   C     0.83352   0.66531   0.25032   0.00000  Uiso   1.00
C412   C     0.85100   0.78878   0.44803   0.00000  Uiso   1.00
C413   C     0.82975   0.75085   0.02661   0.00000  Uiso   1.00
C414   C     0.83043   0.75198   0.47221   0.00000  Uiso   1.00
C415   C     0.73466   0.74930   0.23766   0.00000  Uiso   1.00
C416   C     0.93201   0.75027   0.26242   0.00000  Uiso   1.00
C417   C     0.67924   0.74753   0.23119   0.00000  Uiso   1.00
C418   C     0.98746   0.75099   0.26923   0.00000  Uiso   1.00
C419   C     0.88035   0.54936   0.27065   0.00000  Uiso   1.00
C420   C     0.82622   0.95476   0.20304   0.00000  Uiso   1.00
C421   C     0.87990   0.59613   0.27172   0.00000  Uiso   1.00
C422   C     0.83056   0.83506   0.24908   0.00000  Uiso   1.00
C423   C     0.82135   0.90793   0.20229   0.00000  Uiso   1.00
C424   C     0.83500   0.61740   0.25135   0.00000  Uiso   1.00
C425   C     0.82613   0.88380   0.24671   0.00000  Uiso   1.00
C426   C     0.79041   0.59296   0.23231   0.00000  Uiso   1.00
C427   C     0.82835   0.90692   0.29002   0.00000  Uiso   1.00
C428   C     0.78983   0.54721   0.23282   0.00000  Uiso   1.00
C429   C     0.83089   0.95273   0.29059   0.00000  Uiso   1.00
C430   C     0.83440   0.52522   0.25090   0.00000  Uiso   1.00
C431   C     0.83148   0.97675   0.24787   0.00000  Uiso   1.00
C432   C     0.92935   0.52686   0.28760   0.00000  Uiso   1.00
C433   C     0.87329   0.76666   0.05749   0.00000  Uiso   1.00
C434   C     0.82499   0.98028   0.15699   0.00000  Uiso   1.00
C435   C     0.92676   0.62309   0.29163   0.00000  Uiso   1.00
C436   C     0.80987   0.88514   0.15506   0.00000  Uiso   1.00
C437   C     0.91817   0.79493   0.13402   0.00000  Uiso   1.00
C438   C     0.78350   0.67703   0.36798   0.00000  Uiso   1.00
C439   C     0.75168   0.70344   0.12124   0.00000  Uiso   1.00
C440   C     0.89247   0.81690   0.37794   0.00000  Uiso   1.00
C441   C     0.73905   0.71844   0.01690   0.00000  Uiso   1.00
C442   C     0.86337   0.83146   0.47442   0.00000  Uiso   1.00
C443   C     0.81296   0.71464   0.44432   0.00000  Uiso   1.00
C444   C     0.87346   0.76935   0.10764   0.00000  Uiso   1.00
C445   C     0.81062   0.71534   0.39388   0.00000  Uiso   1.00
C446   C     0.79190   0.72976   0.09984   0.00000  Uiso   1.00
C447   C     0.85716   0.78476   0.39832   0.00000  Uiso   1.00
C448   C     0.78759   0.73282   0.04832   0.00000  Uiso   1.00
Cu449  Cu    0.83333   0.74999   0.29821   0.00000  Uiso   1.00
Cu450  Cu    0.83333   0.75000   0.20178   0.00000  Uiso   1.00
H451   H     0.99234   0.74280   0.19501   0.00000  Uiso   1.00
H452   H     0.80206   0.96775   0.12427   0.00000  Uiso   1.00
H453   H     0.97698   0.64119   0.35016   0.00000  Uiso   1.00
H454   H     0.83209   0.87342   0.09048   0.00000  Uiso   1.00
H455   H     0.99464   0.81148   0.13967   0.00000  Uiso   1.00
H456   H     0.77895   0.61080   0.35892   0.00000  Uiso   1.00
H457   H     0.76205   0.67576   0.14481   0.00000  Uiso   1.00
H458   H     0.88276   0.85116   0.37334   0.00000  Uiso   1.00
H459   H     0.72498   0.73852   0.48592   0.00000  Uiso   1.00
H460   H     0.84189   0.83944   0.00339   0.00000  Uiso   1.00
H461   H     0.67432   0.75477   0.30568   0.00000  Uiso   1.00
H462   H     0.75581   0.60944   0.21736   0.00000  Uiso   1.00
H463   H     0.82813   0.88965   0.32388   0.00000  Uiso   1.00
H464   H     0.75472   0.52868   0.21810   0.00000  Uiso   1.00
H465   H     0.83306   0.96970   0.32471   0.00000  Uiso   1.00
H466   H     0.90696   0.77915   0.04204   0.00000  Uiso   1.00
H467   H     0.79910   0.68503   0.46159   0.00000  Uiso   1.00
H468   H     0.96011   0.54362   0.31164   0.00000  Uiso   1.00
N469   N     0.83333   0.75001   0.12934   0.00000  Uiso   1.00
N470   N     0.83333   0.74999   0.37065   0.00000  Uiso   1.00
O471   O     0.83334   0.68572   0.29071   0.00000  Uiso   1.00
O472   O     0.85061   0.51495   0.15476   0.00000  Uiso   1.00
O473   O     0.94906   0.64713   0.26495   0.00000  Uiso   1.00
O474   O     0.94498   0.62112   0.34088   0.00000  Uiso   1.00
O475   O     0.77004   0.86201   0.14576   0.00000  Uiso   1.00
O476   O     0.84413   0.89073   0.12110   0.00000  Uiso   1.00
O477   O     0.91206   0.82177   0.16459   0.00000  Uiso   1.00
O478   O     0.96736   0.79123   0.12052   0.00000  Uiso   1.00
O479   O     0.74480   0.68207   0.33895   0.00000  Uiso   1.00
O480   O     0.80073   0.63453   0.37875   0.00000  Uiso   1.00
O481   O     0.70634   0.71281   0.11307   0.00000  Uiso   1.00
O482   O     0.83333   0.81427   0.20928   0.00000  Uiso   1.00
O483   O     0.93499   0.80618   0.37041   0.00000  Uiso   1.00
O484   O     0.71608   0.68324   0.02355   0.00000  Uiso   1.00
O485   O     0.89791   0.85755   0.46534   0.00000  Uiso   1.00
O486   O     0.83334   0.68573   0.20928   0.00000  Uiso   1.00
O487   O     0.83333   0.81427   0.29072   0.00000  Uiso   1.00
O488   O     0.75828   0.74999   0.28132   0.00000  Uiso   1.00
O489   O     0.90839   0.75000   0.21868   0.00000  Uiso   1.00
O490   O     0.75828   0.75000   0.19988   0.00000  Uiso   1.00
O491   O     0.90839   0.75000   0.30011   0.00000  Uiso   1.00
O492   O     0.93694   0.98989   0.27385   0.00000  Uiso   1.00
C493   C     0.16686   0.16531   0.75032   0.00000  Uiso   1.00
C494   C     0.18433   0.28878   0.94803   0.00000  Uiso   1.00
C495   C     0.16308   0.25085   0.52661   0.00000  Uiso   1.00
C496   C     0.16377   0.25198   0.97221   0.00000  Uiso   1.00
C497   C     0.06799   0.24930   0.73766   0.00000  Uiso   1.00
C498   C     0.26535   0.25027   0.76242   0.00000  Uiso   1.00
C499   C     0.01258   0.24753   0.73119   0.00000  Uiso   1.00
C500   C     0.32079   0.25099   0.76923   0.00000  Uiso   1.00
C501   C     0.21368   0.04936   0.77065   0.00000  Uiso   1.00
C502   C     0.15956   0.45476   0.70304   0.00000  Uiso   1.00
C503   C     0.21323   0.09613   0.77172   0.00000  Uiso   1.00
C504   C     0.16389   0.33506   0.74908   0.00000  Uiso   1.00
C505   C     0.15468   0.40793   0.70229   0.00000  Uiso   1.00
C506   C     0.16834   0.11740   0.75135   0.00000  Uiso   1.00
C507   C     0.15946   0.38380   0.74671   0.00000  Uiso   1.00
C508   C     0.12374   0.09296   0.73231   0.00000  Uiso   1.00
C509   C     0.16168   0.40692   0.79002   0.00000  Uiso   1.00
C510   C     0.12317   0.04721   0.73282   0.00000  Uiso   1.00
C511   C     0.16423   0.45273   0.79059   0.00000  Uiso   1.00
C512   C     0.16773   0.02522   0.75090   0.00000  Uiso   1.00
C513   C     0.16481   0.47675   0.74787   0.00000  Uiso   1.00
C514   C     0.26268   0.02686   0.78760   0.00000  Uiso   1.00
C515   C     0.20662   0.26666   0.55749   0.00000  Uiso   1.00
C516   C     0.15833   0.48028   0.65699   0.00000  Uiso   1.00
C517   C     0.26009   0.12309   0.79163   0.00000  Uiso   1.00
C518   C     0.14320   0.38514   0.65506   0.00000  Uiso   1.00
C519   C     0.25151   0.29493   0.63402   0.00000  Uiso   1.00
C520   C     0.11683   0.17703   0.86798   0.00000  Uiso   1.00
C521   C     0.08502   0.20344   0.62124   0.00000  Uiso   1.00
C522   C     0.22580   0.31690   0.87794   0.00000  Uiso   1.00
C523   C     0.07239   0.21844   0.51690   0.00000  Uiso   1.00
C524   C     0.19671   0.33146   0.97442   0.00000  Uiso   1.00
C525   C     0.14629   0.21464   0.94432   0.00000  Uiso   1.00
C526   C     0.20679   0.26935   0.60764   0.00000  Uiso   1.00
C527   C     0.14395   0.21534   0.89388   0.00000  Uiso   1.00
C528   C     0.12523   0.22976   0.59984   0.00000  Uiso   1.00
C529   C     0.19049   0.28476   0.89832   0.00000  Uiso   1.00
C530   C     0.12092   0.23282   0.54832   0.00000  Uiso   1.00
Cu531  Cu    0.16667   0.24999   0.79821   0.00000  Uiso   1.00
Cu532  Cu    0.16667   0.25000   0.70178   0.00000  Uiso   1.00
H533   H     0.32567   0.24280   0.69501   0.00000  Uiso   1.00
H534   H     0.13539   0.46775   0.62427   0.00000  Uiso   1.00
H535   H     0.31031   0.14119   0.85016   0.00000  Uiso   1.00
H536   H     0.16542   0.37342   0.59048   0.00000  Uiso   1.00
H537   H     0.32797   0.31148   0.63967   0.00000  Uiso   1.00
H538   H     0.11228   0.11080   0.85892   0.00000  Uiso   1.00
H539   H     0.09538   0.17576   0.64481   0.00000  Uiso   1.00
H540   H     0.21609   0.35116   0.87334   0.00000  Uiso   1.00
H541   H     0.05831   0.23852   0.98592   0.00000  Uiso   1.00
H542   H     0.17522   0.33944   0.50339   0.00000  Uiso   1.00
H543   H     0.00765   0.25477   0.80568   0.00000  Uiso   1.00
H544   H     0.08914   0.10944   0.71736   0.00000  Uiso   1.00
H545   H     0.16146   0.38965   0.82388   0.00000  Uiso   1.00
H546   H     0.08805   0.02868   0.71810   0.00000  Uiso   1.00
H547   H     0.16639   0.46970   0.82471   0.00000  Uiso   1.00
H548   H     0.24030   0.27915   0.54204   0.00000  Uiso   1.00
H549   H     0.13243   0.18503   0.96159   0.00000  Uiso   1.00
H550   H     0.29345   0.04362   0.81164   0.00000  Uiso   1.00
N551   N     0.16667   0.25001   0.62934   0.00000  Uiso   1.00
N552   N     0.16667   0.24999   0.87065   0.00000  Uiso   1.00
O553   O     0.16667   0.18572   0.79071   0.00000  Uiso   1.00
O554   O     0.18394   0.01495   0.65476   0.00000  Uiso   1.00
O555   O     0.28240   0.14713   0.76495   0.00000  Uiso   1.00
O556   O     0.27831   0.12112   0.84088   0.00000  Uiso   1.00
O557   O     0.10337   0.36201   0.64576   0.00000  Uiso   1.00
O558   O     0.17746   0.39073   0.62110   0.00000  Uiso   1.00
O559   O     0.24539   0.32177   0.66459   0.00000  Uiso   1.00
O560   O     0.30070   0.29123   0.62052   0.00000  Uiso   1.00
O561   O     0.07814   0.18207   0.83895   0.00000  Uiso   1.00
O562   O     0.13406   0.13453   0.87875   0.00000  Uiso   1.00
O563   O     0.03968   0.21281   0.61307   0.00000  Uiso   1.00
O564   O     0.16666   0.31427   0.70928   0.00000  Uiso   1.00
O565   O     0.26832   0.30618   0.87041   0.00000  Uiso   1.00
O566   O     0.04941   0.18324   0.52355   0.00000  Uiso   1.00
O567   O     0.23124   0.35755   0.96534   0.00000  Uiso   1.00
O568   O     0.16667   0.18573   0.70928   0.00000  Uiso   1.00
O569   O     0.16666   0.31427   0.79072   0.00000  Uiso   1.00
O570   O     0.09161   0.24999   0.78132   0.00000  Uiso   1.00
O571   O     0.24172   0.25000   0.71868   0.00000  Uiso   1.00
O572   O     0.09161   0.25000   0.69988   0.00000  Uiso   1.00
O573   O     0.24172   0.25000   0.80011   0.00000  Uiso   1.00
O574   O     0.27027   0.48989   0.77385   0.00000  Uiso   1.00
C575   C     0.50019   0.16531   0.75032   0.00000  Uiso   1.00
C576   C     0.51767   0.28878   0.94803   0.00000  Uiso   1.00
C577   C     0.49641   0.25085   0.52661   0.00000  Uiso   1.00
C578   C     0.49710   0.25198   0.97221   0.00000  Uiso   1.00
C579   C     0.40133   0.24930   0.73766   0.00000  Uiso   1.00
C580   C     0.59868   0.25027   0.76242   0.00000  Uiso   1.00
C581   C     0.34591   0.24753   0.73119   0.00000  Uiso   1.00
C582   C     0.65412   0.25099   0.76923   0.00000  Uiso   1.00
C583   C     0.54701   0.04936   0.77065   0.00000  Uiso   1.00
C584   C     0.49289   0.45476   0.70304   0.00000  Uiso   1.00
C585   C     0.54657   0.09613   0.77172   0.00000  Uiso   1.00
C586   C     0.49723   0.33506   0.74908   0.00000  Uiso   1.00
C587   C     0.48801   0.40793   0.70229   0.00000  Uiso   1.00
C588   C     0.50167   0.11740   0.75135   0.00000  Uiso   1.00
C589   C     0.49280   0.38380   0.74671   0.00000  Uiso   1.00
C590   C     0.45708   0.09296   0.73231   0.00000  Uiso   1.00
C591   C     0.49501   0.40692   0.79002   0.00000  Uiso   1.00
C592   C     0.45650   0.04721   0.73282   0.00000  Uiso   1.00
C593   C     0.49756   0.45273   0.79059   0.00000  Uiso   1.00
C594   C     0.50106   0.02522   0.75090   0.00000  Uiso   1.00
C595   C     0.49814   0.47675   0.74787   0.00000  Uiso   1.00
C596   C     0.59602   0.02686   0.78760   0.00000  Uiso   1.00
C597   C     0.53996   0.26666   0.55749   0.00000  Uiso   1.00
C598   C     0.49166   0.48028   0.65699   0.00000  Uiso   1.00
C599   C     0.59343   0.12309   0.79163   0.00000  Uiso   1.00
C600   C     0.47653   0.38514   0.65506   0.00000  Uiso   1.00
C601   C     0.58484   0.29493   0.63402   0.00000  Uiso   1.00
C602   C     0.45017   0.17703   0.86798   0.00000  Uiso   1.00
C603   C     0.41835   0.20344   0.62124   0.00000  Uiso   1.00
C604   C     0.55913   0.31690   0.87794   0.00000  Uiso   1.00
C605   C     0.40572   0.21844   0.51690   0.00000  Uiso   1.00
C606   C     0.53004   0.33146   0.97442   0.00000  Uiso   1.00
C607   C     0.47963   0.21464   0.94432   0.00000  Uiso   1.00
C608   C     0.54012   0.26935   0.60764   0.00000  Uiso   1.00
C609   C     0.47729   0.21534   0.89388   0.00000  Uiso   1.00
C610   C     0.45856   0.22976   0.59984   0.00000  Uiso   1.00
C611   C     0.52383   0.28476   0.89832   0.00000  Uiso   1.00
C612   C     0.45426   0.23282   0.54832   0.00000  Uiso   1.00
Cu613  Cu    0.50000   0.24999   0.79821   0.00000  Uiso   1.00
Cu614  Cu    0.50000   0.25000   0.70178   0.00000  Uiso   1.00
H615   H     0.65900   0.24280   0.69501   0.00000  Uiso   1.00
H616   H     0.46872   0.46775   0.62427   0.00000  Uiso   1.00
H617   H     0.64364   0.14119   0.85016   0.00000  Uiso   1.00
H618   H     0.49875   0.37342   0.59048   0.00000  Uiso   1.00
H619   H     0.66131   0.31148   0.63967   0.00000  Uiso   1.00
H620   H     0.44562   0.11080   0.85892   0.00000  Uiso   1.00
H621   H     0.42871   0.17576   0.64481   0.00000  Uiso   1.00
H622   H     0.54943   0.35116   0.87334   0.00000  Uiso   1.00
H623   H     0.39165   0.23852   0.98592   0.00000  Uiso   1.00
H624   H     0.50856   0.33944   0.50339   0.00000  Uiso   1.00
H625   H     0.34099   0.25477   0.80568   0.00000  Uiso   1.00
H626   H     0.42247   0.10944   0.71736   0.00000  Uiso   1.00
H627   H     0.49480   0.38965   0.82388   0.00000  Uiso   1.00
H628   H     0.42138   0.02868   0.71810   0.00000  Uiso   1.00
H629   H     0.49972   0.46970   0.82471   0.00000  Uiso   1.00
H630   H     0.57363   0.27915   0.54204   0.00000  Uiso   1.00
H631   H     0.46577   0.18503   0.96159   0.00000  Uiso   1.00
H632   H     0.62678   0.04362   0.81164   0.00000  Uiso   1.00
N633   N     0.50000   0.25001   0.62934   0.00000  Uiso   1.00
N634   N     0.50000   0.24999   0.87065   0.00000  Uiso   1.00
O635   O     0.50000   0.18572   0.79071   0.00000  Uiso   1.00
O636   O     0.51728   0.01495   0.65476   0.00000  Uiso   1.00
O637   O     0.61573   0.14713   0.76495   0.00000  Uiso   1.00
O638   O     0.61164   0.12112   0.84088   0.00000  Uiso   1.00
O639   O     0.43670   0.36201   0.64576   0.00000  Uiso   1.00
O640   O     0.51080   0.39073   0.62110   0.00000  Uiso   1.00
O641   O     0.57872   0.32177   0.66459   0.00000  Uiso   1.00
O642   O     0.63403   0.29123   0.62052   0.00000  Uiso   1.00
O643   O     0.41147   0.18207   0.83895   0.00000  Uiso   1.00
O644   O     0.46740   0.13453   0.87875   0.00000  Uiso   1.00
O645   O     0.37301   0.21281   0.61307   0.00000  Uiso   1.00
O646   O     0.50000   0.31427   0.70928   0.00000  Uiso   1.00
O647   O     0.60166   0.30618   0.87041   0.00000  Uiso   1.00
O648   O     0.38274   0.18324   0.52355   0.00000  Uiso   1.00
O649   O     0.56457   0.35755   0.96534   0.00000  Uiso   1.00
O650   O     0.50000   0.18573   0.70928   0.00000  Uiso   1.00
O651   O     0.50000   0.31427   0.79072   0.00000  Uiso   1.00
O652   O     0.42495   0.24999   0.78132   0.00000  Uiso   1.00
O653   O     0.57505   0.25000   0.71868   0.00000  Uiso   1.00
O654   O     0.42495   0.25000   0.69988   0.00000  Uiso   1.00
O655   O     0.57505   0.25000   0.80011   0.00000  Uiso   1.00
O656   O     0.60360   0.48989   0.77385   0.00000  Uiso   1.00
C657   C     0.83352   0.16531   0.75032   0.00000  Uiso   1.00
C658   C     0.85100   0.28878   0.94803   0.00000  Uiso   1.00
C659   C     0.82975   0.25085   0.52661   0.00000  Uiso   1.00
C660   C     0.83043   0.25198   0.97221   0.00000  Uiso   1.00
C661   C     0.73466   0.24930   0.73766   0.00000  Uiso   1.00
C662   C     0.93201   0.25027   0.76242   0.00000  Uiso   1.00
C663   C     0.67924   0.24753   0.73119   0.00000  Uiso   1.00
C664   C     0.98746   0.25099   0.76923   0.00000  Uiso   1.00
C665   C     0.88035   0.04936   0.77065   0.00000  Uiso   1.00
C666   C     0.82622   0.45476   0.70304   0.00000  Uiso   1.00
C667   C     0.87990   0.09613   0.77172   0.00000  Uiso   1.00
C668   C     0.83056   0.33506   0.74908   0.00000  Uiso   1.00
C669   C     0.82135   0.40793   0.70229   0.00000  Uiso   1.00
C670   C     0.83500   0.11740   0.75135   0.00000  Uiso   1.00
C671   C     0.82613   0.38380   0.74671   0.00000  Uiso   1.00
C672   C     0.79041   0.09296   0.73231   0.00000  Uiso   1.00
C673   C     0.82835   0.40692   0.79002   0.00000  Uiso   1.00
C674   C     0.78983   0.04721   0.73282   0.00000  Uiso   1.00
C675   C     0.83089   0.45273   0.79059   0.00000  Uiso   1.00
C676   C     0.83440   0.02522   0.75090   0.00000  Uiso   1.00
C677   C     0.83148   0.47675   0.74787   0.00000  Uiso   1.00
C678   C     0.92935   0.02686   0.78760   0.00000  Uiso   1.00
C679   C     0.87329   0.26666   0.55749   0.00000  Uiso   1.00
C680   C     0.82499   0.48028   0.65699   0.00000  Uiso   1.00
C681   C     0.92676   0.12309   0.79163   0.00000  Uiso   1.00
C682   C     0.80987   0.38514   0.65506   0.00000  Uiso   1.00
C683   C     0.91817   0.29493   0.63402   0.00000  Uiso   1.00
C684   C     0.78350   0.17703   0.86798   0.00000  Uiso   1.00
C685   C     0.75168   0.20344   0.62124   0.00000  Uiso   1.00
C686   C     0.89247   0.31690   0.87794   0.00000  Uiso   1.00
C687   C     0.73905   0.21844   0.51690   0.00000  Uiso   1.00
C688   C     0.86337   0.33146   0.97442   0.00000  Uiso   1.00
C689   C     0.81296   0.21464   0.94432   0.00000  Uiso   1.00
C690   C     0.87346   0.26935   0.60764   0.00000  Uiso   1.00
C691   C     0.81062   0.21534   0.89388   0.00000  Uiso   1.00
C692   C     0.79190   0.22976   0.59984   0.00000  Uiso   1.00
C693   C     0.85716   0.28476   0.89832   0.00000  Uiso   1.00
C694   C     0.78759   0.23282   0.54832   0.00000  Uiso   1.00
Cu695  Cu    0.83333   0.24999   0.79821   0.00000  Uiso   1.00
Cu696  Cu    0.83333   0.25000   0.70178   0.00000  Uiso   1.00
H697   H     0.99234   0.24280   0.69501   0.00000  Uiso   1.00
H698   H     0.80206   0.46775   0.62427   0.00000  Uiso   1.00
H699   H     0.97698   0.14119   0.85016   0.00000  Uiso   1.00
H700   H     0.83209   0.37342   0.59048   0.00000  Uiso   1.00
H701   H     0.99464   0.31148   0.63967   0.00000  Uiso   1.00
H702   H     0.77895   0.11080   0.85892   0.00000  Uiso   1.00
H703   H     0.76205   0.17576   0.64481   0.00000  Uiso   1.00
H704   H     0.88276   0.35116   0.87334   0.00000  Uiso   1.00
H705   H     0.72498   0.23852   0.98592   0.00000  Uiso   1.00
H706   H     0.84189   0.33944   0.50339   0.00000  Uiso   1.00
H707   H     0.67432   0.25477   0.80568   0.00000  Uiso   1.00
H708   H     0.75581   0.10944   0.71736   0.00000  Uiso   1.00
H709   H     0.82813   0.38965   0.82388   0.00000  Uiso   1.00
H710   H     0.75472   0.02868   0.71810   0.00000  Uiso   1.00
H711   H     0.83306   0.46970   0.82471   0.00000  Uiso   1.00
H712   H     0.90696   0.27915   0.54204   0.00000  Uiso   1.00
H713   H     0.79910   0.18503   0.96159   0.00000  Uiso   1.00
H714   H     0.96011   0.04362   0.81164   0.00000  Uiso   1.00
N715   N     0.83333   0.25001   0.62934   0.00000  Uiso   1.00
N716   N     0.83333   0.24999   0.87065   0.00000  Uiso   1.00
O717   O     0.83334   0.18572   0.79071   0.00000  Uiso   1.00
O718   O     0.85061   0.01495   0.65476   0.00000  Uiso   1.00
O719   O     0.94906   0.14713   0.76495   0.00000  Uiso   1.00
O720   O     0.94498   0.12112   0.84088   0.00000  Uiso   1.00
O721   O     0.77004   0.36201   0.64576   0.00000  Uiso   1.00
O722   O     0.84413   0.39073   0.62110   0.00000  Uiso   1.00
O723   O     0.91206   0.32177   0.66459   0.00000  Uiso   1.00
O724   O     0.96736   0.29123   0.62052   0.00000  Uiso   1.00
O725   O     0.74480   0.18207   0.83895   0.00000  Uiso   1.00
O726   O     0.80073   0.13453   0.87875   0.00000  Uiso   1.00
O727   O     0.70634   0.21281   0.61307   0.00000  Uiso   1.00
O728   O     0.83333   0.31427   0.70928   0.00000  Uiso   1.00
O729   O     0.93499   0.30618   0.87041   0.00000  Uiso   1.00
O730   O     0.71608   0.18324   0.52355   0.00000  Uiso   1.00
O731   O     0.89791   0.35755   0.96534   0.00000  Uiso   1.00
O732   O     0.83334   0.18573   0.70928   0.00000  Uiso   1.00
O733   O     0.83333   0.31427   0.79072   0.00000  Uiso   1.00
O734   O     0.75828   0.24999   0.78132   0.00000  Uiso   1.00
O735   O     0.90839   0.25000   0.71868   0.00000  Uiso   1.00
O736   O     0.75828   0.25000   0.69988   0.00000  Uiso   1.00
O737   O     0.90839   0.25000   0.80011   0.00000  Uiso   1.00
O738   O     0.93694   0.48989   0.77385   0.00000  Uiso   1.00
C739   C     0.16686   0.66531   0.75032   0.00000  Uiso   1.00
C740   C     0.18433   0.78878   0.94803   0.00000  Uiso   1.00
C741   C     0.16308   0.75085   0.52661   0.00000  Uiso   1.00
C742   C     0.16377   0.75198   0.97221   0.00000  Uiso   1.00
C743   C     0.06799   0.74930   0.73766   0.00000  Uiso   1.00
C744   C     0.26535   0.75027   0.76242   0.00000  Uiso   1.00
C745   C     0.01258   0.74753   0.73119   0.00000  Uiso   1.00
C746   C     0.32079   0.75099   0.76923   0.00000  Uiso   1.00
C747   C     0.21368   0.54936   0.77065   0.00000  Uiso   1.00
C748   C     0.15956   0.95476   0.70304   0.00000  Uiso   1.00
C749   C     0.21323   0.59613   0.77172   0.00000  Uiso   1.00
C750   C     0.16389   0.83506   0.74908   0.00000  Uiso   1.00
C751   C     0.15468   0.90793   0.70229   0.00000  Uiso   1.00
C752   C     0.16834   0.61740   0.75135   0.00000  Uiso   1.00
C753   C     0.15946   0.88380   0.74671   0.00000  Uiso   1.00
C754   C     0.12374   0.59296   0.73231   0.00000  Uiso   1.00
C755   C     0.16168   0.90692   0.79002   0.00000  Uiso   1.00
C756   C     0.12317   0.54721   0.73282   0.00000  Uiso   1.00
C757   C     0.16423   0.95273   0.79059   0.00000  Uiso   1.00
C758   C     0.16773   0.52522   0.75090   0.00000  Uiso   1.00
C759   C     0.16481   0.97675   0.74787   0.00000  Uiso   1.00
C760   C     0.26268   0.52686   0.78760   0.00000  Uiso   1.00
C761   C     0.20662   0.76666   0.55749   0.00000  Uiso   1.00
C762   C     0.15833   0.98028   0.65699   0.00000  Uiso   1.00
C763   C     0.26009   0.62309   0.79163   0.00000  Uiso   1.00
C764   C     0.14320   0.88514   0.65506   0.00000  Uiso   1.00
C765   C     0.25151   0.79493   0.63402   0.00000  Uiso   1.00
C766   C     0.11683   0.67703   0.86798   0.00000  Uiso   1.00
C767   C     0.08502   0.70344   0.62124   0.00000  Uiso   1.00
C768   C     0.22580   0.81690   0.87794   0.00000  Uiso   1.00
C769   C     0.07239   0.71844   0.51690   0.00000  Uiso   1.00
C770   C     0.19671   0.83146   0.97442   0.00000  Uiso   1.00
C771   C     0.14629   0.71464   0.94432   0.00000  Uiso   1.00
C772   C     0.20679   0.76935   0.60764   0.00000  Uiso   1.00
C773   C     0.14395   0.71534   0.89388   0.00000  Uiso   1.00
C774   C     0.12523   0.72976   0.59984   0.00000  Uiso   1.00
C775   C     0.19049   0.78476   0.89832   0.00000  Uiso   1.00
C776   C     0.12092   0.73282   0.54832   0.00000  Uiso   1.00
Cu777  Cu    0.16667   0.74999   0.79821   0.00000  Uiso   1.00
Cu778  Cu    0.16667   0.75000   0.70178   0.00000  Uiso   1.00
H779   H     0.32567   0.74280   0.69501   0.00000  Uiso   1.00
H780   H     0.13539   0.96775   0.62427   0.00000  Uiso   1.00
H781   H     0.31031   0.64119   0.85016   0.00000  Uiso   1.00
H782   H     0.16542   0.87342   0.59048   0.00000  Uiso   1.00
H783   H     0.32797   0.81148   0.63967   0.00000  Uiso   1.00
H784   H     0.11228   0.61080   0.85892   0.00000  Uiso   1.00
H785   H     0.09538   0.67576   0.64481   0.00000  Uiso   1.00
H786   H     0.21609   0.85116   0.87334   0.00000  Uiso   1.00
H787   H     0.05831   0.73852   0.98592   0.00000  Uiso   1.00
H788   H     0.17522   0.83944   0.50339   0.00000  Uiso   1.00
H789   H     0.00765   0.75477   0.80568   0.00000  Uiso   1.00
H790   H     0.08914   0.60944   0.71736   0.00000  Uiso   1.00
H791   H     0.16146   0.88965   0.82388   0.00000  Uiso   1.00
H792   H     0.08805   0.52868   0.71810   0.00000  Uiso   1.00
H793   H     0.16639   0.96970   0.82471   0.00000  Uiso   1.00
H794   H     0.24030   0.77915   0.54204   0.00000  Uiso   1.00
H795   H     0.13243   0.68503   0.96159   0.00000  Uiso   1.00
H796   H     0.29345   0.54362   0.81164   0.00000  Uiso   1.00
N797   N     0.16667   0.75001   0.62934   0.00000  Uiso   1.00
N798   N     0.16667   0.74999   0.87065   0.00000  Uiso   1.00
O799   O     0.16667   0.68572   0.79071   0.00000  Uiso   1.00
O800   O     0.18394   0.51495   0.65476   0.00000  Uiso   1.00
O801   O     0.28240   0.64713   0.76495   0.00000  Uiso   1.00
O802   O     0.27831   0.62112   0.84088   0.00000  Uiso   1.00
O803   O     0.10337   0.86201   0.64576   0.00000  Uiso   1.00
O804   O     0.17746   0.89073   0.62110   0.00000  Uiso   1.00
O805   O     0.24539   0.82177   0.66459   0.00000  Uiso   1.00
O806   O     0.30070   0.79123   0.62052   0.00000  Uiso   1.00
O807   O     0.07814   0.68207   0.83895   0.00000  Uiso   1.00
O808   O     0.13406   0.63453   0.87875   0.00000  Uiso   1.00
O809   O     0.03968   0.71281   0.61307   0.00000  Uiso   1.00
O810   O     0.16666   0.81427   0.70928   0.00000  Uiso   1.00
O811   O     0.26832   0.80618   0.87041   0.00000  Uiso   1.00
O812   O     0.04941   0.68324   0.52355   0.00000  Uiso   1.00
O813   O     0.23124   0.85755   0.96534   0.00000  Uiso   1.00
O814   O     0.16667   0.68573   0.70928   0.00000  Uiso   1.00
O815   O     0.16666   0.81427   0.79072   0.00000  Uiso   1.00
O816   O     0.09161   0.74999   0.78132   0.00000  Uiso   1.00
O817   O     0.24172   0.75000   0.71868   0.00000  Uiso   1.00
O818   O     0.09161   0.75000   0.69988   0.00000  Uiso   1.00
O819   O     0.24172   0.75000   0.80011   0.00000  Uiso   1.00
O820   O     0.27027   0.98989   0.77385   0.00000  Uiso   1.00
C821   C     0.50019   0.66531   0.75032   0.00000  Uiso   1.00
C822   C     0.51767   0.78878   0.94803   0.00000  Uiso   1.00
C823   C     0.49641   0.75085   0.52661   0.00000  Uiso   1.00
C824   C     0.49710   0.75198   0.97221   0.00000  Uiso   1.00
C825   C     0.40133   0.74930   0.73766   0.00000  Uiso   1.00
C826   C     0.59868   0.75027   0.76242   0.00000  Uiso   1.00
C827   C     0.34591   0.74753   0.73119   0.00000  Uiso   1.00
C828   C     0.65412   0.75099   0.76923   0.00000  Uiso   1.00
C829   C     0.54701   0.54936   0.77065   0.00000  Uiso   1.00
C830   C     0.49289   0.95476   0.70304   0.00000  Uiso   1.00
C831   C     0.54657   0.59613   0.77172   0.00000  Uiso   1.00
C832   C     0.49723   0.83506   0.74908   0.00000  Uiso   1.00
C833   C     0.48801   0.90793   0.70229   0.00000  Uiso   1.00
C834   C     0.50167   0.61740   0.75135   0.00000  Uiso   1.00
C835   C     0.49280   0.88380   0.74671   0.00000  Uiso   1.00
C836   C     0.45708   0.59296   0.73231   0.00000  Uiso   1.00
C837   C     0.49501   0.90692   0.79002   0.00000  Uiso   1.00
C838   C     0.45650   0.54721   0.73282   0.00000  Uiso   1.00
C839   C     0.49756   0.95273   0.79059   0.00000  Uiso   1.00
C840   C     0.50106   0.52522   0.75090   0.00000  Uiso   1.00
C841   C     0.49814   0.97675   0.74787   0.00000  Uiso   1.00
C842   C     0.59602   0.52686   0.78760   0.00000  Uiso   1.00
C843   C     0.53996   0.76666   0.55749   0.00000  Uiso   1.00
C844   C     0.49166   0.98028   0.65699   0.00000  Uiso   1.00
C845   C     0.59343   0.62309   0.79163   0.00000  Uiso   1.00
C846   C     0.47653   0.88514   0.65506   0.00000  Uiso   1.00
C847   C     0.58484   0.79493   0.63402   0.00000  Uiso   1.00
C848   C     0.45017   0.67703   0.86798   0.00000  Uiso   1.00
C849   C     0.41835   0.70344   0.62124   0.00000  Uiso   1.00
C850   C     0.55913   0.81690   0.87794   0.00000  Uiso   1.00
C851   C     0.40572   0.71844   0.51690   0.00000  Uiso   1.00
C852   C     0.53004   0.83146   0.97442   0.00000  Uiso   1.00
C853   C     0.47963   0.71464   0.94432   0.00000  Uiso   1.00
C854   C     0.54012   0.76935   0.60764   0.00000  Uiso   1.00
C855   C     0.47729   0.71534   0.89388   0.00000  Uiso   1.00
C856   C     0.45856   0.72976   0.59984   0.00000  Uiso   1.00
C857   C     0.52383   0.78476   0.89832   0.00000  Uiso   1.00
C858   C     0.45426   0.73282   0.54832   0.00000  Uiso   1.00
Cu859  Cu    0.50000   0.74999   0.79821   0.00000  Uiso   1.00
Cu860  Cu    0.50000   0.75000   0.70178   0.00000  Uiso   1.00
H861   H     0.65900   0.74280   0.69501   0.00000  Uiso   1.00
H862   H     0.46872   0.96775   0.62427   0.00000  Uiso   1.00
H863   H     0.64364   0.64119   0.85016   0.00000  Uiso   1.00
H864   H     0.49875   0.87342   0.59048   0.00000  Uiso   1.00
H865   H     0.66131   0.81148   0.63967   0.00000  Uiso   1.00
H866   H     0.44562   0.61080   0.85892   0.00000  Uiso   1.00
H867   H     0.42871   0.67576   0.64481   0.00000  Uiso   1.00
H868   H     0.54943   0.85116   0.87334   0.00000  Uiso   1.00
H869   H     0.39165   0.73852   0.98592   0.00000  Uiso   1.00
H870   H     0.50856   0.83944   0.50339   0.00000  Uiso   1.00
H871   H     0.34099   0.75477   0.80568   0.00000  Uiso   1.00
H872   H     0.42247   0.60944   0.71736   0.00000  Uiso   1.00
H873   H     0.49480   0.88965   0.82388   0.00000  Uiso   1.00
H874   H     0.42138   0.52868   0.71810   0.00000  Uiso   1.00
H875   H     0.49972   0.96970   0.82471   0.00000  Uiso   1.00
H876   H     0.57363   0.77915   0.54204   0.00000  Uiso   1.00
H877   H     0.46577   0.68503   0.96159   0.00000  Uiso   1.00
H878   H     0.62678   0.54362   0.81164   0.00000  Uiso   1.00
N879   N     0.50000   0.75001   0.62934   0.00000  Uiso   1.00
N880   N     0.50000   0.74999   0.87065   0.00000  Uiso   1.00
O881   O     0.50000   0.68572   0.79071   0.00000  Uiso   1.00
O882   O     0.51728   0.51495   0.65476   0.00000  Uiso   1.00
O883   O     0.61573   0.64713   0.76495   0.00000  Uiso   1.00
O884   O     0.61164   0.62112   0.84088   0.00000  Uiso   1.00
O885   O     0.43670   0.86201   0.64576   0.00000  Uiso   1.00
O886   O     0.51080   0.89073   0.62110   0.00000  Uiso   1.00
O887   O     0.57872   0.82177   0.66459   0.00000  Uiso   1.00
O888   O     0.63403   0.79123   0.62052   0.00000  Uiso   1.00
O889   O     0.41147   0.68207   0.83895   0.00000  Uiso   1.00
O890   O     0.46740   0.63453   0.87875   0.00000  Uiso   1.00
O891   O     0.37301   0.71281   0.61307   0.00000  Uiso   1.00
O892   O     0.50000   0.81427   0.70928   0.00000  Uiso   1.00
O893   O     0.60166   0.80618   0.87041   0.00000  Uiso   1.00
O894   O     0.38274   0.68324   0.52355   0.00000  Uiso   1.00
O895   O     0.56457   0.85755   0.96534   0.00000  Uiso   1.00
O896   O     0.50000   0.68573   0.70928   0.00000  Uiso   1.00
O897   O     0.50000   0.81427   0.79072   0.00000  Uiso   1.00
O898   O     0.42495   0.74999   0.78132   0.00000  Uiso   1.00
O899   O     0.57505   0.75000   0.71868   0.00000  Uiso   1.00
O900   O     0.42495   0.75000   0.69988   0.00000  Uiso   1.00
O901   O     0.57505   0.75000   0.80011   0.00000  Uiso   1.00
O902   O     0.60360   0.98989   0.77385   0.00000  Uiso   1.00
C903   C     0.83352   0.66531   0.75032   0.00000  Uiso   1.00
C904   C     0.85100   0.78878   0.94803   0.00000  Uiso   1.00
C905   C     0.82975   0.75085   0.52661   0.00000  Uiso   1.00
C906   C     0.83043   0.75198   0.97221   0.00000  Uiso   1.00
C907   C     0.73466   0.74930   0.73766   0.00000  Uiso   1.00
C908   C     0.93201   0.75027   0.76242   0.00000  Uiso   1.00
C909   C     0.67924   0.74753   0.73119   0.00000  Uiso   1.00
C910   C     0.98746   0.75099   0.76923   0.00000  Uiso   1.00
C911   C     0.88035   0.54936   0.77065   0.00000  Uiso   1.00
C912   C     0.82622   0.95476   0.70304   0.00000  Uiso   1.00
C913   C     0.87990   0.59613   0.77172   0.00000  Uiso   1.00
C914   C     0.83056   0.83506   0.74908   0.00000  Uiso   1.00
C915   C     0.82135   0.90793   0.70229   0.00000  Uiso   1.00
C916   C     0.83500   0.61740   0.75135   0.00000  Uiso   1.00
C917   C     0.82613   0.88380   0.74671   0.00000  Uiso   1.00
C918   C     0.79041   0.59296   0.73231   0.00000  Uiso   1.00
C919   C     0.82835   0.90692   0.79002   0.00000  Uiso   1.00
C920   C     0.78983   0.54721   0.73282   0.00000  Uiso   1.00
C921   C     0.83089   0.95273   0.79059   0.00000  Uiso   1.00
C922   C     0.83440   0.52522   0.75090   0.00000  Uiso   1.00
C923   C     0.83148   0.97675   0.74787   0.00000  Uiso   1.00
C924   C     0.92935   0.52686   0.78760   0.00000  Uiso   1.00
C925   C     0.87329   0.76666   0.55749   0.00000  Uiso   1.00
C926   C     0.82499   0.98028   0.65699   0.00000  Uiso   1.00
C927   C     0.92676   0.62309   0.79163   0.00000  Uiso   1.00
C928   C     0.80987   0.88514   0.65506   0.00000  Uiso   1.00
C929   C     0.91817   0.79493   0.63402   0.00000  Uiso   1.00
C930   C     0.78350   0.67703   0.86798   0.00000  Uiso   1.00
C931   C     0.75168   0.70344   0.62124   0.00000  Uiso   1.00
C932   C     0.89247   0.81690   0.87794   0.00000  Uiso   1.00
C933   C     0.73905   0.71844   0.51690   0.00000  Uiso   1.00
C934   C     0.86337   0.83146   0.97442   0.00000  Uiso   1.00
C935   C     0.81296   0.71464   0.94432   0.00000  Uiso   1.00
C936   C     0.87346   0.76935   0.60764   0.00000  Uiso   1.00
C937   C     0.81062   0.71534   0.89388   0.00000  Uiso   1.00
C938   C     0.79190   0.72976   0.59984   0.00000  Uiso   1.00
C939   C     0.85716   0.78476   0.89832   0.00000  Uiso   1.00
C940   C     0.78759   0.73282   0.54832   0.00000  Uiso   1.00
Cu941  Cu    0.83333   0.74999   0.79821   0.00000  Uiso   1.00
Cu942  Cu    0.83333   0.75000   0.70178   0.00000  Uiso   1.00
H943   H     0.99234   0.74280   0.69501   0.00000  Uiso   1.00
H944   H     0.80206   0.96775   0.62427   0.00000  Uiso   1.00
H945   H     0.97698   0.64119   0.85016   0.00000  Uiso   1.00
H946   H     0.83209   0.87342   0.59048   0.00000  Uiso   1.00
H947   H     0.99464   0.81148   0.63967   0.00000  Uiso   1.00
H948   H     0.77895   0.61080   0.85892   0.00000  Uiso   1.00
H949   H     0.76205   0.67576   0.64481   0.00000  Uiso   1.00
H950   H     0.88276   0.85116   0.87334   0.00000  Uiso   1.00
H951   H     0.72498   0.73852   0.98592   0.00000  Uiso   1.00
H952   H     0.84189   0.83944   0.50339   0.00000  Uiso   1.00
H953   H     0.67432   0.75477   0.80568   0.00000  Uiso   1.00
H954   H     0.75581   0.60944   0.71736   0.00000  Uiso   1.00
H955   H     0.82813   0.88965   0.82388   0.00000  Uiso   1.00
H956   H     0.75472   0.52868   0.71810   0.00000  Uiso   1.00
H957   H     0.83306   0.96970   0.82471   0.00000  Uiso   1.00
H958   H     0.90696   0.77915   0.54204   0.00000  Uiso   1.00
H959   H     0.79910   0.68503   0.96159   0.00000  Uiso   1.00
H960   H     0.96011   0.54362   0.81164   0.00000  Uiso   1.00
N961   N     0.83333   0.75001   0.62934   0.00000  Uiso   1.00
N962   N     0.83333   0.74999   0.87065   0.00000  Uiso   1.00
O963   O     0.83334   0.68572   0.79071   0.00000  Uiso   1.00
O964   O     0.85061   0.51495   0.65476   0.00000  Uiso   1.00
O965   O     0.94906   0.64713   0.76495   0.00000  Uiso   1.00
O966   O     0.94498   0.62112   0.84088   0.00000  Uiso   1.00
O967   O     0.77004   0.86201   0.64576   0.00000  Uiso   1.00
O968   O     0.84413   0.89073   0.62110   0.00000  Uiso   1.00
O969   O     0.91206   0.82177   0.66459   0.00000  Uiso   1.00
O970   O     0.96736   0.79123   0.62052   0.00000  Uiso   1.00
O971   O     0.74480   0.68207   0.83895   0.00000  Uiso   1.00
O972   O     0.80073   0.63453   0.87875   0.00000  Uiso   1.00
O973   O     0.70634   0.71281   0.61307   0.00000  Uiso   1.00
O974   O     0.83333   0.81427   0.70928   0.00000  Uiso   1.00
O975   O     0.93499   0.80618   0.87041   0.00000  Uiso   1.00
O976   O     0.71608   0.68324   0.52355   0.00000  Uiso   1.00
O977   O     0.89791   0.85755   0.96534   0.00000  Uiso   1.00
O978   O     0.83334   0.68573   0.70928   0.00000  Uiso   1.00
O979   O     0.83333   0.81427   0.79072   0.00000  Uiso   1.00
O980   O     0.75828   0.74999   0.78132   0.00000  Uiso   1.00
O981   O     0.90839   0.75000   0.71868   0.00000  Uiso   1.00
O982   O     0.75828   0.75000   0.69988   0.00000  Uiso   1.00
O983   O     0.90839   0.75000   0.80011   0.00000  Uiso   1.00
O984   O     0.93694   0.98989   0.77385   0.00000  Uiso   1.00
loop_
_geom_bond_atom_site_label_1
_geom_bond_atom_site_label_2
_geom_bond_distance
_geom_bond_site_symmetry_2
_ccdc_geom_bond_type
C1     O76     1.298   .     A
C1     O61     1.296   .     A
C1     C14     1.451   .     S
C2     C32     1.494   .     S
C2     C4      1.418   .     A
C2     C37     1.432   .     A
C3     C23     1.398   .     A
C3     C38     1.414   .     A
C3     C496    1.527   1_554 S
C4     C33     1.401   .     A
C4     C495    1.527   .     S
C5     C7      1.432   .     S
C5     O80     1.297   .     A
C5     O78     1.291   .     A
C6     O81     1.296   .     A
C6     C8      1.434   .     S
C6     O79     1.293   .     A
C7     C172    1.335   1_455 S
C7     H205    1.084   1_455 S
C8     C89     1.335   .     S
C8     H133    1.087   .     S
C9     C22     1.495   .     S
C9     C20     1.421   .     A
C9     C11     1.415   .     A
C10    C21     1.415   .     A
C10    C24     1.493   .     S
C10    C13     1.415   .     A
C11    C14     1.412   .     A
C11    C25     1.482   .     S
C12    O72     1.299   .     A
C12    C15     1.483   .     S
C12    O77     1.313   .     A
C13    C15     1.429   .     A
C13    C26     1.486   .     S
C14    C16     1.392   .     A
C15    C17     1.400   .     A
C16    C18     1.382   .     A
C16    H52     1.084   .     S
C17    C19     1.383   .     A
C17    H53     1.078   .     S
C18    C20     1.399   .     A
C18    H54     1.084   .     S
C19    C21     1.394   .     A
C19    H55     1.084   .     S
C20    C267    1.466   1_545 S
C21    C266    1.466   .     S
C22    H58     1.083   .     S
C22    O328    1.221   1_545 S
C23    H56     1.083   .     S
C23    C34     1.408   .     A
C24    H42     1.085   .     S
C24    O308    1.221   .     S
C25    O63     1.222   .     D
C25    O64     1.397   .     S
C26    O66     1.398   .     S
C26    O65     1.223   .     D
C27    O68     1.399   .     S
C27    C34     1.481   .     S
C27    O67     1.219   .     D
C28    O69     1.221   .     D
C28    O70     1.398   .     S
C28    C35     1.471   .     S
C29    C36     1.476   .     S
C29    H47     1.081   .     S
C29    O71     1.221   .     D
C30    H48     1.080   .     S
C30    O73     1.219   .     D
C30    C37     1.472   .     S
C31    O74     1.221   .     D
C31    C38     1.489   .     S
C31    H541    1.085   1_554 S
C32    O75     1.220   .     D
C32    H542    1.085   .     S
C33    H57     1.083   .     S
C33    C35     1.406   .     A
C34    N59     1.385   .     A
C35    N60     1.379   .     A
C36    N59     1.388   .     A
C36    C38     1.435   .     A
C37    N60     1.383   .     A
Cu39   O61     1.957   .     S
Cu39   O78     1.952   .     S
Cu39   O81     1.954   .     S
Cu39   Cu40    2.703   .     S
Cu39   N60     2.030   .     S
Cu39   O77     1.952   .     S
Cu40   O80     1.954   .     S
Cu40   O76     1.952   .     S
Cu40   O79     1.952   .     S
Cu40   O72     1.957   .     S
Cu40   N59     2.030   .     S
H41    C89     1.084   .     S
H43    O64     1.014   .     S
H44    O66     1.014   .     S
H45    O68     1.014   .     S
H46    O70     1.014   .     S
H49    C523    1.085   .     S
H50    C524    1.085   1_554 S
H51    C172    1.087   1_455 S
O62    C270    1.221   1_545 S
O82    C268    1.221   .     S
C83    O158    1.298   .     A
C83    O143    1.296   .     A
C83    C96     1.451   .     S
C84    C114    1.494   .     S
C84    C86     1.418   .     A
C84    C119    1.432   .     A
C85    C105    1.398   .     A
C85    C120    1.414   .     A
C85    C578    1.527   1_554 S
C86    C115    1.401   .     A
C86    C577    1.527   .     S
C87    C89     1.432   .     S
C87    O162    1.297   .     A
C87    O160    1.291   .     A
C88    O163    1.296   .     A
C88    C90     1.434   .     S
C88    O161    1.293   .     A
C90    C171    1.335   .     S
C90    H215    1.087   .     S
C91    C104    1.495   .     S
C91    C102    1.421   .     A
C91    C93     1.415   .     A
C92    C103    1.415   .     A
C92    C106    1.493   .     S
C92    C95     1.415   .     A
C93    C96     1.412   .     A
C93    C107    1.482   .     S
C94    O154    1.299   .     A
C94    C97     1.483   .     S
C94    O159    1.313   .     A
C95    C97     1.429   .     A
C95    C108    1.486   .     S
C96    C98     1.392   .     A
C97    C99     1.400   .     A
C98    C100    1.382   .     A
C98    H134    1.084   .     S
C99    C101    1.383   .     A
C99    H135    1.078   .     S
C100   C102    1.399   .     A
C100   H136    1.084   .     S
C101   C103    1.394   .     A
C101   H137    1.084   .     S
C102   C349    1.466   1_545 S
C103   C348    1.466   .     S
C104   H140    1.083   .     S
C104   O410    1.221   1_545 S
C105   H138    1.083   .     S
C105   C116    1.408   .     A
C106   H124    1.085   .     S
C106   O390    1.221   .     S
C107   O145    1.222   .     D
C107   O146    1.397   .     S
C108   O148    1.398   .     S
C108   O147    1.223   .     D
C109   O150    1.399   .     S
C109   C116    1.481   .     S
C109   O149    1.219   .     D
C110   O151    1.221   .     D
C110   O152    1.398   .     S
C110   C117    1.471   .     S
C111   C118    1.476   .     S
C111   H129    1.081   .     S
C111   O153    1.221   .     D
C112   H130    1.080   .     S
C112   O155    1.219   .     D
C112   C119    1.472   .     S
C113   O156    1.221   .     D
C113   C120    1.489   .     S
C113   H623    1.085   1_554 S
C114   O157    1.220   .     D
C114   H624    1.085   .     S
C115   H139    1.083   .     S
C115   C117    1.406   .     A
C116   N141    1.385   .     A
C117   N142    1.379   .     A
C118   N141    1.388   .     A
C118   C120    1.435   .     A
C119   N142    1.383   .     A
Cu121  O143    1.957   .     S
Cu121  O160    1.952   .     S
Cu121  O163    1.954   .     S
Cu121  Cu122   2.703   .     S
Cu121  N142    2.030   .     S
Cu121  O159    1.952   .     S
Cu122  O162    1.954   .     S
Cu122  O158    1.952   .     S
Cu122  O161    1.952   .     S
Cu122  O154    1.957   .     S
Cu122  N141    2.030   .     S
H123   C171    1.084   .     S
H125   O146    1.014   .     S
H126   O148    1.014   .     S
H127   O150    1.014   .     S
H128   O152    1.014   .     S
H131   C605    1.085   .     S
H132   C606    1.085   1_554 S
O144   C352    1.221   1_545 S
O164   C350    1.221   .     S
C165   O240    1.298   .     A
C165   O225    1.296   .     A
C165   C178    1.451   .     S
C166   C196    1.494   .     S
C166   C168    1.418   .     A
C166   C201    1.432   .     A
C167   C187    1.398   .     A
C167   C202    1.414   .     A
C167   C660    1.527   1_554 S
C168   C197    1.401   .     A
C168   C659    1.527   .     S
C169   C171    1.432   .     S
C169   O244    1.297   .     A
C169   O242    1.291   .     A
C170   O245    1.296   .     A
C170   C172    1.434   .     S
C170   O243    1.293   .     A
C172   C7      1.335   1_655 S
C172   H51     1.087   1_655 S
C173   C186    1.495   .     S
C173   C184    1.421   .     A
C173   C175    1.415   .     A
C174   C185    1.415   .     A
C174   C188    1.493   .     S
C174   C177    1.415   .     A
C175   C178    1.412   .     A
C175   C189    1.482   .     S
C176   O236    1.299   .     A
C176   C179    1.483   .     S
C176   O241    1.313   .     A
C177   C179    1.429   .     A
C177   C190    1.486   .     S
C178   C180    1.392   .     A
C179   C181    1.400   .     A
C180   C182    1.382   .     A
C180   H216    1.084   .     S
C181   C183    1.383   .     A
C181   H217    1.078   .     S
C182   C184    1.399   .     A
C182   H218    1.084   .     S
C183   C185    1.394   .     A
C183   H219    1.084   .     S
C184   C431    1.466   1_545 S
C185   C430    1.466   .     S
C186   H222    1.083   .     S
C186   O492    1.221   1_545 S
C187   H220    1.083   .     S
C187   C198    1.408   .     A
C188   H206    1.085   .     S
C188   O472    1.221   .     S
C189   O227    1.222   .     D
C189   O228    1.397   .     S
C190   O230    1.398   .     S
C190   O229    1.223   .     D
C191   O232    1.399   .     S
C191   C198    1.481   .     S
C191   O231    1.219   .     D
C192   O233    1.221   .     D
C192   O234    1.398   .     S
C192   C199    1.471   .     S
C193   C200    1.476   .     S
C193   H211    1.081   .     S
C193   O235    1.221   .     D
C194   H212    1.080   .     S
C194   O237    1.219   .     D
C194   C201    1.472   .     S
C195   O238    1.221   .     D
C195   C202    1.489   .     S
C195   H705    1.085   1_554 S
C196   O239    1.220   .     D
C196   H706    1.085   .     S
C197   H221    1.083   .     S
C197   C199    1.406   .     A
C198   N223    1.385   .     A
C199   N224    1.379   .     A
C200   N223    1.388   .     A
C200   C202    1.435   .     A
C201   N224    1.383   .     A
Cu203  O225    1.957   .     S
Cu203  O242    1.952   .     S
Cu203  O245    1.954   .     S
Cu203  Cu204   2.703   .     S
Cu203  N224    2.030   .     S
Cu203  O241    1.952   .     S
Cu204  O244    1.954   .     S
Cu204  O240    1.952   .     S
Cu204  O243    1.952   .     S
Cu204  O236    1.957   .     S
Cu204  N223    2.030   .     S
H205   C7      1.084   1_655 S
H207   O228    1.014   .     S
H208   O230    1.014   .     S
H209   O232    1.014   .     S
H210   O234    1.014   .     S
H213   C687    1.085   .     S
H214   C688    1.085   1_554 S
O226   C434    1.221   1_545 S
O246   C432    1.221   .     S
C247   O322    1.298   .     A
C247   O307    1.296   .     A
C247   C260    1.451   .     S
C248   C278    1.494   .     S
C248   C250    1.418   .     A
C248   C283    1.432   .     A
C249   C269    1.398   .     A
C249   C284    1.414   .     A
C249   C742    1.527   1_554 S
C250   C279    1.401   .     A
C250   C741    1.527   .     S
C251   C253    1.432   .     S
C251   O326    1.297   .     A
C251   O324    1.291   .     A
C252   O327    1.296   .     A
C252   C254    1.434   .     S
C252   O325    1.293   .     A
C253   C418    1.335   1_455 S
C253   H451    1.084   1_455 S
C254   C335    1.335   .     S
C254   H379    1.087   .     S
C255   C268    1.495   .     S
C255   C266    1.421   .     A
C255   C257    1.415   .     A
C256   C267    1.415   .     A
C256   C270    1.493   .     S
C256   C259    1.415   .     A
C257   C260    1.412   .     A
C257   C271    1.482   .     S
C258   O318    1.299   .     A
C258   C261    1.483   .     S
C258   O323    1.313   .     A
C259   C261    1.429   .     A
C259   C272    1.486   .     S
C260   C262    1.392   .     A
C261   C263    1.400   .     A
C262   C264    1.382   .     A
C262   H298    1.084   .     S
C263   C265    1.383   .     A
C263   H299    1.078   .     S
C264   C266    1.399   .     A
C264   H300    1.084   .     S
C265   C267    1.394   .     A
C265   H301    1.084   .     S
C267   C20     1.466   1_565 S
C268   H304    1.083   .     S
C269   H302    1.083   .     S
C269   C280    1.408   .     A
C270   H288    1.085   .     S
C270   O62     1.221   1_565 S
C271   O309    1.222   .     D
C271   O310    1.397   .     S
C272   O312    1.398   .     S
C272   O311    1.223   .     D
C273   O314    1.399   .     S
C273   C280    1.481   .     S
C273   O313    1.219   .     D
C274   O315    1.221   .     D
C274   O316    1.398   .     S
C274   C281    1.471   .     S
C275   C282    1.476   .     S
C275   H293    1.081   .     S
C275   O317    1.221   .     D
C276   H294    1.080   .     S
C276   O319    1.219   .     D
C276   C283    1.472   .     S
C277   O320    1.221   .     D
C277   C284    1.489   .     S
C277   H787    1.085   1_554 S
C278   O321    1.220   .     D
C278   H788    1.085   .     S
C279   H303    1.083   .     S
C279   C281    1.406   .     A
C280   N305    1.385   .     A
C281   N306    1.379   .     A
C282   N305    1.388   .     A
C282   C284    1.435   .     A
C283   N306    1.383   .     A
Cu285  O307    1.957   .     S
Cu285  O324    1.952   .     S
Cu285  O327    1.954   .     S
Cu285  Cu286   2.703   .     S
Cu285  N306    2.030   .     S
Cu285  O323    1.952   .     S
Cu286  O326    1.954   .     S
Cu286  O322    1.952   .     S
Cu286  O325    1.952   .     S
Cu286  O318    1.957   .     S
Cu286  N305    2.030   .     S
H287   C335    1.084   .     S
H289   O310    1.014   .     S
H290   O312    1.014   .     S
H291   O314    1.014   .     S
H292   O316    1.014   .     S
H295   C769    1.085   .     S
H296   C770    1.085   1_554 S
H297   C418    1.087   1_455 S
O328   C22     1.221   1_565 S
C329   O404    1.298   .     A
C329   O389    1.296   .     A
C329   C342    1.451   .     S
C330   C360    1.494   .     S
C330   C332    1.418   .     A
C330   C365    1.432   .     A
C331   C351    1.398   .     A
C331   C366    1.414   .     A
C331   C824    1.527   1_554 S
C332   C361    1.401   .     A
C332   C823    1.527   .     S
C333   C335    1.432   .     S
C333   O408    1.297   .     A
C333   O406    1.291   .     A
C334   O409    1.296   .     A
C334   C336    1.434   .     S
C334   O407    1.293   .     A
C336   C417    1.335   .     S
C336   H461    1.087   .     S
C337   C350    1.495   .     S
C337   C348    1.421   .     A
C337   C339    1.415   .     A
C338   C349    1.415   .     A
C338   C352    1.493   .     S
C338   C341    1.415   .     A
C339   C342    1.412   .     A
C339   C353    1.482   .     S
C340   O400    1.299   .     A
C340   C343    1.483   .     S
C340   O405    1.313   .     A
C341   C343    1.429   .     A
C341   C354    1.486   .     S
C342   C344    1.392   .     A
C343   C345    1.400   .     A
C344   C346    1.382   .     A
C344   H380    1.084   .     S
C345   C347    1.383   .     A
C345   H381    1.078   .     S
C346   C348    1.399   .     A
C346   H382    1.084   .     S
C347   C349    1.394   .     A
C347   H383    1.084   .     S
C349   C102    1.466   1_565 S
C350   H386    1.083   .     S
C351   H384    1.083   .     S
C351   C362    1.408   .     A
C352   H370    1.085   .     S
C352   O144    1.221   1_565 S
C353   O391    1.222   .     D
C353   O392    1.397   .     S
C354   O394    1.398   .     S
C354   O393    1.223   .     D
C355   O396    1.399   .     S
C355   C362    1.481   .     S
C355   O395    1.219   .     D
C356   O397    1.221   .     D
C356   O398    1.398   .     S
C356   C363    1.471   .     S
C357   C364    1.476   .     S
C357   H375    1.081   .     S
C357   O399    1.221   .     D
C358   H376    1.080   .     S
C358   O401    1.219   .     D
C358   C365    1.472   .     S
C359   O402    1.221   .     D
C359   C366    1.489   .     S
C359   H869    1.085   1_554 S
C360   O403    1.220   .     D
C360   H870    1.085   .     S
C361   H385    1.083   .     S
C361   C363    1.406   .     A
C362   N387    1.385   .     A
C363   N388    1.379   .     A
C364   N387    1.388   .     A
C364   C366    1.435   .     A
C365   N388    1.383   .     A
Cu367  O389    1.957   .     S
Cu367  O406    1.952   .     S
Cu367  O409    1.954   .     S
Cu367  Cu368   2.703   .     S
Cu367  N388    2.030   .     S
Cu367  O405    1.952   .     S
Cu368  O408    1.954   .     S
Cu368  O404    1.952   .     S
Cu368  O407    1.952   .     S
Cu368  O400    1.957   .     S
Cu368  N387    2.030   .     S
H369   C417    1.084   .     S
H371   O392    1.014   .     S
H372   O394    1.014   .     S
H373   O396    1.014   .     S
H374   O398    1.014   .     S
H377   C851    1.085   .     S
H378   C852    1.085   1_554 S
O410   C104    1.221   1_565 S
C411   O486    1.298   .     A
C411   O471    1.296   .     A
C411   C424    1.451   .     S
C412   C442    1.494   .     S
C412   C414    1.418   .     A
C412   C447    1.432   .     A
C413   C433    1.398   .     A
C413   C448    1.414   .     A
C413   C906    1.527   1_554 S
C414   C443    1.401   .     A
C414   C905    1.527   .     S
C415   C417    1.432   .     S
C415   O490    1.297   .     A
C415   O488    1.291   .     A
C416   O491    1.296   .     A
C416   C418    1.434   .     S
C416   O489    1.293   .     A
C418   C253    1.335   1_655 S
C418   H297    1.087   1_655 S
C419   C432    1.495   .     S
C419   C430    1.421   .     A
C419   C421    1.415   .     A
C420   C431    1.415   .     A
C420   C434    1.493   .     S
C420   C423    1.415   .     A
C421   C424    1.412   .     A
C421   C435    1.482   .     S
C422   O482    1.299   .     A
C422   C425    1.483   .     S
C422   O487    1.313   .     A
C423   C425    1.429   .     A
C423   C436    1.486   .     S
C424   C426    1.392   .     A
C425   C427    1.400   .     A
C426   C428    1.382   .     A
C426   H462    1.084   .     S
C427   C429    1.383   .     A
C427   H463    1.078   .     S
C428   C430    1.399   .     A
C428   H464    1.084   .     S
C429   C431    1.394   .     A
C429   H465    1.084   .     S
C431   C184    1.466   1_565 S
C432   H468    1.083   .     S
C433   H466    1.083   .     S
C433   C444    1.408   .     A
C434   H452    1.085   .     S
C434   O226    1.221   1_565 S
C435   O473    1.222   .     D
C435   O474    1.397   .     S
C436   O476    1.398   .     S
C436   O475    1.223   .     D
C437   O478    1.399   .     S
C437   C444    1.481   .     S
C437   O477    1.219   .     D
C438   O479    1.221   .     D
C438   O480    1.398   .     S
C438   C445    1.471   .     S
C439   C446    1.476   .     S
C439   H457    1.081   .     S
C439   O481    1.221   .     D
C440   H458    1.080   .     S
C440   O483    1.219   .     D
C440   C447    1.472   .     S
C441   O484    1.221   .     D
C441   C448    1.489   .     S
C441   H951    1.085   1_554 S
C442   O485    1.220   .     D
C442   H952    1.085   .     S
C443   H467    1.083   .     S
C443   C445    1.406   .     A
C444   N469    1.385   .     A
C445   N470    1.379   .     A
C446   N469    1.388   .     A
C446   C448    1.435   .     A
C447   N470    1.383   .     A
Cu449  O471    1.957   .     S
Cu449  O488    1.952   .     S
Cu449  O491    1.954   .     S
Cu449  Cu450   2.703   .     S
Cu449  N470    2.030   .     S
Cu449  O487    1.952   .     S
Cu450  O490    1.954   .     S
Cu450  O486    1.952   .     S
Cu450  O489    1.952   .     S
Cu450  O482    1.957   .     S
Cu450  N469    2.030   .     S
H451   C253    1.084   1_655 S
H453   O474    1.014   .     S
H454   O476    1.014   .     S
H455   O478    1.014   .     S
H456   O480    1.014   .     S
H459   C933    1.085   .     S
H460   C934    1.085   1_554 S
O492   C186    1.221   1_565 S
C493   O568    1.298   .     A
C493   O553    1.296   .     A
C493   C506    1.451   .     S
C494   C524    1.494   .     S
C494   C496    1.418   .     A
C494   C529    1.432   .     A
C495   C515    1.398   .     A
C495   C530    1.414   .     A
C496   C525    1.401   .     A
C496   C3      1.527   1_556 S
C497   C499    1.432   .     S
C497   O572    1.297   .     A
C497   O570    1.291   .     A
C498   O573    1.296   .     A
C498   C500    1.434   .     S
C498   O571    1.293   .     A
C499   C664    1.335   1_455 S
C499   H697    1.084   1_455 S
C500   C581    1.335   .     S
C500   H625    1.087   .     S
C501   C514    1.495   .     S
C501   C512    1.421   .     A
C501   C503    1.415   .     A
C502   C513    1.415   .     A
C502   C516    1.493   .     S
C502   C505    1.415   .     A
C503   C506    1.412   .     A
C503   C517    1.482   .     S
C504   O564    1.299   .     A
C504   C507    1.483   .     S
C504   O569    1.313   .     A
C505   C507    1.429   .     A
C505   C518    1.486   .     S
C506   C508    1.392   .     A
C507   C509    1.400   .     A
C508   C510    1.382   .     A
C508   H544    1.084   .     S
C509   C511    1.383   .     A
C509   H545    1.078   .     S
C510   C512    1.399   .     A
C510   H546    1.084   .     S
C511   C513    1.394   .     A
C511   H547    1.084   .     S
C512   C759    1.466   1_545 S
C513   C758    1.466   .     S
C514   H550    1.083   .     S
C514   O820    1.221   1_545 S
C515   H548    1.083   .     S
C515   C526    1.408   .     A
C516   H534    1.085   .     S
C516   O800    1.221   .     S
C517   O555    1.222   .     D
C517   O556    1.397   .     S
C518   O558    1.398   .     S
C518   O557    1.223   .     D
C519   O560    1.399   .     S
C519   C526    1.481   .     S
C519   O559    1.219   .     D
C520   O561    1.221   .     D
C520   O562    1.398   .     S
C520   C527    1.471   .     S
C521   C528    1.476   .     S
C521   H539    1.081   .     S
C521   O563    1.221   .     D
C522   H540    1.080   .     S
C522   O565    1.219   .     D
C522   C529    1.472   .     S
C523   O566    1.221   .     D
C523   C530    1.489   .     S
C524   O567    1.220   .     D
C524   H50     1.085   1_556 S
C525   H549    1.083   .     S
C525   C527    1.406   .     A
C526   N551    1.385   .     A
C527   N552    1.379   .     A
C528   N551    1.388   .     A
C528   C530    1.435   .     A
C529   N552    1.383   .     A
Cu531  O553    1.957   .     S
Cu531  O570    1.952   .     S
Cu531  O573    1.954   .     S
Cu531  Cu532   2.703   .     S
Cu531  N552    2.030   .     S
Cu531  O569    1.952   .     S
Cu532  O572    1.954   .     S
Cu532  O568    1.952   .     S
Cu532  O571    1.952   .     S
Cu532  O564    1.957   .     S
Cu532  N551    2.030   .     S
H533   C581    1.084   .     S
H535   O556    1.014   .     S
H536   O558    1.014   .     S
H537   O560    1.014   .     S
H538   O562    1.014   .     S
H541   C31     1.085   1_556 S
H543   C664    1.087   1_455 S
O554   C762    1.221   1_545 S
O574   C760    1.221   .     S
C575   O650    1.298   .     A
C575   O635    1.296   .     A
C575   C588    1.451   .     S
C576   C606    1.494   .     S
C576   C578    1.418   .     A
C576   C611    1.432   .     A
C577   C597    1.398   .     A
C577   C612    1.414   .     A
C578   C607    1.401   .     A
C578   C85     1.527   1_556 S
C579   C581    1.432   .     S
C579   O654    1.297   .     A
C579   O652    1.291   .     A
C580   O655    1.296   .     A
C580   C582    1.434   .     S
C580   O653    1.293   .     A
C582   C663    1.335   .     S
C582   H707    1.087   .     S
C583   C596    1.495   .     S
C583   C594    1.421   .     A
C583   C585    1.415   .     A
C584   C595    1.415   .     A
C584   C598    1.493   .     S
C584   C587    1.415   .     A
C585   C588    1.412   .     A
C585   C599    1.482   .     S
C586   O646    1.299   .     A
C586   C589    1.483   .     S
C586   O651    1.313   .     A
C587   C589    1.429   .     A
C587   C600    1.486   .     S
C588   C590    1.392   .     A
C589   C591    1.400   .     A
C590   C592    1.382   .     A
C590   H626    1.084   .     S
C591   C593    1.383   .     A
C591   H627    1.078   .     S
C592   C594    1.399   .     A
C592   H628    1.084   .     S
C593   C595    1.394   .     A
C593   H629    1.084   .     S
C594   C841    1.466   1_545 S
C595   C840    1.466   .     S
C596   H632    1.083   .     S
C596   O902    1.221   1_545 S
C597   H630    1.083   .     S
C597   C608    1.408   .     A
C598   H616    1.085   .     S
C598   O882    1.221   .     S
C599   O637    1.222   .     D
C599   O638    1.397   .     S
C600   O640    1.398   .     S
C600   O639    1.223   .     D
C601   O642    1.399   .     S
C601   C608    1.481   .     S
C601   O641    1.219   .     D
C602   O643    1.221   .     D
C602   O644    1.398   .     S
C602   C609    1.471   .     S
C603   C610    1.476   .     S
C603   H621    1.081   .     S
C603   O645    1.221   .     D
C604   H622    1.080   .     S
C604   O647    1.219   .     D
C604   C611    1.472   .     S
C605   O648    1.221   .     D
C605   C612    1.489   .     S
C606   O649    1.220   .     D
C606   H132    1.085   1_556 S
C607   H631    1.083   .     S
C607   C609    1.406   .     A
C608   N633    1.385   .     A
C609   N634    1.379   .     A
C610   N633    1.388   .     A
C610   C612    1.435   .     A
C611   N634    1.383   .     A
Cu613  O635    1.957   .     S
Cu613  O652    1.952   .     S
Cu613  O655    1.954   .     S
Cu613  Cu614   2.703   .     S
Cu613  N634    2.030   .     S
Cu613  O651    1.952   .     S
Cu614  O654    1.954   .     S
Cu614  O650    1.952   .     S
Cu614  O653    1.952   .     S
Cu614  O646    1.957   .     S
Cu614  N633    2.030   .     S
H615   C663    1.084   .     S
H617   O638    1.014   .     S
H618   O640    1.014   .     S
H619   O642    1.014   .     S
H620   O644    1.014   .     S
H623   C113    1.085   1_556 S
O636   C844    1.221   1_545 S
O656   C842    1.221   .     S
C657   O732    1.298   .     A
C657   O717    1.296   .     A
C657   C670    1.451   .     S
C658   C688    1.494   .     S
C658   C660    1.418   .     A
C658   C693    1.432   .     A
C659   C679    1.398   .     A
C659   C694    1.414   .     A
C660   C689    1.401   .     A
C660   C167    1.527   1_556 S
C661   C663    1.432   .     S
C661   O736    1.297   .     A
C661   O734    1.291   .     A
C662   O737    1.296   .     A
C662   C664    1.434   .     S
C662   O735    1.293   .     A
C664   C499    1.335   1_655 S
C664   H543    1.087   1_655 S
C665   C678    1.495   .     S
C665   C676    1.421   .     A
C665   C667    1.415   .     A
C666   C677    1.415   .     A
C666   C680    1.493   .     S
C666   C669    1.415   .     A
C667   C670    1.412   .     A
C667   C681    1.482   .     S
C668   O728    1.299   .     A
C668   C671    1.483   .     S
C668   O733    1.313   .     A
C669   C671    1.429   .     A
C669   C682    1.486   .     S
C670   C672    1.392   .     A
C671   C673    1.400   .     A
C672   C674    1.382   .     A
C672   H708    1.084   .     S
C673   C675    1.383   .     A
C673   H709    1.078   .     S
C674   C676    1.399   .     A
C674   H710    1.084   .     S
C675   C677    1.394   .     A
C675   H711    1.084   .     S
C676   C923    1.466   1_545 S
C677   C922    1.466   .     S
C678   H714    1.083   .     S
C678   O984    1.221   1_545 S
C679   H712    1.083   .     S
C679   C690    1.408   .     A
C680   H698    1.085   .     S
C680   O964    1.221   .     S
C681   O719    1.222   .     D
C681   O720    1.397   .     S
C682   O722    1.398   .     S
C682   O721    1.223   .     D
C683   O724    1.399   .     S
C683   C690    1.481   .     S
C683   O723    1.219   .     D
C684   O725    1.221   .     D
C684   O726    1.398   .     S
C684   C691    1.471   .     S
C685   C692    1.476   .     S
C685   H703    1.081   .     S
C685   O727    1.221   .     D
C686   H704    1.080   .     S
C686   O729    1.219   .     D
C686   C693    1.472   .     S
C687   O730    1.221   .     D
C687   C694    1.489   .     S
C688   O731    1.220   .     D
C688   H214    1.085   1_556 S
C689   H713    1.083   .     S
C689   C691    1.406   .     A
C690   N715    1.385   .     A
C691   N716    1.379   .     A
C692   N715    1.388   .     A
C692   C694    1.435   .     A
C693   N716    1.383   .     A
Cu695  O717    1.957   .     S
Cu695  O734    1.952   .     S
Cu695  O737    1.954   .     S
Cu695  Cu696   2.703   .     S
Cu695  N716    2.030   .     S
Cu695  O733    1.952   .     S
Cu696  O736    1.954   .     S
Cu696  O732    1.952   .     S
Cu696  O735    1.952   .     S
Cu696  O728    1.957   .     S
Cu696  N715    2.030   .     S
H697   C499    1.084   1_655 S
H699   O720    1.014   .     S
H700   O722    1.014   .     S
H701   O724    1.014   .     S
H702   O726    1.014   .     S
H705   C195    1.085   1_556 S
O718   C926    1.221   1_545 S
O738   C924    1.221   .     S
C739   O814    1.298   .     A
C739   O799    1.296   .     A
C739   C752    1.451   .     S
C740   C770    1.494   .     S
C740   C742    1.418   .     A
C740   C775    1.432   .     A
C741   C761    1.398   .     A
C741   C776    1.414   .     A
C742   C771    1.401   .     A
C742   C249    1.527   1_556 S
C743   C745    1.432   .     S
C743   O818    1.297   .     A
C743   O816    1.291   .     A
C744   O819    1.296   .     A
C744   C746    1.434   .     S
C744   O817    1.293   .     A
C745   C910    1.335   1_455 S
C745   H943    1.084   1_455 S
C746   C827    1.335   .     S
C746   H871    1.087   .     S
C747   C760    1.495   .     S
C747   C758    1.421   .     A
C747   C749    1.415   .     A
C748   C759    1.415   .     A
C748   C762    1.493   .     S
C748   C751    1.415   .     A
C749   C752    1.412   .     A
C749   C763    1.482   .     S
C750   O810    1.299   .     A
C750   C753    1.483   .     S
C750   O815    1.313   .     A
C751   C753    1.429   .     A
C751   C764    1.486   .     S
C752   C754    1.392   .     A
C753   C755    1.400   .     A
C754   C756    1.382   .     A
C754   H790    1.084   .     S
C755   C757    1.383   .     A
C755   H791    1.078   .     S
C756   C758    1.399   .     A
C756   H792    1.084   .     S
C757   C759    1.394   .     A
C757   H793    1.084   .     S
C759   C512    1.466   1_565 S
C760   H796    1.083   .     S
C761   H794    1.083   .     S
C761   C772    1.408   .     A
C762   H780    1.085   .     S
C762   O554    1.221   1_565 S
C763   O801    1.222   .     D
C763   O802    1.397   .     S
C764   O804    1.398   .     S
C764   O803    1.223   .     D
C765   O806    1.399   .     S
C765   C772    1.481   .     S
C765   O805    1.219   .     D
C766   O807    1.221   .     D
C766   O808    1.398   .     S
C766   C773    1.471   .     S
C767   C774    1.476   .     S
C767   H785    1.081   .     S
C767   O809    1.221   .     D
C768   H786    1.080   .     S
C768   O811    1.219   .     D
C768   C775    1.472   .     S
C769   O812    1.221   .     D
C769   C776    1.489   .     S
C770   O813    1.220   .     D
C770   H296    1.085   1_556 S
C771   H795    1.083   .     S
C771   C773    1.406   .     A
C772   N797    1.385   .     A
C773   N798    1.379   .     A
C774   N797    1.388   .     A
C774   C776    1.435   .     A
C775   N798    1.383   .     A
Cu777  O799    1.957   .     S
Cu777  O816    1.952   .     S
Cu777  O819    1.954   .     S
Cu777  Cu778   2.703   .     S
Cu777  N798    2.030   .     S
Cu777  O815    1.952   .     S
Cu778  O818    1.954   .     S
Cu778  O814    1.952   .     S
Cu778  O817    1.952   .     S
Cu778  O810    1.957   .     S
Cu778  N797    2.030   .     S
H779   C827    1.084   .     S
H781   O802    1.014   .     S
H782   O804    1.014   .     S
H783   O806    1.014   .     S
H784   O808    1.014   .     S
H787   C277    1.085   1_556 S
H789   C910    1.087   1_455 S
O820   C514    1.221   1_565 S
C821   O896    1.298   .     A
C821   O881    1.296   .     A
C821   C834    1.451   .     S
C822   C852    1.494   .     S
C822   C824    1.418   .     A
C822   C857    1.432   .     A
C823   C843    1.398   .     A
C823   C858    1.414   .     A
C824   C853    1.401   .     A
C824   C331    1.527   1_556 S
C825   C827    1.432   .     S
C825   O900    1.297   .     A
C825   O898    1.291   .     A
C826   O901    1.296   .     A
C826   C828    1.434   .     S
C826   O899    1.293   .     A
C828   C909    1.335   .     S
C828   H953    1.087   .     S
C829   C842    1.495   .     S
C829   C840    1.421   .     A
C829   C831    1.415   .     A
C830   C841    1.415   .     A
C830   C844    1.493   .     S
C830   C833    1.415   .     A
C831   C834    1.412   .     A
C831   C845    1.482   .     S
C832   O892    1.299   .     A
C832   C835    1.483   .     S
C832   O897    1.313   .     A
C833   C835    1.429   .     A
C833   C846    1.486   .     S
C834   C836    1.392   .     A
C835   C837    1.400   .     A
C836   C838    1.382   .     A
C836   H872    1.084   .     S
C837   C839    1.383   .     A
C837   H873    1.078   .     S
C838   C840    1.399   .     A
C838   H874    1.084   .     S
C839   C841    1.394   .     A
C839   H875    1.084   .     S
C841   C594    1.466   1_565 S
C842   H878    1.083   .     S
C843   H876    1.083   .     S
C843   C854    1.408   .     A
C844   H862    1.085   .     S
C844   O636    1.221   1_565 S
C845   O883    1.222   .     D
C845   O884    1.397   .     S
C846   O886    1.398   .     S
C846   O885    1.223   .     D
C847   O888    1.399   .     S
C847   C854    1.481   .     S
C847   O887    1.219   .     D
C848   O889    1.221   .     D
C848   O890    1.398   .     S
C848   C855    1.471   .     S
C849   C856    1.476   .     S
C849   H867    1.081   .     S
C849   O891    1.221   .     D
C850   H868    1.080   .     S
C850   O893    1.219   .     D
C850   C857    1.472   .     S
C851   O894    1.221   .     D
C851   C858    1.489   .     S
C852   O895    1.220   .     D
C852   H378    1.085   1_556 S
C853   H877    1.083   .     S
C853   C855    1.406   .     A
C854   N879    1.385   .     A
C855   N880    1.379   .     A
C856   N879    1.388   .     A
C856   C858    1.435   .     A
C857   N880    1.383   .     A
Cu859  O881    1.957   .     S
Cu859  O898    1.952   .     S
Cu859  O901    1.954   .     S
Cu859  Cu860   2.703   .     S
Cu859  N880    2.030   .     S
Cu859  O897    1.952   .     S
Cu860  O900    1.954   .     S
Cu860  O896    1.952   .     S
Cu860  O899    1.952   .     S
Cu860  O892    1.957   .     S
Cu860  N879    2.030   .     S
H861   C909    1.084   .     S
H863   O884    1.014   .     S
H864   O886    1.014   .     S
H865   O888    1.014   .     S
H866   O890    1.014   .     S
H869   C359    1.085   1_556 S
O902   C596    1.221   1_565 S
C903   O978    1.298   .     A
C903   O963    1.296   .     A
C903   C916    1.451   .     S
C904   C934    1.494   .     S
C904   C906    1.418   .     A
C904   C939    1.432   .     A
C905   C925    1.398   .     A
C905   C940    1.414   .     A
C906   C935    1.401   .     A
C906   C413    1.527   1_556 S
C907   C909    1.432   .     S
C907   O982    1.297   .     A
C907   O980    1.291   .     A
C908   O983    1.296   .     A
C908   C910    1.434   .     S
C908   O981    1.293   .     A
C910   C745    1.335   1_655 S
C910   H789    1.087   1_655 S
C911   C924    1.495   .     S
C911   C922    1.421   .     A
C911   C913    1.415   .     A
C912   C923    1.415   .     A
C912   C926    1.493   .     S
C912   C915    1.415   .     A
C913   C916    1.412   .     A
C913   C927    1.482   .     S
C914   O974    1.299   .     A
C914   C917    1.483   .     S
C914   O979    1.313   .     A
C915   C917    1.429   .     A
C915   C928    1.486   .     S
C916   C918    1.392   .     A
C917   C919    1.400   .     A
C918   C920    1.382   .     A
C918   H954    1.084   .     S
C919   C921    1.383   .     A
C919   H955    1.078   .     S
C920   C922    1.399   .     A
C920   H956    1.084   .     S
C921   C923    1.394   .     A
C921   H957    1.084   .     S
C923   C676    1.466   1_565 S
C924   H960    1.083   .     S
C925   H958    1.083   .     S
C925   C936    1.408   .     A
C926   H944    1.085   .     S
C926   O718    1.221   1_565 S
C927   O965    1.222   .     D
C927   O966    1.397   .     S
C928   O968    1.398   .     S
C928   O967    1.223   .     D
C929   O970    1.399   .     S
C929   C936    1.481   .     S
C929   O969    1.219   .     D
C930   O971    1.221   .     D
C930   O972    1.398   .     S
C930   C937    1.471   .     S
C931   C938    1.476   .     S
C931   H949    1.081   .     S
C931   O973    1.221   .     D
C932   H950    1.080   .     S
C932   O975    1.219   .     D
C932   C939    1.472   .     S
C933   O976    1.221   .     D
C933   C940    1.489   .     S
C934   O977    1.220   .     D
C934   H460    1.085   1_556 S
C935   H959    1.083   .     S
C935   C937    1.406   .     A
C936   N961    1.385   .     A
C937   N962    1.379   .     A
C938   N961    1.388   .     A
C938   C940    1.435   .     A
C939   N962    1.383   .     A
Cu941  O963    1.957   .     S
Cu941  O980    1.952   .     S
Cu941  O983    1.954   .     S
Cu941  Cu942   2.703   .     S
Cu941  N962    2.030   .     S
Cu941  O979    1.952   .     S
Cu942  O982    1.954   .     S
Cu942  O978    1.952   .     S
Cu942  O981    1.952   .     S
Cu942  O974    1.957   .     S
Cu942  N961    2.030   .     S
H943   C745    1.084   1_655 S
H945   O966    1.014   .     S
H946   O968    1.014   .     S
H947   O970    1.014   .     S
H948   O972    1.014   .     S
H951   C441    1.085   1_556 S
O984   C678    1.221   1_565 S
