data_str_m2_o1_o17_pcu_sym.54
_audit_creation_date              2020-01-03
_audit_creation_method            'Materials Studio'
_symmetry_space_group_name_H-M    'P1'
_symmetry_Int_Tables_number       1
_symmetry_cell_setting            triclinic
loop_
_symmetry_equiv_pos_as_xyz
  x,y,z
_cell_length_a                    32.5003
_cell_length_b                    28.5058
_cell_length_c                    30.1511
_cell_angle_alpha                 90.0619
_cell_angle_beta                  90.1990
_cell_angle_gamma                 90.0217
loop_
_atom_site_label
_atom_site_type_symbol
_atom_site_fract_x
_atom_site_fract_y
_atom_site_fract_z
_atom_site_U_iso_or_equiv
_atom_site_adp_type
_atom_site_occupancy
C1     C     0.08734   0.16666   0.24997   0.00000  Uiso   1.00
C2     C     0.04273   0.16666   0.24997   0.00000  Uiso   1.00
C3     C     0.14161   0.02478   0.22182   0.00000  Uiso   1.00
C4     C     0.19171   0.30855   0.27820   0.00000  Uiso   1.00
C5     C     0.19171   0.02487   0.27820   0.00000  Uiso   1.00
C6     C     0.14161   0.30846   0.22182   0.00000  Uiso   1.00
C7     C     0.16778   0.16660   0.16431   0.00000  Uiso   1.00
C8     C     0.16473   0.16667   0.33568   0.00000  Uiso   1.00
C9     C     0.17361   0.12664   0.40673   0.00000  Uiso   1.00
C10    C     0.14769   0.20204   0.09358   0.00000  Uiso   1.00
C11    C     0.15957   0.16593   0.38401   0.00000  Uiso   1.00
C12    C     0.24600   0.16667   0.25002   0.00000  Uiso   1.00
C13    C     0.16786   0.16607   0.11579   0.00000  Uiso   1.00
C14    C     0.14006   0.20272   0.40712   0.00000  Uiso   1.00
C15    C     0.18505   0.12827   0.09214   0.00000  Uiso   1.00
C16    C     0.13735   0.20102   0.45409   0.00000  Uiso   1.00
C17    C     0.17797   0.12435   0.04589   0.00000  Uiso   1.00
C18    C     0.15504   0.16203   0.47683   0.00000  Uiso   1.00
C19    C     0.15791   0.16209   0.02347   0.00000  Uiso   1.00
C20    C     0.17069   0.12333   0.45276   0.00000  Uiso   1.00
C21    C     0.14186   0.20060   0.04765   0.00000  Uiso   1.00
C22    C     0.11752   0.23692   0.47904   0.00000  Uiso   1.00
C23    C     0.11994   0.23675   0.02571   0.00000  Uiso   1.00
C24    C     0.18978   0.08375   0.02144   0.00000  Uiso   1.00
C25    C     0.09104   0.27298   0.45772   0.00000  Uiso   1.00
C26    C     0.20525   0.04079   0.04375   0.00000  Uiso   1.00
C27    C     0.09753   0.27371   0.05105   0.00000  Uiso   1.00
C28    C     0.19479   0.03871   0.45040   0.00000  Uiso   1.00
C29    C     0.18485   0.08275   0.47503   0.00000  Uiso   1.00
C30    C     0.02127   0.12404   0.24944   0.00000  Uiso   1.00
C31    C     0.31207   0.20930   0.25053   0.00000  Uiso   1.00
C32    C     0.31203   0.12404   0.24947   0.00000  Uiso   1.00
C33    C     0.02130   0.20930   0.25050   0.00000  Uiso   1.00
C34    C     0.29060   0.16667   0.25001   0.00000  Uiso   1.00
Cu35   Cu    0.16667   0.21355   0.25000   0.00000  Uiso   1.00
Cu36   Cu    0.16667   0.11978   0.25000   0.00000  Uiso   1.00
H37    H     0.18902   0.09948   0.38802   0.00000  Uiso   1.00
H38    H     0.12154   0.28967   0.19926   0.00000  Uiso   1.00
H39    H     0.10900   0.22953   0.35894   0.00000  Uiso   1.00
H40    H     0.22574   0.11251   0.13709   0.00000  Uiso   1.00
H41    H     0.09734   0.30998   0.46282   0.00000  Uiso   1.00
H42    H     0.23597   0.04015   0.05793   0.00000  Uiso   1.00
H43    H     0.10026   0.31027   0.04156   0.00000  Uiso   1.00
H44    H     0.22136   0.01789   0.45980   0.00000  Uiso   1.00
H45    H     0.13642   0.23121   0.11296   0.00000  Uiso   1.00
H46    H     0.03727   0.09071   0.24899   0.00000  Uiso   1.00
H47    H     0.29607   0.24263   0.25098   0.00000  Uiso   1.00
H48    H     0.29601   0.09072   0.24904   0.00000  Uiso   1.00
H49    H     0.03733   0.24262   0.25092   0.00000  Uiso   1.00
H50    H     0.12154   0.04350   0.19927   0.00000  Uiso   1.00
H51    H     0.21176   0.28983   0.30076   0.00000  Uiso   1.00
H52    H     0.21176   0.04366   0.30077   0.00000  Uiso   1.00
N53    N     0.16667   0.28402   0.25000   0.00000  Uiso   1.00
N54    N     0.16667   0.04931   0.25000   0.00000  Uiso   1.00
O55    O     0.10655   0.20625   0.24999   0.00000  Uiso   1.00
O56    O     0.20994   0.09612   0.11354   0.00000  Uiso   1.00
O57    O     0.06093   0.26134   0.43600   0.00000  Uiso   1.00
O58    O     0.18379   0.00569   0.04565   0.00000  Uiso   1.00
O59    O     0.07425   0.26327   0.08118   0.00000  Uiso   1.00
O60    O     0.17223   0.02421   0.42094   0.00000  Uiso   1.00
O61    O     0.22679   0.12709   0.25001   0.00000  Uiso   1.00
O62    O     0.22679   0.20625   0.25001   0.00000  Uiso   1.00
O63    O     0.10655   0.12709   0.25000   0.00000  Uiso   1.00
O64    O     0.16666   0.20627   0.18513   0.00000  Uiso   1.00
O65    O     0.16668   0.12707   0.31487   0.00000  Uiso   1.00
O66    O     0.16668   0.20627   0.31487   0.00000  Uiso   1.00
O67    O     0.16666   0.12707   0.18513   0.00000  Uiso   1.00
O68    O     0.12553   0.24124   0.38435   0.00000  Uiso   1.00
C69    C     0.42067   0.16666   0.24997   0.00000  Uiso   1.00
C70    C     0.37607   0.16666   0.24997   0.00000  Uiso   1.00
C71    C     0.47494   0.02478   0.22182   0.00000  Uiso   1.00
C72    C     0.52504   0.30855   0.27820   0.00000  Uiso   1.00
C73    C     0.52504   0.02487   0.27820   0.00000  Uiso   1.00
C74    C     0.47494   0.30846   0.22182   0.00000  Uiso   1.00
C75    C     0.50111   0.16660   0.16431   0.00000  Uiso   1.00
C76    C     0.49807   0.16667   0.33568   0.00000  Uiso   1.00
C77    C     0.50695   0.12664   0.40673   0.00000  Uiso   1.00
C78    C     0.48102   0.20204   0.09358   0.00000  Uiso   1.00
C79    C     0.49290   0.16593   0.38401   0.00000  Uiso   1.00
C80    C     0.57933   0.16667   0.25002   0.00000  Uiso   1.00
C81    C     0.50119   0.16607   0.11579   0.00000  Uiso   1.00
C82    C     0.47339   0.20272   0.40712   0.00000  Uiso   1.00
C83    C     0.51839   0.12827   0.09214   0.00000  Uiso   1.00
C84    C     0.47068   0.20102   0.45409   0.00000  Uiso   1.00
C85    C     0.51130   0.12435   0.04589   0.00000  Uiso   1.00
C86    C     0.48837   0.16203   0.47683   0.00000  Uiso   1.00
C87    C     0.49124   0.16209   0.02347   0.00000  Uiso   1.00
C88    C     0.50403   0.12333   0.45276   0.00000  Uiso   1.00
C89    C     0.47519   0.20060   0.04765   0.00000  Uiso   1.00
C90    C     0.45085   0.23692   0.47904   0.00000  Uiso   1.00
C91    C     0.45328   0.23675   0.02571   0.00000  Uiso   1.00
C92    C     0.52312   0.08375   0.02144   0.00000  Uiso   1.00
C93    C     0.42437   0.27298   0.45772   0.00000  Uiso   1.00
C94    C     0.53858   0.04079   0.04375   0.00000  Uiso   1.00
C95    C     0.43086   0.27371   0.05105   0.00000  Uiso   1.00
C96    C     0.52813   0.03871   0.45040   0.00000  Uiso   1.00
C97    C     0.51819   0.08275   0.47503   0.00000  Uiso   1.00
C98    C     0.35460   0.12404   0.24944   0.00000  Uiso   1.00
C99    C     0.64540   0.20930   0.25053   0.00000  Uiso   1.00
C100   C     0.64537   0.12404   0.24947   0.00000  Uiso   1.00
C101   C     0.35464   0.20930   0.25050   0.00000  Uiso   1.00
C102   C     0.62394   0.16667   0.25001   0.00000  Uiso   1.00
Cu103  Cu    0.50000   0.21355   0.25000   0.00000  Uiso   1.00
Cu104  Cu    0.50000   0.11978   0.25000   0.00000  Uiso   1.00
H105   H     0.52235   0.09948   0.38802   0.00000  Uiso   1.00
H106   H     0.45488   0.28967   0.19926   0.00000  Uiso   1.00
H107   H     0.44234   0.22953   0.35894   0.00000  Uiso   1.00
H108   H     0.55908   0.11251   0.13709   0.00000  Uiso   1.00
H109   H     0.43068   0.30998   0.46282   0.00000  Uiso   1.00
H110   H     0.56930   0.04015   0.05793   0.00000  Uiso   1.00
H111   H     0.43359   0.31027   0.04156   0.00000  Uiso   1.00
H112   H     0.55470   0.01789   0.45980   0.00000  Uiso   1.00
H113   H     0.46975   0.23121   0.11296   0.00000  Uiso   1.00
H114   H     0.37060   0.09071   0.24899   0.00000  Uiso   1.00
H115   H     0.62940   0.24263   0.25098   0.00000  Uiso   1.00
H116   H     0.62934   0.09072   0.24904   0.00000  Uiso   1.00
H117   H     0.37067   0.24262   0.25092   0.00000  Uiso   1.00
H118   H     0.45488   0.04350   0.19927   0.00000  Uiso   1.00
H119   H     0.54510   0.28983   0.30076   0.00000  Uiso   1.00
H120   H     0.54509   0.04366   0.30077   0.00000  Uiso   1.00
N121   N     0.50000   0.28402   0.25000   0.00000  Uiso   1.00
N122   N     0.50000   0.04931   0.25000   0.00000  Uiso   1.00
O123   O     0.43988   0.20625   0.24999   0.00000  Uiso   1.00
O124   O     0.54327   0.09612   0.11354   0.00000  Uiso   1.00
O125   O     0.39426   0.26134   0.43600   0.00000  Uiso   1.00
O126   O     0.51713   0.00569   0.04565   0.00000  Uiso   1.00
O127   O     0.40758   0.26327   0.08118   0.00000  Uiso   1.00
O128   O     0.50557   0.02421   0.42094   0.00000  Uiso   1.00
O129   O     0.56012   0.12709   0.25001   0.00000  Uiso   1.00
O130   O     0.56012   0.20625   0.25001   0.00000  Uiso   1.00
O131   O     0.43988   0.12709   0.25000   0.00000  Uiso   1.00
O132   O     0.49999   0.20627   0.18513   0.00000  Uiso   1.00
O133   O     0.50001   0.12707   0.31487   0.00000  Uiso   1.00
O134   O     0.50001   0.20627   0.31487   0.00000  Uiso   1.00
O135   O     0.49999   0.12707   0.18513   0.00000  Uiso   1.00
O136   O     0.45886   0.24124   0.38435   0.00000  Uiso   1.00
C137   C     0.75400   0.16666   0.24997   0.00000  Uiso   1.00
C138   C     0.70940   0.16666   0.24997   0.00000  Uiso   1.00
C139   C     0.80828   0.02478   0.22182   0.00000  Uiso   1.00
C140   C     0.85838   0.30855   0.27820   0.00000  Uiso   1.00
C141   C     0.85838   0.02487   0.27820   0.00000  Uiso   1.00
C142   C     0.80827   0.30846   0.22182   0.00000  Uiso   1.00
C143   C     0.83445   0.16660   0.16431   0.00000  Uiso   1.00
C144   C     0.83140   0.16667   0.33568   0.00000  Uiso   1.00
C145   C     0.84028   0.12664   0.40673   0.00000  Uiso   1.00
C146   C     0.81436   0.20204   0.09358   0.00000  Uiso   1.00
C147   C     0.82623   0.16593   0.38401   0.00000  Uiso   1.00
C148   C     0.91266   0.16667   0.25002   0.00000  Uiso   1.00
C149   C     0.83452   0.16607   0.11579   0.00000  Uiso   1.00
C150   C     0.80673   0.20272   0.40712   0.00000  Uiso   1.00
C151   C     0.85172   0.12827   0.09214   0.00000  Uiso   1.00
C152   C     0.80402   0.20102   0.45409   0.00000  Uiso   1.00
C153   C     0.84464   0.12435   0.04589   0.00000  Uiso   1.00
C154   C     0.82170   0.16203   0.47683   0.00000  Uiso   1.00
C155   C     0.82457   0.16209   0.02347   0.00000  Uiso   1.00
C156   C     0.83736   0.12333   0.45276   0.00000  Uiso   1.00
C157   C     0.80853   0.20060   0.04765   0.00000  Uiso   1.00
C158   C     0.78418   0.23692   0.47904   0.00000  Uiso   1.00
C159   C     0.78661   0.23675   0.02571   0.00000  Uiso   1.00
C160   C     0.85645   0.08375   0.02144   0.00000  Uiso   1.00
C161   C     0.75770   0.27298   0.45772   0.00000  Uiso   1.00
C162   C     0.87191   0.04079   0.04375   0.00000  Uiso   1.00
C163   C     0.76420   0.27371   0.05105   0.00000  Uiso   1.00
C164   C     0.86146   0.03871   0.45040   0.00000  Uiso   1.00
C165   C     0.85152   0.08275   0.47503   0.00000  Uiso   1.00
C166   C     0.68793   0.12404   0.24944   0.00000  Uiso   1.00
C167   C     0.97874   0.20930   0.25053   0.00000  Uiso   1.00
C168   C     0.97870   0.12404   0.24947   0.00000  Uiso   1.00
C169   C     0.68797   0.20930   0.25050   0.00000  Uiso   1.00
C170   C     0.95727   0.16667   0.25001   0.00000  Uiso   1.00
Cu171  Cu    0.83333   0.21355   0.25000   0.00000  Uiso   1.00
Cu172  Cu    0.83333   0.11978   0.25000   0.00000  Uiso   1.00
H173   H     0.85568   0.09948   0.38802   0.00000  Uiso   1.00
H174   H     0.78821   0.28967   0.19926   0.00000  Uiso   1.00
H175   H     0.77567   0.22953   0.35894   0.00000  Uiso   1.00
H176   H     0.89241   0.11251   0.13709   0.00000  Uiso   1.00
H177   H     0.76401   0.30998   0.46282   0.00000  Uiso   1.00
H178   H     0.90264   0.04015   0.05793   0.00000  Uiso   1.00
H179   H     0.76692   0.31027   0.04156   0.00000  Uiso   1.00
H180   H     0.88803   0.01789   0.45980   0.00000  Uiso   1.00
H181   H     0.80309   0.23121   0.11296   0.00000  Uiso   1.00
H182   H     0.70393   0.09071   0.24899   0.00000  Uiso   1.00
H183   H     0.96274   0.24263   0.25098   0.00000  Uiso   1.00
H184   H     0.96267   0.09072   0.24904   0.00000  Uiso   1.00
H185   H     0.70400   0.24262   0.25092   0.00000  Uiso   1.00
H186   H     0.78821   0.04350   0.19927   0.00000  Uiso   1.00
H187   H     0.87843   0.28983   0.30076   0.00000  Uiso   1.00
H188   H     0.87842   0.04366   0.30077   0.00000  Uiso   1.00
N189   N     0.83333   0.28402   0.25000   0.00000  Uiso   1.00
N190   N     0.83333   0.04931   0.25000   0.00000  Uiso   1.00
O191   O     0.77321   0.20625   0.24999   0.00000  Uiso   1.00
O192   O     0.87661   0.09612   0.11354   0.00000  Uiso   1.00
O193   O     0.72760   0.26134   0.43600   0.00000  Uiso   1.00
O194   O     0.85046   0.00569   0.04565   0.00000  Uiso   1.00
O195   O     0.74091   0.26327   0.08118   0.00000  Uiso   1.00
O196   O     0.83890   0.02421   0.42094   0.00000  Uiso   1.00
O197   O     0.89345   0.12709   0.25001   0.00000  Uiso   1.00
O198   O     0.89345   0.20625   0.25001   0.00000  Uiso   1.00
O199   O     0.77321   0.12709   0.25000   0.00000  Uiso   1.00
O200   O     0.83332   0.20627   0.18513   0.00000  Uiso   1.00
O201   O     0.83334   0.12707   0.31487   0.00000  Uiso   1.00
O202   O     0.83334   0.20627   0.31487   0.00000  Uiso   1.00
O203   O     0.83332   0.12707   0.18513   0.00000  Uiso   1.00
O204   O     0.79220   0.24124   0.38435   0.00000  Uiso   1.00
C205   C     0.08734   0.50000   0.24997   0.00000  Uiso   1.00
C206   C     0.04273   0.50000   0.24997   0.00000  Uiso   1.00
C207   C     0.14161   0.35812   0.22182   0.00000  Uiso   1.00
C208   C     0.19171   0.64188   0.27820   0.00000  Uiso   1.00
C209   C     0.19171   0.35820   0.27820   0.00000  Uiso   1.00
C210   C     0.14161   0.64180   0.22182   0.00000  Uiso   1.00
C211   C     0.16778   0.49993   0.16431   0.00000  Uiso   1.00
C212   C     0.16473   0.50001   0.33568   0.00000  Uiso   1.00
C213   C     0.17361   0.45998   0.40673   0.00000  Uiso   1.00
C214   C     0.14769   0.53537   0.09358   0.00000  Uiso   1.00
C215   C     0.15957   0.49926   0.38401   0.00000  Uiso   1.00
C216   C     0.24600   0.50001   0.25002   0.00000  Uiso   1.00
C217   C     0.16786   0.49941   0.11579   0.00000  Uiso   1.00
C218   C     0.14006   0.53605   0.40712   0.00000  Uiso   1.00
C219   C     0.18505   0.46161   0.09214   0.00000  Uiso   1.00
C220   C     0.13735   0.53435   0.45409   0.00000  Uiso   1.00
C221   C     0.17797   0.45768   0.04589   0.00000  Uiso   1.00
C222   C     0.15504   0.49536   0.47683   0.00000  Uiso   1.00
C223   C     0.15791   0.49542   0.02347   0.00000  Uiso   1.00
C224   C     0.17069   0.45666   0.45276   0.00000  Uiso   1.00
C225   C     0.14186   0.53393   0.04765   0.00000  Uiso   1.00
C226   C     0.11752   0.57026   0.47904   0.00000  Uiso   1.00
C227   C     0.11994   0.57008   0.02571   0.00000  Uiso   1.00
C228   C     0.18978   0.41708   0.02144   0.00000  Uiso   1.00
C229   C     0.09104   0.60631   0.45772   0.00000  Uiso   1.00
C230   C     0.20525   0.37412   0.04375   0.00000  Uiso   1.00
C231   C     0.09753   0.60704   0.05105   0.00000  Uiso   1.00
C232   C     0.19479   0.37205   0.45040   0.00000  Uiso   1.00
C233   C     0.18485   0.41608   0.47503   0.00000  Uiso   1.00
C234   C     0.02127   0.45737   0.24944   0.00000  Uiso   1.00
C235   C     0.31207   0.54264   0.25053   0.00000  Uiso   1.00
C236   C     0.31203   0.45737   0.24947   0.00000  Uiso   1.00
C237   C     0.02130   0.54263   0.25050   0.00000  Uiso   1.00
C238   C     0.29060   0.50001   0.25001   0.00000  Uiso   1.00
Cu239  Cu    0.16667   0.54689   0.25000   0.00000  Uiso   1.00
Cu240  Cu    0.16667   0.45311   0.25000   0.00000  Uiso   1.00
H241   H     0.18902   0.43282   0.38802   0.00000  Uiso   1.00
H242   H     0.12154   0.62301   0.19926   0.00000  Uiso   1.00
H243   H     0.10900   0.56286   0.35894   0.00000  Uiso   1.00
H244   H     0.22574   0.44584   0.13709   0.00000  Uiso   1.00
H245   H     0.09734   0.64331   0.46282   0.00000  Uiso   1.00
H246   H     0.23597   0.37349   0.05793   0.00000  Uiso   1.00
H247   H     0.10026   0.64360   0.04156   0.00000  Uiso   1.00
H248   H     0.22136   0.35122   0.45980   0.00000  Uiso   1.00
H249   H     0.13642   0.56454   0.11296   0.00000  Uiso   1.00
H250   H     0.03727   0.42404   0.24899   0.00000  Uiso   1.00
H251   H     0.29607   0.57596   0.25098   0.00000  Uiso   1.00
H252   H     0.29601   0.42405   0.24904   0.00000  Uiso   1.00
H253   H     0.03733   0.57596   0.25092   0.00000  Uiso   1.00
H254   H     0.12154   0.37684   0.19927   0.00000  Uiso   1.00
H255   H     0.21176   0.62317   0.30076   0.00000  Uiso   1.00
H256   H     0.21176   0.37699   0.30077   0.00000  Uiso   1.00
N257   N     0.16667   0.61736   0.25000   0.00000  Uiso   1.00
N258   N     0.16667   0.38264   0.25000   0.00000  Uiso   1.00
O259   O     0.10655   0.53958   0.24999   0.00000  Uiso   1.00
O260   O     0.20994   0.42946   0.11354   0.00000  Uiso   1.00
O261   O     0.06093   0.59467   0.43600   0.00000  Uiso   1.00
O262   O     0.18379   0.33903   0.04565   0.00000  Uiso   1.00
O263   O     0.07425   0.59660   0.08118   0.00000  Uiso   1.00
O264   O     0.17223   0.35754   0.42094   0.00000  Uiso   1.00
O265   O     0.22679   0.46042   0.25001   0.00000  Uiso   1.00
O266   O     0.22679   0.53958   0.25001   0.00000  Uiso   1.00
O267   O     0.10655   0.46042   0.25000   0.00000  Uiso   1.00
O268   O     0.16666   0.53960   0.18513   0.00000  Uiso   1.00
O269   O     0.16668   0.46040   0.31487   0.00000  Uiso   1.00
O270   O     0.16668   0.53960   0.31487   0.00000  Uiso   1.00
O271   O     0.16666   0.46040   0.18513   0.00000  Uiso   1.00
O272   O     0.12553   0.57457   0.38435   0.00000  Uiso   1.00
C273   C     0.42067   0.50000   0.24997   0.00000  Uiso   1.00
C274   C     0.37607   0.50000   0.24997   0.00000  Uiso   1.00
C275   C     0.47494   0.35812   0.22182   0.00000  Uiso   1.00
C276   C     0.52504   0.64188   0.27820   0.00000  Uiso   1.00
C277   C     0.52504   0.35820   0.27820   0.00000  Uiso   1.00
C278   C     0.47494   0.64180   0.22182   0.00000  Uiso   1.00
C279   C     0.50111   0.49993   0.16431   0.00000  Uiso   1.00
C280   C     0.49807   0.50001   0.33568   0.00000  Uiso   1.00
C281   C     0.50695   0.45998   0.40673   0.00000  Uiso   1.00
C282   C     0.48102   0.53537   0.09358   0.00000  Uiso   1.00
C283   C     0.49290   0.49926   0.38401   0.00000  Uiso   1.00
C284   C     0.57933   0.50001   0.25002   0.00000  Uiso   1.00
C285   C     0.50119   0.49941   0.11579   0.00000  Uiso   1.00
C286   C     0.47339   0.53605   0.40712   0.00000  Uiso   1.00
C287   C     0.51839   0.46161   0.09214   0.00000  Uiso   1.00
C288   C     0.47068   0.53435   0.45409   0.00000  Uiso   1.00
C289   C     0.51130   0.45768   0.04589   0.00000  Uiso   1.00
C290   C     0.48837   0.49536   0.47683   0.00000  Uiso   1.00
C291   C     0.49124   0.49542   0.02347   0.00000  Uiso   1.00
C292   C     0.50403   0.45666   0.45276   0.00000  Uiso   1.00
C293   C     0.47519   0.53393   0.04765   0.00000  Uiso   1.00
C294   C     0.45085   0.57026   0.47904   0.00000  Uiso   1.00
C295   C     0.45328   0.57008   0.02571   0.00000  Uiso   1.00
C296   C     0.52312   0.41708   0.02144   0.00000  Uiso   1.00
C297   C     0.42437   0.60631   0.45772   0.00000  Uiso   1.00
C298   C     0.53858   0.37412   0.04375   0.00000  Uiso   1.00
C299   C     0.43086   0.60704   0.05105   0.00000  Uiso   1.00
C300   C     0.52813   0.37205   0.45040   0.00000  Uiso   1.00
C301   C     0.51819   0.41608   0.47503   0.00000  Uiso   1.00
C302   C     0.35460   0.45737   0.24944   0.00000  Uiso   1.00
C303   C     0.64540   0.54264   0.25053   0.00000  Uiso   1.00
C304   C     0.64537   0.45737   0.24947   0.00000  Uiso   1.00
C305   C     0.35464   0.54263   0.25050   0.00000  Uiso   1.00
C306   C     0.62394   0.50001   0.25001   0.00000  Uiso   1.00
Cu307  Cu    0.50000   0.54689   0.25000   0.00000  Uiso   1.00
Cu308  Cu    0.50000   0.45311   0.25000   0.00000  Uiso   1.00
H309   H     0.52235   0.43282   0.38802   0.00000  Uiso   1.00
H310   H     0.45488   0.62301   0.19926   0.00000  Uiso   1.00
H311   H     0.44234   0.56286   0.35894   0.00000  Uiso   1.00
H312   H     0.55908   0.44584   0.13709   0.00000  Uiso   1.00
H313   H     0.43068   0.64331   0.46282   0.00000  Uiso   1.00
H314   H     0.56930   0.37349   0.05793   0.00000  Uiso   1.00
H315   H     0.43359   0.64360   0.04156   0.00000  Uiso   1.00
H316   H     0.55470   0.35122   0.45980   0.00000  Uiso   1.00
H317   H     0.46975   0.56454   0.11296   0.00000  Uiso   1.00
H318   H     0.37060   0.42404   0.24899   0.00000  Uiso   1.00
H319   H     0.62940   0.57596   0.25098   0.00000  Uiso   1.00
H320   H     0.62934   0.42405   0.24904   0.00000  Uiso   1.00
H321   H     0.37067   0.57596   0.25092   0.00000  Uiso   1.00
H322   H     0.45488   0.37684   0.19927   0.00000  Uiso   1.00
H323   H     0.54510   0.62317   0.30076   0.00000  Uiso   1.00
H324   H     0.54509   0.37699   0.30077   0.00000  Uiso   1.00
N325   N     0.50000   0.61736   0.25000   0.00000  Uiso   1.00
N326   N     0.50000   0.38264   0.25000   0.00000  Uiso   1.00
O327   O     0.43988   0.53958   0.24999   0.00000  Uiso   1.00
O328   O     0.54327   0.42946   0.11354   0.00000  Uiso   1.00
O329   O     0.39426   0.59467   0.43600   0.00000  Uiso   1.00
O330   O     0.51713   0.33903   0.04565   0.00000  Uiso   1.00
O331   O     0.40758   0.59660   0.08118   0.00000  Uiso   1.00
O332   O     0.50557   0.35754   0.42094   0.00000  Uiso   1.00
O333   O     0.56012   0.46042   0.25001   0.00000  Uiso   1.00
O334   O     0.56012   0.53958   0.25001   0.00000  Uiso   1.00
O335   O     0.43988   0.46042   0.25000   0.00000  Uiso   1.00
O336   O     0.49999   0.53960   0.18513   0.00000  Uiso   1.00
O337   O     0.50001   0.46040   0.31487   0.00000  Uiso   1.00
O338   O     0.50001   0.53960   0.31487   0.00000  Uiso   1.00
O339   O     0.49999   0.46040   0.18513   0.00000  Uiso   1.00
O340   O     0.45886   0.57457   0.38435   0.00000  Uiso   1.00
C341   C     0.75400   0.50000   0.24997   0.00000  Uiso   1.00
C342   C     0.70940   0.50000   0.24997   0.00000  Uiso   1.00
C343   C     0.80828   0.35812   0.22182   0.00000  Uiso   1.00
C344   C     0.85838   0.64188   0.27820   0.00000  Uiso   1.00
C345   C     0.85838   0.35820   0.27820   0.00000  Uiso   1.00
C346   C     0.80827   0.64180   0.22182   0.00000  Uiso   1.00
C347   C     0.83445   0.49993   0.16431   0.00000  Uiso   1.00
C348   C     0.83140   0.50001   0.33568   0.00000  Uiso   1.00
C349   C     0.84028   0.45998   0.40673   0.00000  Uiso   1.00
C350   C     0.81436   0.53537   0.09358   0.00000  Uiso   1.00
C351   C     0.82623   0.49926   0.38401   0.00000  Uiso   1.00
C352   C     0.91266   0.50001   0.25002   0.00000  Uiso   1.00
C353   C     0.83452   0.49941   0.11579   0.00000  Uiso   1.00
C354   C     0.80673   0.53605   0.40712   0.00000  Uiso   1.00
C355   C     0.85172   0.46161   0.09214   0.00000  Uiso   1.00
C356   C     0.80402   0.53435   0.45409   0.00000  Uiso   1.00
C357   C     0.84464   0.45768   0.04589   0.00000  Uiso   1.00
C358   C     0.82170   0.49536   0.47683   0.00000  Uiso   1.00
C359   C     0.82457   0.49542   0.02347   0.00000  Uiso   1.00
C360   C     0.83736   0.45666   0.45276   0.00000  Uiso   1.00
C361   C     0.80853   0.53393   0.04765   0.00000  Uiso   1.00
C362   C     0.78418   0.57026   0.47904   0.00000  Uiso   1.00
C363   C     0.78661   0.57008   0.02571   0.00000  Uiso   1.00
C364   C     0.85645   0.41708   0.02144   0.00000  Uiso   1.00
C365   C     0.75770   0.60631   0.45772   0.00000  Uiso   1.00
C366   C     0.87191   0.37412   0.04375   0.00000  Uiso   1.00
C367   C     0.76420   0.60704   0.05105   0.00000  Uiso   1.00
C368   C     0.86146   0.37205   0.45040   0.00000  Uiso   1.00
C369   C     0.85152   0.41608   0.47503   0.00000  Uiso   1.00
C370   C     0.68793   0.45737   0.24944   0.00000  Uiso   1.00
C371   C     0.97874   0.54264   0.25053   0.00000  Uiso   1.00
C372   C     0.97870   0.45737   0.24947   0.00000  Uiso   1.00
C373   C     0.68797   0.54263   0.25050   0.00000  Uiso   1.00
C374   C     0.95727   0.50001   0.25001   0.00000  Uiso   1.00
Cu375  Cu    0.83333   0.54689   0.25000   0.00000  Uiso   1.00
Cu376  Cu    0.83333   0.45311   0.25000   0.00000  Uiso   1.00
H377   H     0.85568   0.43282   0.38802   0.00000  Uiso   1.00
H378   H     0.78821   0.62301   0.19926   0.00000  Uiso   1.00
H379   H     0.77567   0.56286   0.35894   0.00000  Uiso   1.00
H380   H     0.89241   0.44584   0.13709   0.00000  Uiso   1.00
H381   H     0.76401   0.64331   0.46282   0.00000  Uiso   1.00
H382   H     0.90264   0.37349   0.05793   0.00000  Uiso   1.00
H383   H     0.76692   0.64360   0.04156   0.00000  Uiso   1.00
H384   H     0.88803   0.35122   0.45980   0.00000  Uiso   1.00
H385   H     0.80309   0.56454   0.11296   0.00000  Uiso   1.00
H386   H     0.70393   0.42404   0.24899   0.00000  Uiso   1.00
H387   H     0.96274   0.57596   0.25098   0.00000  Uiso   1.00
H388   H     0.96267   0.42405   0.24904   0.00000  Uiso   1.00
H389   H     0.70400   0.57596   0.25092   0.00000  Uiso   1.00
H390   H     0.78821   0.37684   0.19927   0.00000  Uiso   1.00
H391   H     0.87843   0.62317   0.30076   0.00000  Uiso   1.00
H392   H     0.87842   0.37699   0.30077   0.00000  Uiso   1.00
N393   N     0.83333   0.61736   0.25000   0.00000  Uiso   1.00
N394   N     0.83333   0.38264   0.25000   0.00000  Uiso   1.00
O395   O     0.77321   0.53958   0.24999   0.00000  Uiso   1.00
O396   O     0.87661   0.42946   0.11354   0.00000  Uiso   1.00
O397   O     0.72760   0.59467   0.43600   0.00000  Uiso   1.00
O398   O     0.85046   0.33903   0.04565   0.00000  Uiso   1.00
O399   O     0.74091   0.59660   0.08118   0.00000  Uiso   1.00
O400   O     0.83890   0.35754   0.42094   0.00000  Uiso   1.00
O401   O     0.89345   0.46042   0.25001   0.00000  Uiso   1.00
O402   O     0.89345   0.53958   0.25001   0.00000  Uiso   1.00
O403   O     0.77321   0.46042   0.25000   0.00000  Uiso   1.00
O404   O     0.83332   0.53960   0.18513   0.00000  Uiso   1.00
O405   O     0.83334   0.46040   0.31487   0.00000  Uiso   1.00
O406   O     0.83334   0.53960   0.31487   0.00000  Uiso   1.00
O407   O     0.83332   0.46040   0.18513   0.00000  Uiso   1.00
O408   O     0.79220   0.57457   0.38435   0.00000  Uiso   1.00
C409   C     0.08734   0.83333   0.24997   0.00000  Uiso   1.00
C410   C     0.04273   0.83333   0.24997   0.00000  Uiso   1.00
C411   C     0.14161   0.69145   0.22182   0.00000  Uiso   1.00
C412   C     0.19171   0.97522   0.27820   0.00000  Uiso   1.00
C413   C     0.19171   0.69154   0.27820   0.00000  Uiso   1.00
C414   C     0.14161   0.97513   0.22182   0.00000  Uiso   1.00
C415   C     0.16778   0.83326   0.16431   0.00000  Uiso   1.00
C416   C     0.16473   0.83334   0.33568   0.00000  Uiso   1.00
C417   C     0.17361   0.79331   0.40673   0.00000  Uiso   1.00
C418   C     0.14769   0.86870   0.09358   0.00000  Uiso   1.00
C419   C     0.15957   0.83260   0.38401   0.00000  Uiso   1.00
C420   C     0.24600   0.83334   0.25002   0.00000  Uiso   1.00
C421   C     0.16786   0.83274   0.11579   0.00000  Uiso   1.00
C422   C     0.14006   0.86939   0.40712   0.00000  Uiso   1.00
C423   C     0.18505   0.79494   0.09214   0.00000  Uiso   1.00
C424   C     0.13735   0.86768   0.45409   0.00000  Uiso   1.00
C425   C     0.17797   0.79101   0.04589   0.00000  Uiso   1.00
C426   C     0.15504   0.82870   0.47683   0.00000  Uiso   1.00
C427   C     0.15791   0.82876   0.02347   0.00000  Uiso   1.00
C428   C     0.17069   0.79000   0.45276   0.00000  Uiso   1.00
C429   C     0.14186   0.86726   0.04765   0.00000  Uiso   1.00
C430   C     0.11752   0.90359   0.47904   0.00000  Uiso   1.00
C431   C     0.11994   0.90342   0.02571   0.00000  Uiso   1.00
C432   C     0.18978   0.75041   0.02144   0.00000  Uiso   1.00
C433   C     0.09104   0.93965   0.45772   0.00000  Uiso   1.00
C434   C     0.20525   0.70745   0.04375   0.00000  Uiso   1.00
C435   C     0.09753   0.94037   0.05105   0.00000  Uiso   1.00
C436   C     0.19479   0.70538   0.45040   0.00000  Uiso   1.00
C437   C     0.18485   0.74941   0.47503   0.00000  Uiso   1.00
C438   C     0.02127   0.79070   0.24944   0.00000  Uiso   1.00
C439   C     0.31207   0.87597   0.25053   0.00000  Uiso   1.00
C440   C     0.31203   0.79071   0.24947   0.00000  Uiso   1.00
C441   C     0.02130   0.87596   0.25050   0.00000  Uiso   1.00
C442   C     0.29060   0.83334   0.25001   0.00000  Uiso   1.00
Cu443  Cu    0.16667   0.88022   0.25000   0.00000  Uiso   1.00
Cu444  Cu    0.16667   0.78645   0.25000   0.00000  Uiso   1.00
H445   H     0.18902   0.76615   0.38802   0.00000  Uiso   1.00
H446   H     0.12154   0.95634   0.19926   0.00000  Uiso   1.00
H447   H     0.10900   0.89620   0.35894   0.00000  Uiso   1.00
H448   H     0.22574   0.77917   0.13709   0.00000  Uiso   1.00
H449   H     0.09734   0.97664   0.46282   0.00000  Uiso   1.00
H450   H     0.23597   0.70682   0.05793   0.00000  Uiso   1.00
H451   H     0.10026   0.97693   0.04156   0.00000  Uiso   1.00
H452   H     0.22136   0.68455   0.45980   0.00000  Uiso   1.00
H453   H     0.13642   0.89788   0.11296   0.00000  Uiso   1.00
H454   H     0.03727   0.75738   0.24899   0.00000  Uiso   1.00
H455   H     0.29607   0.90930   0.25098   0.00000  Uiso   1.00
H456   H     0.29601   0.75738   0.24904   0.00000  Uiso   1.00
H457   H     0.03733   0.90929   0.25092   0.00000  Uiso   1.00
H458   H     0.12154   0.71017   0.19927   0.00000  Uiso   1.00
H459   H     0.21176   0.95650   0.30076   0.00000  Uiso   1.00
H460   H     0.21176   0.71032   0.30077   0.00000  Uiso   1.00
N461   N     0.16667   0.95069   0.25000   0.00000  Uiso   1.00
N462   N     0.16667   0.71598   0.25000   0.00000  Uiso   1.00
O463   O     0.10655   0.87291   0.24999   0.00000  Uiso   1.00
O464   O     0.20994   0.76279   0.11354   0.00000  Uiso   1.00
O465   O     0.06093   0.92801   0.43600   0.00000  Uiso   1.00
O466   O     0.18379   0.67236   0.04565   0.00000  Uiso   1.00
O467   O     0.07425   0.92993   0.08118   0.00000  Uiso   1.00
O468   O     0.17223   0.69088   0.42094   0.00000  Uiso   1.00
O469   O     0.22679   0.79375   0.25001   0.00000  Uiso   1.00
O470   O     0.22679   0.87291   0.25001   0.00000  Uiso   1.00
O471   O     0.10655   0.79375   0.25000   0.00000  Uiso   1.00
O472   O     0.16666   0.87293   0.18513   0.00000  Uiso   1.00
O473   O     0.16668   0.79373   0.31487   0.00000  Uiso   1.00
O474   O     0.16668   0.87293   0.31487   0.00000  Uiso   1.00
O475   O     0.16666   0.79373   0.18513   0.00000  Uiso   1.00
O476   O     0.12553   0.90790   0.38435   0.00000  Uiso   1.00
C477   C     0.42067   0.83333   0.24997   0.00000  Uiso   1.00
C478   C     0.37607   0.83333   0.24997   0.00000  Uiso   1.00
C479   C     0.47494   0.69145   0.22182   0.00000  Uiso   1.00
C480   C     0.52504   0.97522   0.27820   0.00000  Uiso   1.00
C481   C     0.52504   0.69154   0.27820   0.00000  Uiso   1.00
C482   C     0.47494   0.97513   0.22182   0.00000  Uiso   1.00
C483   C     0.50111   0.83326   0.16431   0.00000  Uiso   1.00
C484   C     0.49807   0.83334   0.33568   0.00000  Uiso   1.00
C485   C     0.50695   0.79331   0.40673   0.00000  Uiso   1.00
C486   C     0.48102   0.86870   0.09358   0.00000  Uiso   1.00
C487   C     0.49290   0.83260   0.38401   0.00000  Uiso   1.00
C488   C     0.57933   0.83334   0.25002   0.00000  Uiso   1.00
C489   C     0.50119   0.83274   0.11579   0.00000  Uiso   1.00
C490   C     0.47339   0.86939   0.40712   0.00000  Uiso   1.00
C491   C     0.51839   0.79494   0.09214   0.00000  Uiso   1.00
C492   C     0.47068   0.86768   0.45409   0.00000  Uiso   1.00
C493   C     0.51130   0.79101   0.04589   0.00000  Uiso   1.00
C494   C     0.48837   0.82870   0.47683   0.00000  Uiso   1.00
C495   C     0.49124   0.82876   0.02347   0.00000  Uiso   1.00
C496   C     0.50403   0.79000   0.45276   0.00000  Uiso   1.00
C497   C     0.47519   0.86726   0.04765   0.00000  Uiso   1.00
C498   C     0.45085   0.90359   0.47904   0.00000  Uiso   1.00
C499   C     0.45328   0.90342   0.02571   0.00000  Uiso   1.00
C500   C     0.52312   0.75041   0.02144   0.00000  Uiso   1.00
C501   C     0.42437   0.93965   0.45772   0.00000  Uiso   1.00
C502   C     0.53858   0.70745   0.04375   0.00000  Uiso   1.00
C503   C     0.43086   0.94037   0.05105   0.00000  Uiso   1.00
C504   C     0.52813   0.70538   0.45040   0.00000  Uiso   1.00
C505   C     0.51819   0.74941   0.47503   0.00000  Uiso   1.00
C506   C     0.35460   0.79070   0.24944   0.00000  Uiso   1.00
C507   C     0.64540   0.87597   0.25053   0.00000  Uiso   1.00
C508   C     0.64537   0.79071   0.24947   0.00000  Uiso   1.00
C509   C     0.35464   0.87596   0.25050   0.00000  Uiso   1.00
C510   C     0.62394   0.83334   0.25001   0.00000  Uiso   1.00
Cu511  Cu    0.50000   0.88022   0.25000   0.00000  Uiso   1.00
Cu512  Cu    0.50000   0.78645   0.25000   0.00000  Uiso   1.00
H513   H     0.52235   0.76615   0.38802   0.00000  Uiso   1.00
H514   H     0.45488   0.95634   0.19926   0.00000  Uiso   1.00
H515   H     0.44234   0.89620   0.35894   0.00000  Uiso   1.00
H516   H     0.55908   0.77917   0.13709   0.00000  Uiso   1.00
H517   H     0.43068   0.97664   0.46282   0.00000  Uiso   1.00
H518   H     0.56930   0.70682   0.05793   0.00000  Uiso   1.00
H519   H     0.43359   0.97693   0.04156   0.00000  Uiso   1.00
H520   H     0.55470   0.68455   0.45980   0.00000  Uiso   1.00
H521   H     0.46975   0.89788   0.11296   0.00000  Uiso   1.00
H522   H     0.37060   0.75738   0.24899   0.00000  Uiso   1.00
H523   H     0.62940   0.90930   0.25098   0.00000  Uiso   1.00
H524   H     0.62934   0.75738   0.24904   0.00000  Uiso   1.00
H525   H     0.37067   0.90929   0.25092   0.00000  Uiso   1.00
H526   H     0.45488   0.71017   0.19927   0.00000  Uiso   1.00
H527   H     0.54510   0.95650   0.30076   0.00000  Uiso   1.00
H528   H     0.54509   0.71032   0.30077   0.00000  Uiso   1.00
N529   N     0.50000   0.95069   0.25000   0.00000  Uiso   1.00
N530   N     0.50000   0.71598   0.25000   0.00000  Uiso   1.00
O531   O     0.43988   0.87291   0.24999   0.00000  Uiso   1.00
O532   O     0.54327   0.76279   0.11354   0.00000  Uiso   1.00
O533   O     0.39426   0.92801   0.43600   0.00000  Uiso   1.00
O534   O     0.51713   0.67236   0.04565   0.00000  Uiso   1.00
O535   O     0.40758   0.92993   0.08118   0.00000  Uiso   1.00
O536   O     0.50557   0.69088   0.42094   0.00000  Uiso   1.00
O537   O     0.56012   0.79375   0.25001   0.00000  Uiso   1.00
O538   O     0.56012   0.87291   0.25001   0.00000  Uiso   1.00
O539   O     0.43988   0.79375   0.25000   0.00000  Uiso   1.00
O540   O     0.49999   0.87293   0.18513   0.00000  Uiso   1.00
O541   O     0.50001   0.79373   0.31487   0.00000  Uiso   1.00
O542   O     0.50001   0.87293   0.31487   0.00000  Uiso   1.00
O543   O     0.49999   0.79373   0.18513   0.00000  Uiso   1.00
O544   O     0.45886   0.90790   0.38435   0.00000  Uiso   1.00
C545   C     0.75400   0.83333   0.24997   0.00000  Uiso   1.00
C546   C     0.70940   0.83333   0.24997   0.00000  Uiso   1.00
C547   C     0.80828   0.69145   0.22182   0.00000  Uiso   1.00
C548   C     0.85838   0.97522   0.27820   0.00000  Uiso   1.00
C549   C     0.85838   0.69154   0.27820   0.00000  Uiso   1.00
C550   C     0.80827   0.97513   0.22182   0.00000  Uiso   1.00
C551   C     0.83445   0.83326   0.16431   0.00000  Uiso   1.00
C552   C     0.83140   0.83334   0.33568   0.00000  Uiso   1.00
C553   C     0.84028   0.79331   0.40673   0.00000  Uiso   1.00
C554   C     0.81436   0.86870   0.09358   0.00000  Uiso   1.00
C555   C     0.82623   0.83260   0.38401   0.00000  Uiso   1.00
C556   C     0.91266   0.83334   0.25002   0.00000  Uiso   1.00
C557   C     0.83452   0.83274   0.11579   0.00000  Uiso   1.00
C558   C     0.80673   0.86939   0.40712   0.00000  Uiso   1.00
C559   C     0.85172   0.79494   0.09214   0.00000  Uiso   1.00
C560   C     0.80402   0.86768   0.45409   0.00000  Uiso   1.00
C561   C     0.84464   0.79101   0.04589   0.00000  Uiso   1.00
C562   C     0.82170   0.82870   0.47683   0.00000  Uiso   1.00
C563   C     0.82457   0.82876   0.02347   0.00000  Uiso   1.00
C564   C     0.83736   0.79000   0.45276   0.00000  Uiso   1.00
C565   C     0.80853   0.86726   0.04765   0.00000  Uiso   1.00
C566   C     0.78418   0.90359   0.47904   0.00000  Uiso   1.00
C567   C     0.78661   0.90342   0.02571   0.00000  Uiso   1.00
C568   C     0.85645   0.75041   0.02144   0.00000  Uiso   1.00
C569   C     0.75770   0.93965   0.45772   0.00000  Uiso   1.00
C570   C     0.87191   0.70745   0.04375   0.00000  Uiso   1.00
C571   C     0.76420   0.94037   0.05105   0.00000  Uiso   1.00
C572   C     0.86146   0.70538   0.45040   0.00000  Uiso   1.00
C573   C     0.85152   0.74941   0.47503   0.00000  Uiso   1.00
C574   C     0.68793   0.79070   0.24944   0.00000  Uiso   1.00
C575   C     0.97874   0.87597   0.25053   0.00000  Uiso   1.00
C576   C     0.97870   0.79071   0.24947   0.00000  Uiso   1.00
C577   C     0.68797   0.87596   0.25050   0.00000  Uiso   1.00
C578   C     0.95727   0.83334   0.25001   0.00000  Uiso   1.00
Cu579  Cu    0.83333   0.88022   0.25000   0.00000  Uiso   1.00
Cu580  Cu    0.83333   0.78645   0.25000   0.00000  Uiso   1.00
H581   H     0.85568   0.76615   0.38802   0.00000  Uiso   1.00
H582   H     0.78821   0.95634   0.19926   0.00000  Uiso   1.00
H583   H     0.77567   0.89620   0.35894   0.00000  Uiso   1.00
H584   H     0.89241   0.77917   0.13709   0.00000  Uiso   1.00
H585   H     0.76401   0.97664   0.46282   0.00000  Uiso   1.00
H586   H     0.90264   0.70682   0.05793   0.00000  Uiso   1.00
H587   H     0.76692   0.97693   0.04156   0.00000  Uiso   1.00
H588   H     0.88803   0.68455   0.45980   0.00000  Uiso   1.00
H589   H     0.80309   0.89788   0.11296   0.00000  Uiso   1.00
H590   H     0.70393   0.75738   0.24899   0.00000  Uiso   1.00
H591   H     0.96274   0.90930   0.25098   0.00000  Uiso   1.00
H592   H     0.96267   0.75738   0.24904   0.00000  Uiso   1.00
H593   H     0.70400   0.90929   0.25092   0.00000  Uiso   1.00
H594   H     0.78821   0.71017   0.19927   0.00000  Uiso   1.00
H595   H     0.87843   0.95650   0.30076   0.00000  Uiso   1.00
H596   H     0.87842   0.71032   0.30077   0.00000  Uiso   1.00
N597   N     0.83333   0.95069   0.25000   0.00000  Uiso   1.00
N598   N     0.83333   0.71598   0.25000   0.00000  Uiso   1.00
O599   O     0.77321   0.87291   0.24999   0.00000  Uiso   1.00
O600   O     0.87661   0.76279   0.11354   0.00000  Uiso   1.00
O601   O     0.72760   0.92801   0.43600   0.00000  Uiso   1.00
O602   O     0.85046   0.67236   0.04565   0.00000  Uiso   1.00
O603   O     0.74091   0.92993   0.08118   0.00000  Uiso   1.00
O604   O     0.83890   0.69088   0.42094   0.00000  Uiso   1.00
O605   O     0.89345   0.79375   0.25001   0.00000  Uiso   1.00
O606   O     0.89345   0.87291   0.25001   0.00000  Uiso   1.00
O607   O     0.77321   0.79375   0.25000   0.00000  Uiso   1.00
O608   O     0.83332   0.87293   0.18513   0.00000  Uiso   1.00
O609   O     0.83334   0.79373   0.31487   0.00000  Uiso   1.00
O610   O     0.83334   0.87293   0.31487   0.00000  Uiso   1.00
O611   O     0.83332   0.79373   0.18513   0.00000  Uiso   1.00
O612   O     0.79220   0.90790   0.38435   0.00000  Uiso   1.00
C613   C     0.08734   0.16666   0.74997   0.00000  Uiso   1.00
C614   C     0.04273   0.16666   0.74997   0.00000  Uiso   1.00
C615   C     0.14161   0.02478   0.72182   0.00000  Uiso   1.00
C616   C     0.19171   0.30855   0.77820   0.00000  Uiso   1.00
C617   C     0.19171   0.02487   0.77820   0.00000  Uiso   1.00
C618   C     0.14161   0.30846   0.72182   0.00000  Uiso   1.00
C619   C     0.16778   0.16660   0.66431   0.00000  Uiso   1.00
C620   C     0.16473   0.16667   0.83568   0.00000  Uiso   1.00
C621   C     0.17361   0.12664   0.90673   0.00000  Uiso   1.00
C622   C     0.14769   0.20204   0.59358   0.00000  Uiso   1.00
C623   C     0.15957   0.16593   0.88401   0.00000  Uiso   1.00
C624   C     0.24600   0.16667   0.75002   0.00000  Uiso   1.00
C625   C     0.16786   0.16607   0.61579   0.00000  Uiso   1.00
C626   C     0.14006   0.20272   0.90712   0.00000  Uiso   1.00
C627   C     0.18505   0.12827   0.59214   0.00000  Uiso   1.00
C628   C     0.13735   0.20102   0.95409   0.00000  Uiso   1.00
C629   C     0.17797   0.12435   0.54589   0.00000  Uiso   1.00
C630   C     0.15504   0.16203   0.97683   0.00000  Uiso   1.00
C631   C     0.15791   0.16209   0.52347   0.00000  Uiso   1.00
C632   C     0.17069   0.12333   0.95276   0.00000  Uiso   1.00
C633   C     0.14186   0.20060   0.54765   0.00000  Uiso   1.00
C634   C     0.11752   0.23692   0.97904   0.00000  Uiso   1.00
C635   C     0.11994   0.23675   0.52571   0.00000  Uiso   1.00
C636   C     0.18978   0.08375   0.52144   0.00000  Uiso   1.00
C637   C     0.09104   0.27298   0.95772   0.00000  Uiso   1.00
C638   C     0.20525   0.04079   0.54375   0.00000  Uiso   1.00
C639   C     0.09753   0.27371   0.55105   0.00000  Uiso   1.00
C640   C     0.19479   0.03871   0.95040   0.00000  Uiso   1.00
C641   C     0.18485   0.08275   0.97503   0.00000  Uiso   1.00
C642   C     0.02127   0.12404   0.74944   0.00000  Uiso   1.00
C643   C     0.31207   0.20930   0.75053   0.00000  Uiso   1.00
C644   C     0.31203   0.12404   0.74947   0.00000  Uiso   1.00
C645   C     0.02130   0.20930   0.75050   0.00000  Uiso   1.00
C646   C     0.29060   0.16667   0.75001   0.00000  Uiso   1.00
Cu647  Cu    0.16667   0.21355   0.75000   0.00000  Uiso   1.00
Cu648  Cu    0.16667   0.11978   0.75000   0.00000  Uiso   1.00
H649   H     0.18902   0.09948   0.88802   0.00000  Uiso   1.00
H650   H     0.12154   0.28967   0.69926   0.00000  Uiso   1.00
H651   H     0.10900   0.22953   0.85894   0.00000  Uiso   1.00
H652   H     0.22574   0.11251   0.63709   0.00000  Uiso   1.00
H653   H     0.09734   0.30998   0.96282   0.00000  Uiso   1.00
H654   H     0.23597   0.04015   0.55793   0.00000  Uiso   1.00
H655   H     0.10026   0.31027   0.54156   0.00000  Uiso   1.00
H656   H     0.22136   0.01789   0.95980   0.00000  Uiso   1.00
H657   H     0.13642   0.23121   0.61296   0.00000  Uiso   1.00
H658   H     0.03727   0.09071   0.74899   0.00000  Uiso   1.00
H659   H     0.29607   0.24263   0.75098   0.00000  Uiso   1.00
H660   H     0.29601   0.09072   0.74904   0.00000  Uiso   1.00
H661   H     0.03733   0.24262   0.75092   0.00000  Uiso   1.00
H662   H     0.12154   0.04350   0.69927   0.00000  Uiso   1.00
H663   H     0.21176   0.28983   0.80076   0.00000  Uiso   1.00
H664   H     0.21176   0.04366   0.80077   0.00000  Uiso   1.00
N665   N     0.16667   0.28402   0.75000   0.00000  Uiso   1.00
N666   N     0.16667   0.04931   0.75000   0.00000  Uiso   1.00
O667   O     0.10655   0.20625   0.74999   0.00000  Uiso   1.00
O668   O     0.20994   0.09612   0.61354   0.00000  Uiso   1.00
O669   O     0.06093   0.26134   0.93600   0.00000  Uiso   1.00
O670   O     0.18379   0.00569   0.54565   0.00000  Uiso   1.00
O671   O     0.07425   0.26327   0.58118   0.00000  Uiso   1.00
O672   O     0.17223   0.02421   0.92094   0.00000  Uiso   1.00
O673   O     0.22679   0.12709   0.75001   0.00000  Uiso   1.00
O674   O     0.22679   0.20625   0.75001   0.00000  Uiso   1.00
O675   O     0.10655   0.12709   0.75000   0.00000  Uiso   1.00
O676   O     0.16666   0.20627   0.68513   0.00000  Uiso   1.00
O677   O     0.16668   0.12707   0.81487   0.00000  Uiso   1.00
O678   O     0.16668   0.20627   0.81487   0.00000  Uiso   1.00
O679   O     0.16666   0.12707   0.68513   0.00000  Uiso   1.00
O680   O     0.12553   0.24124   0.88435   0.00000  Uiso   1.00
C681   C     0.42067   0.16666   0.74997   0.00000  Uiso   1.00
C682   C     0.37607   0.16666   0.74997   0.00000  Uiso   1.00
C683   C     0.47494   0.02478   0.72182   0.00000  Uiso   1.00
C684   C     0.52504   0.30855   0.77820   0.00000  Uiso   1.00
C685   C     0.52504   0.02487   0.77820   0.00000  Uiso   1.00
C686   C     0.47494   0.30846   0.72182   0.00000  Uiso   1.00
C687   C     0.50111   0.16660   0.66431   0.00000  Uiso   1.00
C688   C     0.49807   0.16667   0.83568   0.00000  Uiso   1.00
C689   C     0.50695   0.12664   0.90673   0.00000  Uiso   1.00
C690   C     0.48102   0.20204   0.59358   0.00000  Uiso   1.00
C691   C     0.49290   0.16593   0.88401   0.00000  Uiso   1.00
C692   C     0.57933   0.16667   0.75002   0.00000  Uiso   1.00
C693   C     0.50119   0.16607   0.61579   0.00000  Uiso   1.00
C694   C     0.47339   0.20272   0.90712   0.00000  Uiso   1.00
C695   C     0.51839   0.12827   0.59214   0.00000  Uiso   1.00
C696   C     0.47068   0.20102   0.95409   0.00000  Uiso   1.00
C697   C     0.51130   0.12435   0.54589   0.00000  Uiso   1.00
C698   C     0.48837   0.16203   0.97683   0.00000  Uiso   1.00
C699   C     0.49124   0.16209   0.52347   0.00000  Uiso   1.00
C700   C     0.50403   0.12333   0.95276   0.00000  Uiso   1.00
C701   C     0.47519   0.20060   0.54765   0.00000  Uiso   1.00
C702   C     0.45085   0.23692   0.97904   0.00000  Uiso   1.00
C703   C     0.45328   0.23675   0.52571   0.00000  Uiso   1.00
C704   C     0.52312   0.08375   0.52144   0.00000  Uiso   1.00
C705   C     0.42437   0.27298   0.95772   0.00000  Uiso   1.00
C706   C     0.53858   0.04079   0.54375   0.00000  Uiso   1.00
C707   C     0.43086   0.27371   0.55105   0.00000  Uiso   1.00
C708   C     0.52813   0.03871   0.95040   0.00000  Uiso   1.00
C709   C     0.51819   0.08275   0.97503   0.00000  Uiso   1.00
C710   C     0.35460   0.12404   0.74944   0.00000  Uiso   1.00
C711   C     0.64540   0.20930   0.75053   0.00000  Uiso   1.00
C712   C     0.64537   0.12404   0.74947   0.00000  Uiso   1.00
C713   C     0.35464   0.20930   0.75050   0.00000  Uiso   1.00
C714   C     0.62394   0.16667   0.75001   0.00000  Uiso   1.00
Cu715  Cu    0.50000   0.21355   0.75000   0.00000  Uiso   1.00
Cu716  Cu    0.50000   0.11978   0.75000   0.00000  Uiso   1.00
H717   H     0.52235   0.09948   0.88802   0.00000  Uiso   1.00
H718   H     0.45488   0.28967   0.69926   0.00000  Uiso   1.00
H719   H     0.44234   0.22953   0.85894   0.00000  Uiso   1.00
H720   H     0.55908   0.11251   0.63709   0.00000  Uiso   1.00
H721   H     0.43068   0.30998   0.96282   0.00000  Uiso   1.00
H722   H     0.56930   0.04015   0.55793   0.00000  Uiso   1.00
H723   H     0.43359   0.31027   0.54156   0.00000  Uiso   1.00
H724   H     0.55470   0.01789   0.95980   0.00000  Uiso   1.00
H725   H     0.46975   0.23121   0.61296   0.00000  Uiso   1.00
H726   H     0.37060   0.09071   0.74899   0.00000  Uiso   1.00
H727   H     0.62940   0.24263   0.75098   0.00000  Uiso   1.00
H728   H     0.62934   0.09072   0.74904   0.00000  Uiso   1.00
H729   H     0.37067   0.24262   0.75092   0.00000  Uiso   1.00
H730   H     0.45488   0.04350   0.69927   0.00000  Uiso   1.00
H731   H     0.54510   0.28983   0.80076   0.00000  Uiso   1.00
H732   H     0.54509   0.04366   0.80077   0.00000  Uiso   1.00
N733   N     0.50000   0.28402   0.75000   0.00000  Uiso   1.00
N734   N     0.50000   0.04931   0.75000   0.00000  Uiso   1.00
O735   O     0.43988   0.20625   0.74999   0.00000  Uiso   1.00
O736   O     0.54327   0.09612   0.61354   0.00000  Uiso   1.00
O737   O     0.39426   0.26134   0.93600   0.00000  Uiso   1.00
O738   O     0.51713   0.00569   0.54565   0.00000  Uiso   1.00
O739   O     0.40758   0.26327   0.58118   0.00000  Uiso   1.00
O740   O     0.50557   0.02421   0.92094   0.00000  Uiso   1.00
O741   O     0.56012   0.12709   0.75001   0.00000  Uiso   1.00
O742   O     0.56012   0.20625   0.75001   0.00000  Uiso   1.00
O743   O     0.43988   0.12709   0.75000   0.00000  Uiso   1.00
O744   O     0.49999   0.20627   0.68513   0.00000  Uiso   1.00
O745   O     0.50001   0.12707   0.81487   0.00000  Uiso   1.00
O746   O     0.50001   0.20627   0.81487   0.00000  Uiso   1.00
O747   O     0.49999   0.12707   0.68513   0.00000  Uiso   1.00
O748   O     0.45886   0.24124   0.88435   0.00000  Uiso   1.00
C749   C     0.75400   0.16666   0.74997   0.00000  Uiso   1.00
C750   C     0.70940   0.16666   0.74997   0.00000  Uiso   1.00
C751   C     0.80828   0.02478   0.72182   0.00000  Uiso   1.00
C752   C     0.85838   0.30855   0.77820   0.00000  Uiso   1.00
C753   C     0.85838   0.02487   0.77820   0.00000  Uiso   1.00
C754   C     0.80827   0.30846   0.72182   0.00000  Uiso   1.00
C755   C     0.83445   0.16660   0.66431   0.00000  Uiso   1.00
C756   C     0.83140   0.16667   0.83568   0.00000  Uiso   1.00
C757   C     0.84028   0.12664   0.90673   0.00000  Uiso   1.00
C758   C     0.81436   0.20204   0.59358   0.00000  Uiso   1.00
C759   C     0.82623   0.16593   0.88401   0.00000  Uiso   1.00
C760   C     0.91266   0.16667   0.75002   0.00000  Uiso   1.00
C761   C     0.83452   0.16607   0.61579   0.00000  Uiso   1.00
C762   C     0.80673   0.20272   0.90712   0.00000  Uiso   1.00
C763   C     0.85172   0.12827   0.59214   0.00000  Uiso   1.00
C764   C     0.80402   0.20102   0.95409   0.00000  Uiso   1.00
C765   C     0.84464   0.12435   0.54589   0.00000  Uiso   1.00
C766   C     0.82170   0.16203   0.97683   0.00000  Uiso   1.00
C767   C     0.82457   0.16209   0.52347   0.00000  Uiso   1.00
C768   C     0.83736   0.12333   0.95276   0.00000  Uiso   1.00
C769   C     0.80853   0.20060   0.54765   0.00000  Uiso   1.00
C770   C     0.78418   0.23692   0.97904   0.00000  Uiso   1.00
C771   C     0.78661   0.23675   0.52571   0.00000  Uiso   1.00
C772   C     0.85645   0.08375   0.52144   0.00000  Uiso   1.00
C773   C     0.75770   0.27298   0.95772   0.00000  Uiso   1.00
C774   C     0.87191   0.04079   0.54375   0.00000  Uiso   1.00
C775   C     0.76420   0.27371   0.55105   0.00000  Uiso   1.00
C776   C     0.86146   0.03871   0.95040   0.00000  Uiso   1.00
C777   C     0.85152   0.08275   0.97503   0.00000  Uiso   1.00
C778   C     0.68793   0.12404   0.74944   0.00000  Uiso   1.00
C779   C     0.97874   0.20930   0.75053   0.00000  Uiso   1.00
C780   C     0.97870   0.12404   0.74947   0.00000  Uiso   1.00
C781   C     0.68797   0.20930   0.75050   0.00000  Uiso   1.00
C782   C     0.95727   0.16667   0.75001   0.00000  Uiso   1.00
Cu783  Cu    0.83333   0.21355   0.75000   0.00000  Uiso   1.00
Cu784  Cu    0.83333   0.11978   0.75000   0.00000  Uiso   1.00
H785   H     0.85568   0.09948   0.88802   0.00000  Uiso   1.00
H786   H     0.78821   0.28967   0.69926   0.00000  Uiso   1.00
H787   H     0.77567   0.22953   0.85894   0.00000  Uiso   1.00
H788   H     0.89241   0.11251   0.63709   0.00000  Uiso   1.00
H789   H     0.76401   0.30998   0.96282   0.00000  Uiso   1.00
H790   H     0.90264   0.04015   0.55793   0.00000  Uiso   1.00
H791   H     0.76692   0.31027   0.54156   0.00000  Uiso   1.00
H792   H     0.88803   0.01789   0.95980   0.00000  Uiso   1.00
H793   H     0.80309   0.23121   0.61296   0.00000  Uiso   1.00
H794   H     0.70393   0.09071   0.74899   0.00000  Uiso   1.00
H795   H     0.96274   0.24263   0.75098   0.00000  Uiso   1.00
H796   H     0.96267   0.09072   0.74904   0.00000  Uiso   1.00
H797   H     0.70400   0.24262   0.75092   0.00000  Uiso   1.00
H798   H     0.78821   0.04350   0.69927   0.00000  Uiso   1.00
H799   H     0.87843   0.28983   0.80076   0.00000  Uiso   1.00
H800   H     0.87842   0.04366   0.80077   0.00000  Uiso   1.00
N801   N     0.83333   0.28402   0.75000   0.00000  Uiso   1.00
N802   N     0.83333   0.04931   0.75000   0.00000  Uiso   1.00
O803   O     0.77321   0.20625   0.74999   0.00000  Uiso   1.00
O804   O     0.87661   0.09612   0.61354   0.00000  Uiso   1.00
O805   O     0.72760   0.26134   0.93600   0.00000  Uiso   1.00
O806   O     0.85046   0.00569   0.54565   0.00000  Uiso   1.00
O807   O     0.74091   0.26327   0.58118   0.00000  Uiso   1.00
O808   O     0.83890   0.02421   0.92094   0.00000  Uiso   1.00
O809   O     0.89345   0.12709   0.75001   0.00000  Uiso   1.00
O810   O     0.89345   0.20625   0.75001   0.00000  Uiso   1.00
O811   O     0.77321   0.12709   0.75000   0.00000  Uiso   1.00
O812   O     0.83332   0.20627   0.68513   0.00000  Uiso   1.00
O813   O     0.83334   0.12707   0.81487   0.00000  Uiso   1.00
O814   O     0.83334   0.20627   0.81487   0.00000  Uiso   1.00
O815   O     0.83332   0.12707   0.68513   0.00000  Uiso   1.00
O816   O     0.79220   0.24124   0.88435   0.00000  Uiso   1.00
C817   C     0.08734   0.50000   0.74997   0.00000  Uiso   1.00
C818   C     0.04273   0.50000   0.74997   0.00000  Uiso   1.00
C819   C     0.14161   0.35812   0.72182   0.00000  Uiso   1.00
C820   C     0.19171   0.64188   0.77820   0.00000  Uiso   1.00
C821   C     0.19171   0.35820   0.77820   0.00000  Uiso   1.00
C822   C     0.14161   0.64180   0.72182   0.00000  Uiso   1.00
C823   C     0.16778   0.49993   0.66431   0.00000  Uiso   1.00
C824   C     0.16473   0.50001   0.83568   0.00000  Uiso   1.00
C825   C     0.17361   0.45998   0.90673   0.00000  Uiso   1.00
C826   C     0.14769   0.53537   0.59358   0.00000  Uiso   1.00
C827   C     0.15957   0.49926   0.88401   0.00000  Uiso   1.00
C828   C     0.24600   0.50001   0.75002   0.00000  Uiso   1.00
C829   C     0.16786   0.49941   0.61579   0.00000  Uiso   1.00
C830   C     0.14006   0.53605   0.90712   0.00000  Uiso   1.00
C831   C     0.18505   0.46161   0.59214   0.00000  Uiso   1.00
C832   C     0.13735   0.53435   0.95409   0.00000  Uiso   1.00
C833   C     0.17797   0.45768   0.54589   0.00000  Uiso   1.00
C834   C     0.15504   0.49536   0.97683   0.00000  Uiso   1.00
C835   C     0.15791   0.49542   0.52347   0.00000  Uiso   1.00
C836   C     0.17069   0.45666   0.95276   0.00000  Uiso   1.00
C837   C     0.14186   0.53393   0.54765   0.00000  Uiso   1.00
C838   C     0.11752   0.57026   0.97904   0.00000  Uiso   1.00
C839   C     0.11994   0.57008   0.52571   0.00000  Uiso   1.00
C840   C     0.18978   0.41708   0.52144   0.00000  Uiso   1.00
C841   C     0.09104   0.60631   0.95772   0.00000  Uiso   1.00
C842   C     0.20525   0.37412   0.54375   0.00000  Uiso   1.00
C843   C     0.09753   0.60704   0.55105   0.00000  Uiso   1.00
C844   C     0.19479   0.37205   0.95040   0.00000  Uiso   1.00
C845   C     0.18485   0.41608   0.97503   0.00000  Uiso   1.00
C846   C     0.02127   0.45737   0.74944   0.00000  Uiso   1.00
C847   C     0.31207   0.54264   0.75053   0.00000  Uiso   1.00
C848   C     0.31203   0.45737   0.74947   0.00000  Uiso   1.00
C849   C     0.02130   0.54263   0.75050   0.00000  Uiso   1.00
C850   C     0.29060   0.50001   0.75001   0.00000  Uiso   1.00
Cu851  Cu    0.16667   0.54689   0.75000   0.00000  Uiso   1.00
Cu852  Cu    0.16667   0.45311   0.75000   0.00000  Uiso   1.00
H853   H     0.18902   0.43282   0.88802   0.00000  Uiso   1.00
H854   H     0.12154   0.62301   0.69926   0.00000  Uiso   1.00
H855   H     0.10900   0.56286   0.85894   0.00000  Uiso   1.00
H856   H     0.22574   0.44584   0.63709   0.00000  Uiso   1.00
H857   H     0.09734   0.64331   0.96282   0.00000  Uiso   1.00
H858   H     0.23597   0.37349   0.55793   0.00000  Uiso   1.00
H859   H     0.10026   0.64360   0.54156   0.00000  Uiso   1.00
H860   H     0.22136   0.35122   0.95980   0.00000  Uiso   1.00
H861   H     0.13642   0.56454   0.61296   0.00000  Uiso   1.00
H862   H     0.03727   0.42404   0.74899   0.00000  Uiso   1.00
H863   H     0.29607   0.57596   0.75098   0.00000  Uiso   1.00
H864   H     0.29601   0.42405   0.74904   0.00000  Uiso   1.00
H865   H     0.03733   0.57596   0.75092   0.00000  Uiso   1.00
H866   H     0.12154   0.37684   0.69927   0.00000  Uiso   1.00
H867   H     0.21176   0.62317   0.80076   0.00000  Uiso   1.00
H868   H     0.21176   0.37699   0.80077   0.00000  Uiso   1.00
N869   N     0.16667   0.61736   0.75000   0.00000  Uiso   1.00
N870   N     0.16667   0.38264   0.75000   0.00000  Uiso   1.00
O871   O     0.10655   0.53958   0.74999   0.00000  Uiso   1.00
O872   O     0.20994   0.42946   0.61354   0.00000  Uiso   1.00
O873   O     0.06093   0.59467   0.93600   0.00000  Uiso   1.00
O874   O     0.18379   0.33903   0.54565   0.00000  Uiso   1.00
O875   O     0.07425   0.59660   0.58118   0.00000  Uiso   1.00
O876   O     0.17223   0.35754   0.92094   0.00000  Uiso   1.00
O877   O     0.22679   0.46042   0.75001   0.00000  Uiso   1.00
O878   O     0.22679   0.53958   0.75001   0.00000  Uiso   1.00
O879   O     0.10655   0.46042   0.75000   0.00000  Uiso   1.00
O880   O     0.16666   0.53960   0.68513   0.00000  Uiso   1.00
O881   O     0.16668   0.46040   0.81487   0.00000  Uiso   1.00
O882   O     0.16668   0.53960   0.81487   0.00000  Uiso   1.00
O883   O     0.16666   0.46040   0.68513   0.00000  Uiso   1.00
O884   O     0.12553   0.57457   0.88435   0.00000  Uiso   1.00
C885   C     0.42067   0.50000   0.74997   0.00000  Uiso   1.00
C886   C     0.37607   0.50000   0.74997   0.00000  Uiso   1.00
C887   C     0.47494   0.35812   0.72182   0.00000  Uiso   1.00
C888   C     0.52504   0.64188   0.77820   0.00000  Uiso   1.00
C889   C     0.52504   0.35820   0.77820   0.00000  Uiso   1.00
C890   C     0.47494   0.64180   0.72182   0.00000  Uiso   1.00
C891   C     0.50111   0.49993   0.66431   0.00000  Uiso   1.00
C892   C     0.49807   0.50001   0.83568   0.00000  Uiso   1.00
C893   C     0.50695   0.45998   0.90673   0.00000  Uiso   1.00
C894   C     0.48102   0.53537   0.59358   0.00000  Uiso   1.00
C895   C     0.49290   0.49926   0.88401   0.00000  Uiso   1.00
C896   C     0.57933   0.50001   0.75002   0.00000  Uiso   1.00
C897   C     0.50119   0.49941   0.61579   0.00000  Uiso   1.00
C898   C     0.47339   0.53605   0.90712   0.00000  Uiso   1.00
C899   C     0.51839   0.46161   0.59214   0.00000  Uiso   1.00
C900   C     0.47068   0.53435   0.95409   0.00000  Uiso   1.00
C901   C     0.51130   0.45768   0.54589   0.00000  Uiso   1.00
C902   C     0.48837   0.49536   0.97683   0.00000  Uiso   1.00
C903   C     0.49124   0.49542   0.52347   0.00000  Uiso   1.00
C904   C     0.50403   0.45666   0.95276   0.00000  Uiso   1.00
C905   C     0.47519   0.53393   0.54765   0.00000  Uiso   1.00
C906   C     0.45085   0.57026   0.97904   0.00000  Uiso   1.00
C907   C     0.45328   0.57008   0.52571   0.00000  Uiso   1.00
C908   C     0.52312   0.41708   0.52144   0.00000  Uiso   1.00
C909   C     0.42437   0.60631   0.95772   0.00000  Uiso   1.00
C910   C     0.53858   0.37412   0.54375   0.00000  Uiso   1.00
C911   C     0.43086   0.60704   0.55105   0.00000  Uiso   1.00
C912   C     0.52813   0.37205   0.95040   0.00000  Uiso   1.00
C913   C     0.51819   0.41608   0.97503   0.00000  Uiso   1.00
C914   C     0.35460   0.45737   0.74944   0.00000  Uiso   1.00
C915   C     0.64540   0.54264   0.75053   0.00000  Uiso   1.00
C916   C     0.64537   0.45737   0.74947   0.00000  Uiso   1.00
C917   C     0.35464   0.54263   0.75050   0.00000  Uiso   1.00
C918   C     0.62394   0.50001   0.75001   0.00000  Uiso   1.00
Cu919  Cu    0.50000   0.54689   0.75000   0.00000  Uiso   1.00
Cu920  Cu    0.50000   0.45311   0.75000   0.00000  Uiso   1.00
H921   H     0.52235   0.43282   0.88802   0.00000  Uiso   1.00
H922   H     0.45488   0.62301   0.69926   0.00000  Uiso   1.00
H923   H     0.44234   0.56286   0.85894   0.00000  Uiso   1.00
H924   H     0.55908   0.44584   0.63709   0.00000  Uiso   1.00
H925   H     0.43068   0.64331   0.96282   0.00000  Uiso   1.00
H926   H     0.56930   0.37349   0.55793   0.00000  Uiso   1.00
H927   H     0.43359   0.64360   0.54156   0.00000  Uiso   1.00
H928   H     0.55470   0.35122   0.95980   0.00000  Uiso   1.00
H929   H     0.46975   0.56454   0.61296   0.00000  Uiso   1.00
H930   H     0.37060   0.42404   0.74899   0.00000  Uiso   1.00
H931   H     0.62940   0.57596   0.75098   0.00000  Uiso   1.00
H932   H     0.62934   0.42405   0.74904   0.00000  Uiso   1.00
H933   H     0.37067   0.57596   0.75092   0.00000  Uiso   1.00
H934   H     0.45488   0.37684   0.69927   0.00000  Uiso   1.00
H935   H     0.54510   0.62317   0.80076   0.00000  Uiso   1.00
H936   H     0.54509   0.37699   0.80077   0.00000  Uiso   1.00
N937   N     0.50000   0.61736   0.75000   0.00000  Uiso   1.00
N938   N     0.50000   0.38264   0.75000   0.00000  Uiso   1.00
O939   O     0.43988   0.53958   0.74999   0.00000  Uiso   1.00
O940   O     0.54327   0.42946   0.61354   0.00000  Uiso   1.00
O941   O     0.39426   0.59467   0.93600   0.00000  Uiso   1.00
O942   O     0.51713   0.33903   0.54565   0.00000  Uiso   1.00
O943   O     0.40758   0.59660   0.58118   0.00000  Uiso   1.00
O944   O     0.50557   0.35754   0.92094   0.00000  Uiso   1.00
O945   O     0.56012   0.46042   0.75001   0.00000  Uiso   1.00
O946   O     0.56012   0.53958   0.75001   0.00000  Uiso   1.00
O947   O     0.43988   0.46042   0.75000   0.00000  Uiso   1.00
O948   O     0.49999   0.53960   0.68513   0.00000  Uiso   1.00
O949   O     0.50001   0.46040   0.81487   0.00000  Uiso   1.00
O950   O     0.50001   0.53960   0.81487   0.00000  Uiso   1.00
O951   O     0.49999   0.46040   0.68513   0.00000  Uiso   1.00
O952   O     0.45886   0.57457   0.88435   0.00000  Uiso   1.00
C953   C     0.75400   0.50000   0.74997   0.00000  Uiso   1.00
C954   C     0.70940   0.50000   0.74997   0.00000  Uiso   1.00
C955   C     0.80828   0.35812   0.72182   0.00000  Uiso   1.00
C956   C     0.85838   0.64188   0.77820   0.00000  Uiso   1.00
C957   C     0.85838   0.35820   0.77820   0.00000  Uiso   1.00
C958   C     0.80827   0.64180   0.72182   0.00000  Uiso   1.00
C959   C     0.83445   0.49993   0.66431   0.00000  Uiso   1.00
C960   C     0.83140   0.50001   0.83568   0.00000  Uiso   1.00
C961   C     0.84028   0.45998   0.90673   0.00000  Uiso   1.00
C962   C     0.81436   0.53537   0.59358   0.00000  Uiso   1.00
C963   C     0.82623   0.49926   0.88401   0.00000  Uiso   1.00
C964   C     0.91266   0.50001   0.75002   0.00000  Uiso   1.00
C965   C     0.83452   0.49941   0.61579   0.00000  Uiso   1.00
C966   C     0.80673   0.53605   0.90712   0.00000  Uiso   1.00
C967   C     0.85172   0.46161   0.59214   0.00000  Uiso   1.00
C968   C     0.80402   0.53435   0.95409   0.00000  Uiso   1.00
C969   C     0.84464   0.45768   0.54589   0.00000  Uiso   1.00
C970   C     0.82170   0.49536   0.97683   0.00000  Uiso   1.00
C971   C     0.82457   0.49542   0.52347   0.00000  Uiso   1.00
C972   C     0.83736   0.45666   0.95276   0.00000  Uiso   1.00
C973   C     0.80853   0.53393   0.54765   0.00000  Uiso   1.00
C974   C     0.78418   0.57026   0.97904   0.00000  Uiso   1.00
C975   C     0.78661   0.57008   0.52571   0.00000  Uiso   1.00
C976   C     0.85645   0.41708   0.52144   0.00000  Uiso   1.00
C977   C     0.75770   0.60631   0.95772   0.00000  Uiso   1.00
C978   C     0.87191   0.37412   0.54375   0.00000  Uiso   1.00
C979   C     0.76420   0.60704   0.55105   0.00000  Uiso   1.00
C980   C     0.86146   0.37205   0.95040   0.00000  Uiso   1.00
C981   C     0.85152   0.41608   0.97503   0.00000  Uiso   1.00
C982   C     0.68793   0.45737   0.74944   0.00000  Uiso   1.00
C983   C     0.97874   0.54264   0.75053   0.00000  Uiso   1.00
C984   C     0.97870   0.45737   0.74947   0.00000  Uiso   1.00
C985   C     0.68797   0.54263   0.75050   0.00000  Uiso   1.00
C986   C     0.95727   0.50001   0.75001   0.00000  Uiso   1.00
Cu987  Cu    0.83333   0.54689   0.75000   0.00000  Uiso   1.00
Cu988  Cu    0.83333   0.45311   0.75000   0.00000  Uiso   1.00
H989   H     0.85568   0.43282   0.88802   0.00000  Uiso   1.00
H990   H     0.78821   0.62301   0.69926   0.00000  Uiso   1.00
H991   H     0.77567   0.56286   0.85894   0.00000  Uiso   1.00
H992   H     0.89241   0.44584   0.63709   0.00000  Uiso   1.00
H993   H     0.76401   0.64331   0.96282   0.00000  Uiso   1.00
H994   H     0.90264   0.37349   0.55793   0.00000  Uiso   1.00
H995   H     0.76692   0.64360   0.54156   0.00000  Uiso   1.00
H996   H     0.88803   0.35122   0.95980   0.00000  Uiso   1.00
H997   H     0.80309   0.56454   0.61296   0.00000  Uiso   1.00
H998   H     0.70393   0.42404   0.74899   0.00000  Uiso   1.00
H999   H     0.96274   0.57596   0.75098   0.00000  Uiso   1.00
H1000  H     0.96267   0.42405   0.74904   0.00000  Uiso   1.00
H1001  H     0.70400   0.57596   0.75092   0.00000  Uiso   1.00
H1002  H     0.78821   0.37684   0.69927   0.00000  Uiso   1.00
H1003  H     0.87843   0.62317   0.80076   0.00000  Uiso   1.00
H1004  H     0.87842   0.37699   0.80077   0.00000  Uiso   1.00
N1005  N     0.83333   0.61736   0.75000   0.00000  Uiso   1.00
N1006  N     0.83333   0.38264   0.75000   0.00000  Uiso   1.00
O1007  O     0.77321   0.53958   0.74999   0.00000  Uiso   1.00
O1008  O     0.87661   0.42946   0.61354   0.00000  Uiso   1.00
O1009  O     0.72760   0.59467   0.93600   0.00000  Uiso   1.00
O1010  O     0.85046   0.33903   0.54565   0.00000  Uiso   1.00
O1011  O     0.74091   0.59660   0.58118   0.00000  Uiso   1.00
O1012  O     0.83890   0.35754   0.92094   0.00000  Uiso   1.00
O1013  O     0.89345   0.46042   0.75001   0.00000  Uiso   1.00
O1014  O     0.89345   0.53958   0.75001   0.00000  Uiso   1.00
O1015  O     0.77321   0.46042   0.75000   0.00000  Uiso   1.00
O1016  O     0.83332   0.53960   0.68513   0.00000  Uiso   1.00
O1017  O     0.83334   0.46040   0.81487   0.00000  Uiso   1.00
O1018  O     0.83334   0.53960   0.81487   0.00000  Uiso   1.00
O1019  O     0.83332   0.46040   0.68513   0.00000  Uiso   1.00
O1020  O     0.79220   0.57457   0.88435   0.00000  Uiso   1.00
C1021  C     0.08734   0.83333   0.74997   0.00000  Uiso   1.00
C1022  C     0.04273   0.83333   0.74997   0.00000  Uiso   1.00
C1023  C     0.14161   0.69145   0.72182   0.00000  Uiso   1.00
C1024  C     0.19171   0.97522   0.77820   0.00000  Uiso   1.00
C1025  C     0.19171   0.69154   0.77820   0.00000  Uiso   1.00
C1026  C     0.14161   0.97513   0.72182   0.00000  Uiso   1.00
C1027  C     0.16778   0.83326   0.66431   0.00000  Uiso   1.00
C1028  C     0.16473   0.83334   0.83568   0.00000  Uiso   1.00
C1029  C     0.17361   0.79331   0.90673   0.00000  Uiso   1.00
C1030  C     0.14769   0.86870   0.59358   0.00000  Uiso   1.00
C1031  C     0.15957   0.83260   0.88401   0.00000  Uiso   1.00
C1032  C     0.24600   0.83334   0.75002   0.00000  Uiso   1.00
C1033  C     0.16786   0.83274   0.61579   0.00000  Uiso   1.00
C1034  C     0.14006   0.86939   0.90712   0.00000  Uiso   1.00
C1035  C     0.18505   0.79494   0.59214   0.00000  Uiso   1.00
C1036  C     0.13735   0.86768   0.95409   0.00000  Uiso   1.00
C1037  C     0.17797   0.79101   0.54589   0.00000  Uiso   1.00
C1038  C     0.15504   0.82870   0.97683   0.00000  Uiso   1.00
C1039  C     0.15791   0.82876   0.52347   0.00000  Uiso   1.00
C1040  C     0.17069   0.79000   0.95276   0.00000  Uiso   1.00
C1041  C     0.14186   0.86726   0.54765   0.00000  Uiso   1.00
C1042  C     0.11752   0.90359   0.97904   0.00000  Uiso   1.00
C1043  C     0.11994   0.90342   0.52571   0.00000  Uiso   1.00
C1044  C     0.18978   0.75041   0.52144   0.00000  Uiso   1.00
C1045  C     0.09104   0.93965   0.95772   0.00000  Uiso   1.00
C1046  C     0.20525   0.70745   0.54375   0.00000  Uiso   1.00
C1047  C     0.09753   0.94037   0.55105   0.00000  Uiso   1.00
C1048  C     0.19479   0.70538   0.95040   0.00000  Uiso   1.00
C1049  C     0.18485   0.74941   0.97503   0.00000  Uiso   1.00
C1050  C     0.02127   0.79070   0.74944   0.00000  Uiso   1.00
C1051  C     0.31207   0.87597   0.75053   0.00000  Uiso   1.00
C1052  C     0.31203   0.79071   0.74947   0.00000  Uiso   1.00
C1053  C     0.02130   0.87596   0.75050   0.00000  Uiso   1.00
C1054  C     0.29060   0.83334   0.75001   0.00000  Uiso   1.00
Cu1055 Cu    0.16667   0.88022   0.75000   0.00000  Uiso   1.00
Cu1056 Cu    0.16667   0.78645   0.75000   0.00000  Uiso   1.00
H1057  H     0.18902   0.76615   0.88802   0.00000  Uiso   1.00
H1058  H     0.12154   0.95634   0.69926   0.00000  Uiso   1.00
H1059  H     0.10900   0.89620   0.85894   0.00000  Uiso   1.00
H1060  H     0.22574   0.77917   0.63709   0.00000  Uiso   1.00
H1061  H     0.09734   0.97664   0.96282   0.00000  Uiso   1.00
H1062  H     0.23597   0.70682   0.55793   0.00000  Uiso   1.00
H1063  H     0.10026   0.97693   0.54156   0.00000  Uiso   1.00
H1064  H     0.22136   0.68455   0.95980   0.00000  Uiso   1.00
H1065  H     0.13642   0.89788   0.61296   0.00000  Uiso   1.00
H1066  H     0.03727   0.75738   0.74899   0.00000  Uiso   1.00
H1067  H     0.29607   0.90930   0.75098   0.00000  Uiso   1.00
H1068  H     0.29601   0.75738   0.74904   0.00000  Uiso   1.00
H1069  H     0.03733   0.90929   0.75092   0.00000  Uiso   1.00
H1070  H     0.12154   0.71017   0.69927   0.00000  Uiso   1.00
H1071  H     0.21176   0.95650   0.80076   0.00000  Uiso   1.00
H1072  H     0.21176   0.71032   0.80077   0.00000  Uiso   1.00
N1073  N     0.16667   0.95069   0.75000   0.00000  Uiso   1.00
N1074  N     0.16667   0.71598   0.75000   0.00000  Uiso   1.00
O1075  O     0.10655   0.87291   0.74999   0.00000  Uiso   1.00
O1076  O     0.20994   0.76279   0.61354   0.00000  Uiso   1.00
O1077  O     0.06093   0.92801   0.93600   0.00000  Uiso   1.00
O1078  O     0.18379   0.67236   0.54565   0.00000  Uiso   1.00
O1079  O     0.07425   0.92993   0.58118   0.00000  Uiso   1.00
O1080  O     0.17223   0.69088   0.92094   0.00000  Uiso   1.00
O1081  O     0.22679   0.79375   0.75001   0.00000  Uiso   1.00
O1082  O     0.22679   0.87291   0.75001   0.00000  Uiso   1.00
O1083  O     0.10655   0.79375   0.75000   0.00000  Uiso   1.00
O1084  O     0.16666   0.87293   0.68513   0.00000  Uiso   1.00
O1085  O     0.16668   0.79373   0.81487   0.00000  Uiso   1.00
O1086  O     0.16668   0.87293   0.81487   0.00000  Uiso   1.00
O1087  O     0.16666   0.79373   0.68513   0.00000  Uiso   1.00
O1088  O     0.12553   0.90790   0.88435   0.00000  Uiso   1.00
C1089  C     0.42067   0.83333   0.74997   0.00000  Uiso   1.00
C1090  C     0.37607   0.83333   0.74997   0.00000  Uiso   1.00
C1091  C     0.47494   0.69145   0.72182   0.00000  Uiso   1.00
C1092  C     0.52504   0.97522   0.77820   0.00000  Uiso   1.00
C1093  C     0.52504   0.69154   0.77820   0.00000  Uiso   1.00
C1094  C     0.47494   0.97513   0.72182   0.00000  Uiso   1.00
C1095  C     0.50111   0.83326   0.66431   0.00000  Uiso   1.00
C1096  C     0.49807   0.83334   0.83568   0.00000  Uiso   1.00
C1097  C     0.50695   0.79331   0.90673   0.00000  Uiso   1.00
C1098  C     0.48102   0.86870   0.59358   0.00000  Uiso   1.00
C1099  C     0.49290   0.83260   0.88401   0.00000  Uiso   1.00
C1100  C     0.57933   0.83334   0.75002   0.00000  Uiso   1.00
C1101  C     0.50119   0.83274   0.61579   0.00000  Uiso   1.00
C1102  C     0.47339   0.86939   0.90712   0.00000  Uiso   1.00
C1103  C     0.51839   0.79494   0.59214   0.00000  Uiso   1.00
C1104  C     0.47068   0.86768   0.95409   0.00000  Uiso   1.00
C1105  C     0.51130   0.79101   0.54589   0.00000  Uiso   1.00
C1106  C     0.48837   0.82870   0.97683   0.00000  Uiso   1.00
C1107  C     0.49124   0.82876   0.52347   0.00000  Uiso   1.00
C1108  C     0.50403   0.79000   0.95276   0.00000  Uiso   1.00
C1109  C     0.47519   0.86726   0.54765   0.00000  Uiso   1.00
C1110  C     0.45085   0.90359   0.97904   0.00000  Uiso   1.00
C1111  C     0.45328   0.90342   0.52571   0.00000  Uiso   1.00
C1112  C     0.52312   0.75041   0.52144   0.00000  Uiso   1.00
C1113  C     0.42437   0.93965   0.95772   0.00000  Uiso   1.00
C1114  C     0.53858   0.70745   0.54375   0.00000  Uiso   1.00
C1115  C     0.43086   0.94037   0.55105   0.00000  Uiso   1.00
C1116  C     0.52813   0.70538   0.95040   0.00000  Uiso   1.00
C1117  C     0.51819   0.74941   0.97503   0.00000  Uiso   1.00
C1118  C     0.35460   0.79070   0.74944   0.00000  Uiso   1.00
C1119  C     0.64540   0.87597   0.75053   0.00000  Uiso   1.00
C1120  C     0.64537   0.79071   0.74947   0.00000  Uiso   1.00
C1121  C     0.35464   0.87596   0.75050   0.00000  Uiso   1.00
C1122  C     0.62394   0.83334   0.75001   0.00000  Uiso   1.00
Cu1123 Cu    0.50000   0.88022   0.75000   0.00000  Uiso   1.00
Cu1124 Cu    0.50000   0.78645   0.75000   0.00000  Uiso   1.00
H1125  H     0.52235   0.76615   0.88802   0.00000  Uiso   1.00
H1126  H     0.45488   0.95634   0.69926   0.00000  Uiso   1.00
H1127  H     0.44234   0.89620   0.85894   0.00000  Uiso   1.00
H1128  H     0.55908   0.77917   0.63709   0.00000  Uiso   1.00
H1129  H     0.43068   0.97664   0.96282   0.00000  Uiso   1.00
H1130  H     0.56930   0.70682   0.55793   0.00000  Uiso   1.00
H1131  H     0.43359   0.97693   0.54156   0.00000  Uiso   1.00
H1132  H     0.55470   0.68455   0.95980   0.00000  Uiso   1.00
H1133  H     0.46975   0.89788   0.61296   0.00000  Uiso   1.00
H1134  H     0.37060   0.75738   0.74899   0.00000  Uiso   1.00
H1135  H     0.62940   0.90930   0.75098   0.00000  Uiso   1.00
H1136  H     0.62934   0.75738   0.74904   0.00000  Uiso   1.00
H1137  H     0.37067   0.90929   0.75092   0.00000  Uiso   1.00
H1138  H     0.45488   0.71017   0.69927   0.00000  Uiso   1.00
H1139  H     0.54510   0.95650   0.80076   0.00000  Uiso   1.00
H1140  H     0.54509   0.71032   0.80077   0.00000  Uiso   1.00
N1141  N     0.50000   0.95069   0.75000   0.00000  Uiso   1.00
N1142  N     0.50000   0.71598   0.75000   0.00000  Uiso   1.00
O1143  O     0.43988   0.87291   0.74999   0.00000  Uiso   1.00
O1144  O     0.54327   0.76279   0.61354   0.00000  Uiso   1.00
O1145  O     0.39426   0.92801   0.93600   0.00000  Uiso   1.00
O1146  O     0.51713   0.67236   0.54565   0.00000  Uiso   1.00
O1147  O     0.40758   0.92993   0.58118   0.00000  Uiso   1.00
O1148  O     0.50557   0.69088   0.92094   0.00000  Uiso   1.00
O1149  O     0.56012   0.79375   0.75001   0.00000  Uiso   1.00
O1150  O     0.56012   0.87291   0.75001   0.00000  Uiso   1.00
O1151  O     0.43988   0.79375   0.75000   0.00000  Uiso   1.00
O1152  O     0.49999   0.87293   0.68513   0.00000  Uiso   1.00
O1153  O     0.50001   0.79373   0.81487   0.00000  Uiso   1.00
O1154  O     0.50001   0.87293   0.81487   0.00000  Uiso   1.00
O1155  O     0.49999   0.79373   0.68513   0.00000  Uiso   1.00
O1156  O     0.45886   0.90790   0.88435   0.00000  Uiso   1.00
C1157  C     0.75400   0.83333   0.74997   0.00000  Uiso   1.00
C1158  C     0.70940   0.83333   0.74997   0.00000  Uiso   1.00
C1159  C     0.80828   0.69145   0.72182   0.00000  Uiso   1.00
C1160  C     0.85838   0.97522   0.77820   0.00000  Uiso   1.00
C1161  C     0.85838   0.69154   0.77820   0.00000  Uiso   1.00
C1162  C     0.80827   0.97513   0.72182   0.00000  Uiso   1.00
C1163  C     0.83445   0.83326   0.66431   0.00000  Uiso   1.00
C1164  C     0.83140   0.83334   0.83568   0.00000  Uiso   1.00
C1165  C     0.84028   0.79331   0.90673   0.00000  Uiso   1.00
C1166  C     0.81436   0.86870   0.59358   0.00000  Uiso   1.00
C1167  C     0.82623   0.83260   0.88401   0.00000  Uiso   1.00
C1168  C     0.91266   0.83334   0.75002   0.00000  Uiso   1.00
C1169  C     0.83452   0.83274   0.61579   0.00000  Uiso   1.00
C1170  C     0.80673   0.86939   0.90712   0.00000  Uiso   1.00
C1171  C     0.85172   0.79494   0.59214   0.00000  Uiso   1.00
C1172  C     0.80402   0.86768   0.95409   0.00000  Uiso   1.00
C1173  C     0.84464   0.79101   0.54589   0.00000  Uiso   1.00
C1174  C     0.82170   0.82870   0.97683   0.00000  Uiso   1.00
C1175  C     0.82457   0.82876   0.52347   0.00000  Uiso   1.00
C1176  C     0.83736   0.79000   0.95276   0.00000  Uiso   1.00
C1177  C     0.80853   0.86726   0.54765   0.00000  Uiso   1.00
C1178  C     0.78418   0.90359   0.97904   0.00000  Uiso   1.00
C1179  C     0.78661   0.90342   0.52571   0.00000  Uiso   1.00
C1180  C     0.85645   0.75041   0.52144   0.00000  Uiso   1.00
C1181  C     0.75770   0.93965   0.95772   0.00000  Uiso   1.00
C1182  C     0.87191   0.70745   0.54375   0.00000  Uiso   1.00
C1183  C     0.76420   0.94037   0.55105   0.00000  Uiso   1.00
C1184  C     0.86146   0.70538   0.95040   0.00000  Uiso   1.00
C1185  C     0.85152   0.74941   0.97503   0.00000  Uiso   1.00
C1186  C     0.68793   0.79070   0.74944   0.00000  Uiso   1.00
C1187  C     0.97874   0.87597   0.75053   0.00000  Uiso   1.00
C1188  C     0.97870   0.79071   0.74947   0.00000  Uiso   1.00
C1189  C     0.68797   0.87596   0.75050   0.00000  Uiso   1.00
C1190  C     0.95727   0.83334   0.75001   0.00000  Uiso   1.00
Cu1191 Cu    0.83333   0.88022   0.75000   0.00000  Uiso   1.00
Cu1192 Cu    0.83333   0.78645   0.75000   0.00000  Uiso   1.00
H1193  H     0.85568   0.76615   0.88802   0.00000  Uiso   1.00
H1194  H     0.78821   0.95634   0.69926   0.00000  Uiso   1.00
H1195  H     0.77567   0.89620   0.85894   0.00000  Uiso   1.00
H1196  H     0.89241   0.77917   0.63709   0.00000  Uiso   1.00
H1197  H     0.76401   0.97664   0.96282   0.00000  Uiso   1.00
H1198  H     0.90264   0.70682   0.55793   0.00000  Uiso   1.00
H1199  H     0.76692   0.97693   0.54156   0.00000  Uiso   1.00
H1200  H     0.88803   0.68455   0.95980   0.00000  Uiso   1.00
H1201  H     0.80309   0.89788   0.61296   0.00000  Uiso   1.00
H1202  H     0.70393   0.75738   0.74899   0.00000  Uiso   1.00
H1203  H     0.96274   0.90930   0.75098   0.00000  Uiso   1.00
H1204  H     0.96267   0.75738   0.74904   0.00000  Uiso   1.00
H1205  H     0.70400   0.90929   0.75092   0.00000  Uiso   1.00
H1206  H     0.78821   0.71017   0.69927   0.00000  Uiso   1.00
H1207  H     0.87843   0.95650   0.80076   0.00000  Uiso   1.00
H1208  H     0.87842   0.71032   0.80077   0.00000  Uiso   1.00
N1209  N     0.83333   0.95069   0.75000   0.00000  Uiso   1.00
N1210  N     0.83333   0.71598   0.75000   0.00000  Uiso   1.00
O1211  O     0.77321   0.87291   0.74999   0.00000  Uiso   1.00
O1212  O     0.87661   0.76279   0.61354   0.00000  Uiso   1.00
O1213  O     0.72760   0.92801   0.93600   0.00000  Uiso   1.00
O1214  O     0.85046   0.67236   0.54565   0.00000  Uiso   1.00
O1215  O     0.74091   0.92993   0.58118   0.00000  Uiso   1.00
O1216  O     0.83890   0.69088   0.92094   0.00000  Uiso   1.00
O1217  O     0.89345   0.79375   0.75001   0.00000  Uiso   1.00
O1218  O     0.89345   0.87291   0.75001   0.00000  Uiso   1.00
O1219  O     0.77321   0.79375   0.75000   0.00000  Uiso   1.00
O1220  O     0.83332   0.87293   0.68513   0.00000  Uiso   1.00
O1221  O     0.83334   0.79373   0.81487   0.00000  Uiso   1.00
O1222  O     0.83334   0.87293   0.81487   0.00000  Uiso   1.00
O1223  O     0.83332   0.79373   0.68513   0.00000  Uiso   1.00
O1224  O     0.79220   0.90790   0.88435   0.00000  Uiso   1.00
loop_
_geom_bond_atom_site_label_1
_geom_bond_atom_site_label_2
_geom_bond_distance
_geom_bond_site_symmetry_2
_ccdc_geom_bond_type
C1     O55     1.289   .     A
C1     O63     1.290   .     A
C1     C2      1.450   .     S
C2     C30     1.401   .     A
C2     C33     1.401   .     A
C3     H50     1.082   .     S
C3     N54     1.367   .     A
C3     C414    1.415   1_545 S
C4     N53     1.367   .     A
C4     H51     1.082   .     S
C4     C209    1.415   .     S
C5     H52     1.082   .     S
C5     N54     1.367   .     A
C5     C412    1.415   1_545 S
C6     H38     1.082   .     S
C6     N53     1.367   .     A
C6     C207    1.415   .     S
C7     O64     1.293   .     A
C7     C13     1.463   .     S
C7     O67     1.291   .     A
C8     O66     1.294   .     A
C8     O65     1.293   .     A
C8     C11     1.468   .     S
C9     C20     1.395   .     A
C9     H37     1.081   .     S
C9     C11     1.390   .     A
C10    H45     1.081   .     S
C10    C21     1.398   .     A
C10    C13     1.388   .     A
C11    C14     1.410   .     A
C12    O61     1.289   .     A
C12    C34     1.450   .     S
C12    O62     1.290   .     A
C13    C15     1.408   .     A
C14    C16     1.420   .     A
C14    O68     1.378   .     S
C15    O56     1.381   .     S
C15    C17     1.417   .     A
C16    C22     1.425   .     A
C16    C18     1.426   .     A
C17    C24     1.425   .     A
C17    C19     1.428   .     A
C18    C20     1.416   .     A
C18    C631    1.409   .     S
C19    C21     1.418   .     A
C19    C630    1.409   1_554 S
C20    C29     1.415   .     A
C21    C23     1.416   .     A
C22    C25     1.486   .     S
C22    C635    1.409   .     S
C23    C27     1.492   .     S
C23    C634    1.409   1_554 S
C24    C26     1.485   .     S
C24    C641    1.408   1_554 S
C25    O57     1.221   .     D
C25    H41     1.085   .     S
C26    O58     1.221   .     D
C26    H42     1.085   .     S
C27    H43     1.085   .     S
C27    O59     1.221   .     D
C28    O60     1.221   .     D
C28    C29     1.494   .     S
C28    H44     1.085   .     S
C29    C636    1.408   .     S
C30    H46     1.083   .     S
C30    C168    1.383   1_455 S
C31    H47     1.083   .     S
C31    C34     1.401   .     A
C31    C101    1.383   .     S
C32    H48     1.083   .     S
C32    C34     1.401   .     A
C32    C98     1.383   .     S
C33    H49     1.083   .     S
C33    C167    1.383   1_455 S
Cu35   O64     1.967   .     S
Cu35   N53     2.009   .     S
Cu35   Cu36    2.673   .     S
Cu35   O62     1.965   .     S
Cu35   O66     1.967   .     S
Cu35   O55     1.965   .     S
Cu36   O63     1.965   .     S
Cu36   O67     1.967   .     S
Cu36   N54     2.009   .     S
Cu36   O61     1.965   .     S
Cu36   O65     1.967   .     S
H39    O68     0.992   .     S
H40    O56     0.991   .     S
C69    O123    1.289   .     A
C69    O131    1.290   .     A
C69    C70     1.450   .     S
C70    C98     1.401   .     A
C70    C101    1.401   .     A
C71    H118    1.082   .     S
C71    N122    1.367   .     A
C71    C482    1.415   1_545 S
C72    N121    1.367   .     A
C72    H119    1.082   .     S
C72    C277    1.415   .     S
C73    H120    1.082   .     S
C73    N122    1.367   .     A
C73    C480    1.415   1_545 S
C74    H106    1.082   .     S
C74    N121    1.367   .     A
C74    C275    1.415   .     S
C75    O132    1.293   .     A
C75    C81     1.463   .     S
C75    O135    1.291   .     A
C76    O134    1.294   .     A
C76    O133    1.293   .     A
C76    C79     1.468   .     S
C77    C88     1.395   .     A
C77    H105    1.081   .     S
C77    C79     1.390   .     A
C78    H113    1.081   .     S
C78    C89     1.398   .     A
C78    C81     1.388   .     A
C79    C82     1.410   .     A
C80    O129    1.289   .     A
C80    C102    1.450   .     S
C80    O130    1.290   .     A
C81    C83     1.408   .     A
C82    C84     1.420   .     A
C82    O136    1.378   .     S
C83    O124    1.381   .     S
C83    C85     1.417   .     A
C84    C90     1.425   .     A
C84    C86     1.426   .     A
C85    C92     1.425   .     A
C85    C87     1.428   .     A
C86    C88     1.416   .     A
C86    C699    1.409   .     S
C87    C89     1.418   .     A
C87    C698    1.409   1_554 S
C88    C97     1.415   .     A
C89    C91     1.416   .     A
C90    C93     1.486   .     S
C90    C703    1.409   .     S
C91    C95     1.492   .     S
C91    C702    1.409   1_554 S
C92    C94     1.485   .     S
C92    C709    1.408   1_554 S
C93    O125    1.221   .     D
C93    H109    1.085   .     S
C94    O126    1.221   .     D
C94    H110    1.085   .     S
C95    H111    1.085   .     S
C95    O127    1.221   .     D
C96    O128    1.221   .     D
C96    C97     1.494   .     S
C96    H112    1.085   .     S
C97    C704    1.408   .     S
C98    H114    1.083   .     S
C99    H115    1.083   .     S
C99    C102    1.401   .     A
C99    C169    1.383   .     S
C100   H116    1.083   .     S
C100   C102    1.401   .     A
C100   C166    1.383   .     S
C101   H117    1.083   .     S
Cu103  O132    1.967   .     S
Cu103  N121    2.009   .     S
Cu103  Cu104   2.673   .     S
Cu103  O130    1.965   .     S
Cu103  O134    1.967   .     S
Cu103  O123    1.965   .     S
Cu104  O131    1.965   .     S
Cu104  O135    1.967   .     S
Cu104  N122    2.009   .     S
Cu104  O129    1.965   .     S
Cu104  O133    1.967   .     S
H107   O136    0.992   .     S
H108   O124    0.991   .     S
C137   O191    1.289   .     A
C137   O199    1.290   .     A
C137   C138    1.450   .     S
C138   C166    1.401   .     A
C138   C169    1.401   .     A
C139   H186    1.082   .     S
C139   N190    1.367   .     A
C139   C550    1.415   1_545 S
C140   N189    1.367   .     A
C140   H187    1.082   .     S
C140   C345    1.415   .     S
C141   H188    1.082   .     S
C141   N190    1.367   .     A
C141   C548    1.415   1_545 S
C142   H174    1.082   .     S
C142   N189    1.367   .     A
C142   C343    1.415   .     S
C143   O200    1.293   .     A
C143   C149    1.463   .     S
C143   O203    1.291   .     A
C144   O202    1.294   .     A
C144   O201    1.293   .     A
C144   C147    1.468   .     S
C145   C156    1.395   .     A
C145   H173    1.081   .     S
C145   C147    1.390   .     A
C146   H181    1.081   .     S
C146   C157    1.398   .     A
C146   C149    1.388   .     A
C147   C150    1.410   .     A
C148   O197    1.289   .     A
C148   C170    1.450   .     S
C148   O198    1.290   .     A
C149   C151    1.408   .     A
C150   C152    1.420   .     A
C150   O204    1.378   .     S
C151   O192    1.381   .     S
C151   C153    1.417   .     A
C152   C158    1.425   .     A
C152   C154    1.426   .     A
C153   C160    1.425   .     A
C153   C155    1.428   .     A
C154   C156    1.416   .     A
C154   C767    1.409   .     S
C155   C157    1.418   .     A
C155   C766    1.409   1_554 S
C156   C165    1.415   .     A
C157   C159    1.416   .     A
C158   C161    1.486   .     S
C158   C771    1.409   .     S
C159   C163    1.492   .     S
C159   C770    1.409   1_554 S
C160   C162    1.485   .     S
C160   C777    1.408   1_554 S
C161   O193    1.221   .     D
C161   H177    1.085   .     S
C162   O194    1.221   .     D
C162   H178    1.085   .     S
C163   H179    1.085   .     S
C163   O195    1.221   .     D
C164   O196    1.221   .     D
C164   C165    1.494   .     S
C164   H180    1.085   .     S
C165   C772    1.408   .     S
C166   H182    1.083   .     S
C167   H183    1.083   .     S
C167   C170    1.401   .     A
C167   C33     1.383   1_655 S
C168   H184    1.083   .     S
C168   C170    1.401   .     A
C168   C30     1.383   1_655 S
C169   H185    1.083   .     S
Cu171  O200    1.967   .     S
Cu171  N189    2.009   .     S
Cu171  Cu172   2.673   .     S
Cu171  O198    1.965   .     S
Cu171  O202    1.967   .     S
Cu171  O191    1.965   .     S
Cu172  O199    1.965   .     S
Cu172  O203    1.967   .     S
Cu172  N190    2.009   .     S
Cu172  O197    1.965   .     S
Cu172  O201    1.967   .     S
H175   O204    0.992   .     S
H176   O192    0.991   .     S
C205   O259    1.289   .     A
C205   O267    1.290   .     A
C205   C206    1.450   .     S
C206   C234    1.401   .     A
C206   C237    1.401   .     A
C207   H254    1.082   .     S
C207   N258    1.367   .     A
C208   N257    1.367   .     A
C208   H255    1.082   .     S
C208   C413    1.415   .     S
C209   H256    1.082   .     S
C209   N258    1.367   .     A
C210   H242    1.082   .     S
C210   N257    1.367   .     A
C210   C411    1.415   .     S
C211   O268    1.293   .     A
C211   C217    1.463   .     S
C211   O271    1.291   .     A
C212   O270    1.294   .     A
C212   O269    1.293   .     A
C212   C215    1.468   .     S
C213   C224    1.395   .     A
C213   H241    1.081   .     S
C213   C215    1.390   .     A
C214   H249    1.081   .     S
C214   C225    1.398   .     A
C214   C217    1.388   .     A
C215   C218    1.410   .     A
C216   O265    1.289   .     A
C216   C238    1.450   .     S
C216   O266    1.290   .     A
C217   C219    1.408   .     A
C218   C220    1.420   .     A
C218   O272    1.378   .     S
C219   O260    1.381   .     S
C219   C221    1.417   .     A
C220   C226    1.425   .     A
C220   C222    1.426   .     A
C221   C228    1.425   .     A
C221   C223    1.428   .     A
C222   C224    1.416   .     A
C222   C835    1.409   .     S
C223   C225    1.418   .     A
C223   C834    1.409   1_554 S
C224   C233    1.415   .     A
C225   C227    1.416   .     A
C226   C229    1.486   .     S
C226   C839    1.409   .     S
C227   C231    1.492   .     S
C227   C838    1.409   1_554 S
C228   C230    1.485   .     S
C228   C845    1.408   1_554 S
C229   O261    1.221   .     D
C229   H245    1.085   .     S
C230   O262    1.221   .     D
C230   H246    1.085   .     S
C231   H247    1.085   .     S
C231   O263    1.221   .     D
C232   O264    1.221   .     D
C232   C233    1.494   .     S
C232   H248    1.085   .     S
C233   C840    1.408   .     S
C234   H250    1.083   .     S
C234   C372    1.383   1_455 S
C235   H251    1.083   .     S
C235   C238    1.401   .     A
C235   C305    1.383   .     S
C236   H252    1.083   .     S
C236   C238    1.401   .     A
C236   C302    1.383   .     S
C237   H253    1.083   .     S
C237   C371    1.383   1_455 S
Cu239  O268    1.967   .     S
Cu239  N257    2.009   .     S
Cu239  Cu240   2.673   .     S
Cu239  O266    1.965   .     S
Cu239  O270    1.967   .     S
Cu239  O259    1.965   .     S
Cu240  O267    1.965   .     S
Cu240  O271    1.967   .     S
Cu240  N258    2.009   .     S
Cu240  O265    1.965   .     S
Cu240  O269    1.967   .     S
H243   O272    0.992   .     S
H244   O260    0.991   .     S
C273   O327    1.289   .     A
C273   O335    1.290   .     A
C273   C274    1.450   .     S
C274   C302    1.401   .     A
C274   C305    1.401   .     A
C275   H322    1.082   .     S
C275   N326    1.367   .     A
C276   N325    1.367   .     A
C276   H323    1.082   .     S
C276   C481    1.415   .     S
C277   H324    1.082   .     S
C277   N326    1.367   .     A
C278   H310    1.082   .     S
C278   N325    1.367   .     A
C278   C479    1.415   .     S
C279   O336    1.293   .     A
C279   C285    1.463   .     S
C279   O339    1.291   .     A
C280   O338    1.294   .     A
C280   O337    1.293   .     A
C280   C283    1.468   .     S
C281   C292    1.395   .     A
C281   H309    1.081   .     S
C281   C283    1.390   .     A
C282   H317    1.081   .     S
C282   C293    1.398   .     A
C282   C285    1.388   .     A
C283   C286    1.410   .     A
C284   O333    1.289   .     A
C284   C306    1.450   .     S
C284   O334    1.290   .     A
C285   C287    1.408   .     A
C286   C288    1.420   .     A
C286   O340    1.378   .     S
C287   O328    1.381   .     S
C287   C289    1.417   .     A
C288   C294    1.425   .     A
C288   C290    1.426   .     A
C289   C296    1.425   .     A
C289   C291    1.428   .     A
C290   C292    1.416   .     A
C290   C903    1.409   .     S
C291   C293    1.418   .     A
C291   C902    1.409   1_554 S
C292   C301    1.415   .     A
C293   C295    1.416   .     A
C294   C297    1.486   .     S
C294   C907    1.409   .     S
C295   C299    1.492   .     S
C295   C906    1.409   1_554 S
C296   C298    1.485   .     S
C296   C913    1.408   1_554 S
C297   O329    1.221   .     D
C297   H313    1.085   .     S
C298   O330    1.221   .     D
C298   H314    1.085   .     S
C299   H315    1.085   .     S
C299   O331    1.221   .     D
C300   O332    1.221   .     D
C300   C301    1.494   .     S
C300   H316    1.085   .     S
C301   C908    1.408   .     S
C302   H318    1.083   .     S
C303   H319    1.083   .     S
C303   C306    1.401   .     A
C303   C373    1.383   .     S
C304   H320    1.083   .     S
C304   C306    1.401   .     A
C304   C370    1.383   .     S
C305   H321    1.083   .     S
Cu307  O336    1.967   .     S
Cu307  N325    2.009   .     S
Cu307  Cu308   2.673   .     S
Cu307  O334    1.965   .     S
Cu307  O338    1.967   .     S
Cu307  O327    1.965   .     S
Cu308  O335    1.965   .     S
Cu308  O339    1.967   .     S
Cu308  N326    2.009   .     S
Cu308  O333    1.965   .     S
Cu308  O337    1.967   .     S
H311   O340    0.992   .     S
H312   O328    0.991   .     S
C341   O395    1.289   .     A
C341   O403    1.290   .     A
C341   C342    1.450   .     S
C342   C370    1.401   .     A
C342   C373    1.401   .     A
C343   H390    1.082   .     S
C343   N394    1.367   .     A
C344   N393    1.367   .     A
C344   H391    1.082   .     S
C344   C549    1.415   .     S
C345   H392    1.082   .     S
C345   N394    1.367   .     A
C346   H378    1.082   .     S
C346   N393    1.367   .     A
C346   C547    1.415   .     S
C347   O404    1.293   .     A
C347   C353    1.463   .     S
C347   O407    1.291   .     A
C348   O406    1.294   .     A
C348   O405    1.293   .     A
C348   C351    1.468   .     S
C349   C360    1.395   .     A
C349   H377    1.081   .     S
C349   C351    1.390   .     A
C350   H385    1.081   .     S
C350   C361    1.398   .     A
C350   C353    1.388   .     A
C351   C354    1.410   .     A
C352   O401    1.289   .     A
C352   C374    1.450   .     S
C352   O402    1.290   .     A
C353   C355    1.408   .     A
C354   C356    1.420   .     A
C354   O408    1.378   .     S
C355   O396    1.381   .     S
C355   C357    1.417   .     A
C356   C362    1.425   .     A
C356   C358    1.426   .     A
C357   C364    1.425   .     A
C357   C359    1.428   .     A
C358   C360    1.416   .     A
C358   C971    1.409   .     S
C359   C361    1.418   .     A
C359   C970    1.409   1_554 S
C360   C369    1.415   .     A
C361   C363    1.416   .     A
C362   C365    1.486   .     S
C362   C975    1.409   .     S
C363   C367    1.492   .     S
C363   C974    1.409   1_554 S
C364   C366    1.485   .     S
C364   C981    1.408   1_554 S
C365   O397    1.221   .     D
C365   H381    1.085   .     S
C366   O398    1.221   .     D
C366   H382    1.085   .     S
C367   H383    1.085   .     S
C367   O399    1.221   .     D
C368   O400    1.221   .     D
C368   C369    1.494   .     S
C368   H384    1.085   .     S
C369   C976    1.408   .     S
C370   H386    1.083   .     S
C371   H387    1.083   .     S
C371   C374    1.401   .     A
C371   C237    1.383   1_655 S
C372   H388    1.083   .     S
C372   C374    1.401   .     A
C372   C234    1.383   1_655 S
C373   H389    1.083   .     S
Cu375  O404    1.967   .     S
Cu375  N393    2.009   .     S
Cu375  Cu376   2.673   .     S
Cu375  O402    1.965   .     S
Cu375  O406    1.967   .     S
Cu375  O395    1.965   .     S
Cu376  O403    1.965   .     S
Cu376  O407    1.967   .     S
Cu376  N394    2.009   .     S
Cu376  O401    1.965   .     S
Cu376  O405    1.967   .     S
H379   O408    0.992   .     S
H380   O396    0.991   .     S
C409   O463    1.289   .     A
C409   O471    1.290   .     A
C409   C410    1.450   .     S
C410   C438    1.401   .     A
C410   C441    1.401   .     A
C411   H458    1.082   .     S
C411   N462    1.367   .     A
C412   N461    1.367   .     A
C412   H459    1.082   .     S
C412   C5      1.415   1_565 S
C413   H460    1.082   .     S
C413   N462    1.367   .     A
C414   H446    1.082   .     S
C414   N461    1.367   .     A
C414   C3      1.415   1_565 S
C415   O472    1.293   .     A
C415   C421    1.463   .     S
C415   O475    1.291   .     A
C416   O474    1.294   .     A
C416   O473    1.293   .     A
C416   C419    1.468   .     S
C417   C428    1.395   .     A
C417   H445    1.081   .     S
C417   C419    1.390   .     A
C418   H453    1.081   .     S
C418   C429    1.398   .     A
C418   C421    1.388   .     A
C419   C422    1.410   .     A
C420   O469    1.289   .     A
C420   C442    1.450   .     S
C420   O470    1.290   .     A
C421   C423    1.408   .     A
C422   C424    1.420   .     A
C422   O476    1.378   .     S
C423   O464    1.381   .     S
C423   C425    1.417   .     A
C424   C430    1.425   .     A
C424   C426    1.426   .     A
C425   C432    1.425   .     A
C425   C427    1.428   .     A
C426   C428    1.416   .     A
C426   C1039   1.409   .     S
C427   C429    1.418   .     A
C427   C1038   1.409   1_554 S
C428   C437    1.415   .     A
C429   C431    1.416   .     A
C430   C433    1.486   .     S
C430   C1043   1.409   .     S
C431   C435    1.492   .     S
C431   C1042   1.409   1_554 S
C432   C434    1.485   .     S
C432   C1049   1.408   1_554 S
C433   O465    1.221   .     D
C433   H449    1.085   .     S
C434   O466    1.221   .     D
C434   H450    1.085   .     S
C435   H451    1.085   .     S
C435   O467    1.221   .     D
C436   O468    1.221   .     D
C436   C437    1.494   .     S
C436   H452    1.085   .     S
C437   C1044   1.408   .     S
C438   H454    1.083   .     S
C438   C576    1.383   1_455 S
C439   H455    1.083   .     S
C439   C442    1.401   .     A
C439   C509    1.383   .     S
C440   H456    1.083   .     S
C440   C442    1.401   .     A
C440   C506    1.383   .     S
C441   H457    1.083   .     S
C441   C575    1.383   1_455 S
Cu443  O472    1.967   .     S
Cu443  N461    2.009   .     S
Cu443  Cu444   2.673   .     S
Cu443  O470    1.965   .     S
Cu443  O474    1.967   .     S
Cu443  O463    1.965   .     S
Cu444  O471    1.965   .     S
Cu444  O475    1.967   .     S
Cu444  N462    2.009   .     S
Cu444  O469    1.965   .     S
Cu444  O473    1.967   .     S
H447   O476    0.992   .     S
H448   O464    0.991   .     S
C477   O531    1.289   .     A
C477   O539    1.290   .     A
C477   C478    1.450   .     S
C478   C506    1.401   .     A
C478   C509    1.401   .     A
C479   H526    1.082   .     S
C479   N530    1.367   .     A
C480   N529    1.367   .     A
C480   H527    1.082   .     S
C480   C73     1.415   1_565 S
C481   H528    1.082   .     S
C481   N530    1.367   .     A
C482   H514    1.082   .     S
C482   N529    1.367   .     A
C482   C71     1.415   1_565 S
C483   O540    1.293   .     A
C483   C489    1.463   .     S
C483   O543    1.291   .     A
C484   O542    1.294   .     A
C484   O541    1.293   .     A
C484   C487    1.468   .     S
C485   C496    1.395   .     A
C485   H513    1.081   .     S
C485   C487    1.390   .     A
C486   H521    1.081   .     S
C486   C497    1.398   .     A
C486   C489    1.388   .     A
C487   C490    1.410   .     A
C488   O537    1.289   .     A
C488   C510    1.450   .     S
C488   O538    1.290   .     A
C489   C491    1.408   .     A
C490   C492    1.420   .     A
C490   O544    1.378   .     S
C491   O532    1.381   .     S
C491   C493    1.417   .     A
C492   C498    1.425   .     A
C492   C494    1.426   .     A
C493   C500    1.425   .     A
C493   C495    1.428   .     A
C494   C496    1.416   .     A
C494   C1107   1.409   .     S
C495   C497    1.418   .     A
C495   C1106   1.409   1_554 S
C496   C505    1.415   .     A
C497   C499    1.416   .     A
C498   C501    1.486   .     S
C498   C1111   1.409   .     S
C499   C503    1.492   .     S
C499   C1110   1.409   1_554 S
C500   C502    1.485   .     S
C500   C1117   1.408   1_554 S
C501   O533    1.221   .     D
C501   H517    1.085   .     S
C502   O534    1.221   .     D
C502   H518    1.085   .     S
C503   H519    1.085   .     S
C503   O535    1.221   .     D
C504   O536    1.221   .     D
C504   C505    1.494   .     S
C504   H520    1.085   .     S
C505   C1112   1.408   .     S
C506   H522    1.083   .     S
C507   H523    1.083   .     S
C507   C510    1.401   .     A
C507   C577    1.383   .     S
C508   H524    1.083   .     S
C508   C510    1.401   .     A
C508   C574    1.383   .     S
C509   H525    1.083   .     S
Cu511  O540    1.967   .     S
Cu511  N529    2.009   .     S
Cu511  Cu512   2.673   .     S
Cu511  O538    1.965   .     S
Cu511  O542    1.967   .     S
Cu511  O531    1.965   .     S
Cu512  O539    1.965   .     S
Cu512  O543    1.967   .     S
Cu512  N530    2.009   .     S
Cu512  O537    1.965   .     S
Cu512  O541    1.967   .     S
H515   O544    0.992   .     S
H516   O532    0.991   .     S
C545   O599    1.289   .     A
C545   O607    1.290   .     A
C545   C546    1.450   .     S
C546   C574    1.401   .     A
C546   C577    1.401   .     A
C547   H594    1.082   .     S
C547   N598    1.367   .     A
C548   N597    1.367   .     A
C548   H595    1.082   .     S
C548   C141    1.415   1_565 S
C549   H596    1.082   .     S
C549   N598    1.367   .     A
C550   H582    1.082   .     S
C550   N597    1.367   .     A
C550   C139    1.415   1_565 S
C551   O608    1.293   .     A
C551   C557    1.463   .     S
C551   O611    1.291   .     A
C552   O610    1.294   .     A
C552   O609    1.293   .     A
C552   C555    1.468   .     S
C553   C564    1.395   .     A
C553   H581    1.081   .     S
C553   C555    1.390   .     A
C554   H589    1.081   .     S
C554   C565    1.398   .     A
C554   C557    1.388   .     A
C555   C558    1.410   .     A
C556   O605    1.289   .     A
C556   C578    1.450   .     S
C556   O606    1.290   .     A
C557   C559    1.408   .     A
C558   C560    1.420   .     A
C558   O612    1.378   .     S
C559   O600    1.381   .     S
C559   C561    1.417   .     A
C560   C566    1.425   .     A
C560   C562    1.426   .     A
C561   C568    1.425   .     A
C561   C563    1.428   .     A
C562   C564    1.416   .     A
C562   C1175   1.409   .     S
C563   C565    1.418   .     A
C563   C1174   1.409   1_554 S
C564   C573    1.415   .     A
C565   C567    1.416   .     A
C566   C569    1.486   .     S
C566   C1179   1.409   .     S
C567   C571    1.492   .     S
C567   C1178   1.409   1_554 S
C568   C570    1.485   .     S
C568   C1185   1.408   1_554 S
C569   O601    1.221   .     D
C569   H585    1.085   .     S
C570   O602    1.221   .     D
C570   H586    1.085   .     S
C571   H587    1.085   .     S
C571   O603    1.221   .     D
C572   O604    1.221   .     D
C572   C573    1.494   .     S
C572   H588    1.085   .     S
C573   C1180   1.408   .     S
C574   H590    1.083   .     S
C575   H591    1.083   .     S
C575   C578    1.401   .     A
C575   C441    1.383   1_655 S
C576   H592    1.083   .     S
C576   C578    1.401   .     A
C576   C438    1.383   1_655 S
C577   H593    1.083   .     S
Cu579  O608    1.967   .     S
Cu579  N597    2.009   .     S
Cu579  Cu580   2.673   .     S
Cu579  O606    1.965   .     S
Cu579  O610    1.967   .     S
Cu579  O599    1.965   .     S
Cu580  O607    1.965   .     S
Cu580  O611    1.967   .     S
Cu580  N598    2.009   .     S
Cu580  O605    1.965   .     S
Cu580  O609    1.967   .     S
H583   O612    0.992   .     S
H584   O600    0.991   .     S
C613   O667    1.289   .     A
C613   O675    1.290   .     A
C613   C614    1.450   .     S
C614   C642    1.401   .     A
C614   C645    1.401   .     A
C615   H662    1.082   .     S
C615   N666    1.367   .     A
C615   C1026   1.415   1_545 S
C616   N665    1.367   .     A
C616   H663    1.082   .     S
C616   C821    1.415   .     S
C617   H664    1.082   .     S
C617   N666    1.367   .     A
C617   C1024   1.415   1_545 S
C618   H650    1.082   .     S
C618   N665    1.367   .     A
C618   C819    1.415   .     S
C619   O676    1.293   .     A
C619   C625    1.463   .     S
C619   O679    1.291   .     A
C620   O678    1.294   .     A
C620   O677    1.293   .     A
C620   C623    1.468   .     S
C621   C632    1.395   .     A
C621   H649    1.081   .     S
C621   C623    1.390   .     A
C622   H657    1.081   .     S
C622   C633    1.398   .     A
C622   C625    1.388   .     A
C623   C626    1.410   .     A
C624   O673    1.289   .     A
C624   C646    1.450   .     S
C624   O674    1.290   .     A
C625   C627    1.408   .     A
C626   C628    1.420   .     A
C626   O680    1.378   .     S
C627   O668    1.381   .     S
C627   C629    1.417   .     A
C628   C634    1.425   .     A
C628   C630    1.426   .     A
C629   C636    1.425   .     A
C629   C631    1.428   .     A
C630   C632    1.416   .     A
C630   C19     1.409   1_556 S
C631   C633    1.418   .     A
C632   C641    1.415   .     A
C633   C635    1.416   .     A
C634   C637    1.486   .     S
C634   C23     1.409   1_556 S
C635   C639    1.492   .     S
C636   C638    1.485   .     S
C637   O669    1.221   .     D
C637   H653    1.085   .     S
C638   O670    1.221   .     D
C638   H654    1.085   .     S
C639   H655    1.085   .     S
C639   O671    1.221   .     D
C640   O672    1.221   .     D
C640   C641    1.494   .     S
C640   H656    1.085   .     S
C641   C24     1.408   1_556 S
C642   H658    1.083   .     S
C642   C780    1.383   1_455 S
C643   H659    1.083   .     S
C643   C646    1.401   .     A
C643   C713    1.383   .     S
C644   H660    1.083   .     S
C644   C646    1.401   .     A
C644   C710    1.383   .     S
C645   H661    1.083   .     S
C645   C779    1.383   1_455 S
Cu647  O676    1.967   .     S
Cu647  N665    2.009   .     S
Cu647  Cu648   2.673   .     S
Cu647  O674    1.965   .     S
Cu647  O678    1.967   .     S
Cu647  O667    1.965   .     S
Cu648  O675    1.965   .     S
Cu648  O679    1.967   .     S
Cu648  N666    2.009   .     S
Cu648  O673    1.965   .     S
Cu648  O677    1.967   .     S
H651   O680    0.992   .     S
H652   O668    0.991   .     S
C681   O735    1.289   .     A
C681   O743    1.290   .     A
C681   C682    1.450   .     S
C682   C710    1.401   .     A
C682   C713    1.401   .     A
C683   H730    1.082   .     S
C683   N734    1.367   .     A
C683   C1094   1.415   1_545 S
C684   N733    1.367   .     A
C684   H731    1.082   .     S
C684   C889    1.415   .     S
C685   H732    1.082   .     S
C685   N734    1.367   .     A
C685   C1092   1.415   1_545 S
C686   H718    1.082   .     S
C686   N733    1.367   .     A
C686   C887    1.415   .     S
C687   O744    1.293   .     A
C687   C693    1.463   .     S
C687   O747    1.291   .     A
C688   O746    1.294   .     A
C688   O745    1.293   .     A
C688   C691    1.468   .     S
C689   C700    1.395   .     A
C689   H717    1.081   .     S
C689   C691    1.390   .     A
C690   H725    1.081   .     S
C690   C701    1.398   .     A
C690   C693    1.388   .     A
C691   C694    1.410   .     A
C692   O741    1.289   .     A
C692   C714    1.450   .     S
C692   O742    1.290   .     A
C693   C695    1.408   .     A
C694   C696    1.420   .     A
C694   O748    1.378   .     S
C695   O736    1.381   .     S
C695   C697    1.417   .     A
C696   C702    1.425   .     A
C696   C698    1.426   .     A
C697   C704    1.425   .     A
C697   C699    1.428   .     A
C698   C700    1.416   .     A
C698   C87     1.409   1_556 S
C699   C701    1.418   .     A
C700   C709    1.415   .     A
C701   C703    1.416   .     A
C702   C705    1.486   .     S
C702   C91     1.409   1_556 S
C703   C707    1.492   .     S
C704   C706    1.485   .     S
C705   O737    1.221   .     D
C705   H721    1.085   .     S
C706   O738    1.221   .     D
C706   H722    1.085   .     S
C707   H723    1.085   .     S
C707   O739    1.221   .     D
C708   O740    1.221   .     D
C708   C709    1.494   .     S
C708   H724    1.085   .     S
C709   C92     1.408   1_556 S
C710   H726    1.083   .     S
C711   H727    1.083   .     S
C711   C714    1.401   .     A
C711   C781    1.383   .     S
C712   H728    1.083   .     S
C712   C714    1.401   .     A
C712   C778    1.383   .     S
C713   H729    1.083   .     S
Cu715  O744    1.967   .     S
Cu715  N733    2.009   .     S
Cu715  Cu716   2.673   .     S
Cu715  O742    1.965   .     S
Cu715  O746    1.967   .     S
Cu715  O735    1.965   .     S
Cu716  O743    1.965   .     S
Cu716  O747    1.967   .     S
Cu716  N734    2.009   .     S
Cu716  O741    1.965   .     S
Cu716  O745    1.967   .     S
H719   O748    0.992   .     S
H720   O736    0.991   .     S
C749   O803    1.289   .     A
C749   O811    1.290   .     A
C749   C750    1.450   .     S
C750   C778    1.401   .     A
C750   C781    1.401   .     A
C751   H798    1.082   .     S
C751   N802    1.367   .     A
C751   C1162   1.415   1_545 S
C752   N801    1.367   .     A
C752   H799    1.082   .     S
C752   C957    1.415   .     S
C753   H800    1.082   .     S
C753   N802    1.367   .     A
C753   C1160   1.415   1_545 S
C754   H786    1.082   .     S
C754   N801    1.367   .     A
C754   C955    1.415   .     S
C755   O812    1.293   .     A
C755   C761    1.463   .     S
C755   O815    1.291   .     A
C756   O814    1.294   .     A
C756   O813    1.293   .     A
C756   C759    1.468   .     S
C757   C768    1.395   .     A
C757   H785    1.081   .     S
C757   C759    1.390   .     A
C758   H793    1.081   .     S
C758   C769    1.398   .     A
C758   C761    1.388   .     A
C759   C762    1.410   .     A
C760   O809    1.289   .     A
C760   C782    1.450   .     S
C760   O810    1.290   .     A
C761   C763    1.408   .     A
C762   C764    1.420   .     A
C762   O816    1.378   .     S
C763   O804    1.381   .     S
C763   C765    1.417   .     A
C764   C770    1.425   .     A
C764   C766    1.426   .     A
C765   C772    1.425   .     A
C765   C767    1.428   .     A
C766   C768    1.416   .     A
C766   C155    1.409   1_556 S
C767   C769    1.418   .     A
C768   C777    1.415   .     A
C769   C771    1.416   .     A
C770   C773    1.486   .     S
C770   C159    1.409   1_556 S
C771   C775    1.492   .     S
C772   C774    1.485   .     S
C773   O805    1.221   .     D
C773   H789    1.085   .     S
C774   O806    1.221   .     D
C774   H790    1.085   .     S
C775   H791    1.085   .     S
C775   O807    1.221   .     D
C776   O808    1.221   .     D
C776   C777    1.494   .     S
C776   H792    1.085   .     S
C777   C160    1.408   1_556 S
C778   H794    1.083   .     S
C779   H795    1.083   .     S
C779   C782    1.401   .     A
C779   C645    1.383   1_655 S
C780   H796    1.083   .     S
C780   C782    1.401   .     A
C780   C642    1.383   1_655 S
C781   H797    1.083   .     S
Cu783  O812    1.967   .     S
Cu783  N801    2.009   .     S
Cu783  Cu784   2.673   .     S
Cu783  O810    1.965   .     S
Cu783  O814    1.967   .     S
Cu783  O803    1.965   .     S
Cu784  O811    1.965   .     S
Cu784  O815    1.967   .     S
Cu784  N802    2.009   .     S
Cu784  O809    1.965   .     S
Cu784  O813    1.967   .     S
H787   O816    0.992   .     S
H788   O804    0.991   .     S
C817   O871    1.289   .     A
C817   O879    1.290   .     A
C817   C818    1.450   .     S
C818   C846    1.401   .     A
C818   C849    1.401   .     A
C819   H866    1.082   .     S
C819   N870    1.367   .     A
C820   N869    1.367   .     A
C820   H867    1.082   .     S
C820   C1025   1.415   .     S
C821   H868    1.082   .     S
C821   N870    1.367   .     A
C822   H854    1.082   .     S
C822   N869    1.367   .     A
C822   C1023   1.415   .     S
C823   O880    1.293   .     A
C823   C829    1.463   .     S
C823   O883    1.291   .     A
C824   O882    1.294   .     A
C824   O881    1.293   .     A
C824   C827    1.468   .     S
C825   C836    1.395   .     A
C825   H853    1.081   .     S
C825   C827    1.390   .     A
C826   H861    1.081   .     S
C826   C837    1.398   .     A
C826   C829    1.388   .     A
C827   C830    1.410   .     A
C828   O877    1.289   .     A
C828   C850    1.450   .     S
C828   O878    1.290   .     A
C829   C831    1.408   .     A
C830   C832    1.420   .     A
C830   O884    1.378   .     S
C831   O872    1.381   .     S
C831   C833    1.417   .     A
C832   C838    1.425   .     A
C832   C834    1.426   .     A
C833   C840    1.425   .     A
C833   C835    1.428   .     A
C834   C836    1.416   .     A
C834   C223    1.409   1_556 S
C835   C837    1.418   .     A
C836   C845    1.415   .     A
C837   C839    1.416   .     A
C838   C841    1.486   .     S
C838   C227    1.409   1_556 S
C839   C843    1.492   .     S
C840   C842    1.485   .     S
C841   O873    1.221   .     D
C841   H857    1.085   .     S
C842   O874    1.221   .     D
C842   H858    1.085   .     S
C843   H859    1.085   .     S
C843   O875    1.221   .     D
C844   O876    1.221   .     D
C844   C845    1.494   .     S
C844   H860    1.085   .     S
C845   C228    1.408   1_556 S
C846   H862    1.083   .     S
C846   C984    1.383   1_455 S
C847   H863    1.083   .     S
C847   C850    1.401   .     A
C847   C917    1.383   .     S
C848   H864    1.083   .     S
C848   C850    1.401   .     A
C848   C914    1.383   .     S
C849   H865    1.083   .     S
C849   C983    1.383   1_455 S
Cu851  O880    1.967   .     S
Cu851  N869    2.009   .     S
Cu851  Cu852   2.673   .     S
Cu851  O878    1.965   .     S
Cu851  O882    1.967   .     S
Cu851  O871    1.965   .     S
Cu852  O879    1.965   .     S
Cu852  O883    1.967   .     S
Cu852  N870    2.009   .     S
Cu852  O877    1.965   .     S
Cu852  O881    1.967   .     S
H855   O884    0.992   .     S
H856   O872    0.991   .     S
C885   O939    1.289   .     A
C885   O947    1.290   .     A
C885   C886    1.450   .     S
C886   C914    1.401   .     A
C886   C917    1.401   .     A
C887   H934    1.082   .     S
C887   N938    1.367   .     A
C888   N937    1.367   .     A
C888   H935    1.082   .     S
C888   C1093   1.415   .     S
C889   H936    1.082   .     S
C889   N938    1.367   .     A
C890   H922    1.082   .     S
C890   N937    1.367   .     A
C890   C1091   1.415   .     S
C891   O948    1.293   .     A
C891   C897    1.463   .     S
C891   O951    1.291   .     A
C892   O950    1.294   .     A
C892   O949    1.293   .     A
C892   C895    1.468   .     S
C893   C904    1.395   .     A
C893   H921    1.081   .     S
C893   C895    1.390   .     A
C894   H929    1.081   .     S
C894   C905    1.398   .     A
C894   C897    1.388   .     A
C895   C898    1.410   .     A
C896   O945    1.289   .     A
C896   C918    1.450   .     S
C896   O946    1.290   .     A
C897   C899    1.408   .     A
C898   C900    1.420   .     A
C898   O952    1.378   .     S
C899   O940    1.381   .     S
C899   C901    1.417   .     A
C900   C906    1.425   .     A
C900   C902    1.426   .     A
C901   C908    1.425   .     A
C901   C903    1.428   .     A
C902   C904    1.416   .     A
C902   C291    1.409   1_556 S
C903   C905    1.418   .     A
C904   C913    1.415   .     A
C905   C907    1.416   .     A
C906   C909    1.486   .     S
C906   C295    1.409   1_556 S
C907   C911    1.492   .     S
C908   C910    1.485   .     S
C909   O941    1.221   .     D
C909   H925    1.085   .     S
C910   O942    1.221   .     D
C910   H926    1.085   .     S
C911   H927    1.085   .     S
C911   O943    1.221   .     D
C912   O944    1.221   .     D
C912   C913    1.494   .     S
C912   H928    1.085   .     S
C913   C296    1.408   1_556 S
C914   H930    1.083   .     S
C915   H931    1.083   .     S
C915   C918    1.401   .     A
C915   C985    1.383   .     S
C916   H932    1.083   .     S
C916   C918    1.401   .     A
C916   C982    1.383   .     S
C917   H933    1.083   .     S
Cu919  O948    1.967   .     S
Cu919  N937    2.009   .     S
Cu919  Cu920   2.673   .     S
Cu919  O946    1.965   .     S
Cu919  O950    1.967   .     S
Cu919  O939    1.965   .     S
Cu920  O947    1.965   .     S
Cu920  O951    1.967   .     S
Cu920  N938    2.009   .     S
Cu920  O945    1.965   .     S
Cu920  O949    1.967   .     S
H923   O952    0.992   .     S
H924   O940    0.991   .     S
C953   O1007   1.289   .     A
C953   O1015   1.290   .     A
C953   C954    1.450   .     S
C954   C982    1.401   .     A
C954   C985    1.401   .     A
C955   H1002   1.082   .     S
C955   N1006   1.367   .     A
C956   N1005   1.367   .     A
C956   H1003   1.082   .     S
C956   C1161   1.415   .     S
C957   H1004   1.082   .     S
C957   N1006   1.367   .     A
C958   H990    1.082   .     S
C958   N1005   1.367   .     A
C958   C1159   1.415   .     S
C959   O1016   1.293   .     A
C959   C965    1.463   .     S
C959   O1019   1.291   .     A
C960   O1018   1.294   .     A
C960   O1017   1.293   .     A
C960   C963    1.468   .     S
C961   C972    1.395   .     A
C961   H989    1.081   .     S
C961   C963    1.390   .     A
C962   H997    1.081   .     S
C962   C973    1.398   .     A
C962   C965    1.388   .     A
C963   C966    1.410   .     A
C964   O1013   1.289   .     A
C964   C986    1.450   .     S
C964   O1014   1.290   .     A
C965   C967    1.408   .     A
C966   C968    1.420   .     A
C966   O1020   1.378   .     S
C967   O1008   1.381   .     S
C967   C969    1.417   .     A
C968   C974    1.425   .     A
C968   C970    1.426   .     A
C969   C976    1.425   .     A
C969   C971    1.428   .     A
C970   C972    1.416   .     A
C970   C359    1.409   1_556 S
C971   C973    1.418   .     A
C972   C981    1.415   .     A
C973   C975    1.416   .     A
C974   C977    1.486   .     S
C974   C363    1.409   1_556 S
C975   C979    1.492   .     S
C976   C978    1.485   .     S
C977   O1009   1.221   .     D
C977   H993    1.085   .     S
C978   O1010   1.221   .     D
C978   H994    1.085   .     S
C979   H995    1.085   .     S
C979   O1011   1.221   .     D
C980   O1012   1.221   .     D
C980   C981    1.494   .     S
C980   H996    1.085   .     S
C981   C364    1.408   1_556 S
C982   H998    1.083   .     S
C983   H999    1.083   .     S
C983   C986    1.401   .     A
C983   C849    1.383   1_655 S
C984   H1000   1.083   .     S
C984   C986    1.401   .     A
C984   C846    1.383   1_655 S
C985   H1001   1.083   .     S
Cu987  O1016   1.967   .     S
Cu987  N1005   2.009   .     S
Cu987  Cu988   2.673   .     S
Cu987  O1014   1.965   .     S
Cu987  O1018   1.967   .     S
Cu987  O1007   1.965   .     S
Cu988  O1015   1.965   .     S
Cu988  O1019   1.967   .     S
Cu988  N1006   2.009   .     S
Cu988  O1013   1.965   .     S
Cu988  O1017   1.967   .     S
H991   O1020   0.992   .     S
H992   O1008   0.991   .     S
C1021  O1075   1.289   .     A
C1021  O1083   1.290   .     A
C1021  C1022   1.450   .     S
C1022  C1050   1.401   .     A
C1022  C1053   1.401   .     A
C1023  H1070   1.082   .     S
C1023  N1074   1.367   .     A
C1024  N1073   1.367   .     A
C1024  H1071   1.082   .     S
C1024  C617    1.415   1_565 S
C1025  H1072   1.082   .     S
C1025  N1074   1.367   .     A
C1026  H1058   1.082   .     S
C1026  N1073   1.367   .     A
C1026  C615    1.415   1_565 S
C1027  O1084   1.293   .     A
C1027  C1033   1.463   .     S
C1027  O1087   1.291   .     A
C1028  O1086   1.294   .     A
C1028  O1085   1.293   .     A
C1028  C1031   1.468   .     S
C1029  C1040   1.395   .     A
C1029  H1057   1.081   .     S
C1029  C1031   1.390   .     A
C1030  H1065   1.081   .     S
C1030  C1041   1.398   .     A
C1030  C1033   1.388   .     A
C1031  C1034   1.410   .     A
C1032  O1081   1.289   .     A
C1032  C1054   1.450   .     S
C1032  O1082   1.290   .     A
C1033  C1035   1.408   .     A
C1034  C1036   1.420   .     A
C1034  O1088   1.378   .     S
C1035  O1076   1.381   .     S
C1035  C1037   1.417   .     A
C1036  C1042   1.425   .     A
C1036  C1038   1.426   .     A
C1037  C1044   1.425   .     A
C1037  C1039   1.428   .     A
C1038  C1040   1.416   .     A
C1038  C427    1.409   1_556 S
C1039  C1041   1.418   .     A
C1040  C1049   1.415   .     A
C1041  C1043   1.416   .     A
C1042  C1045   1.486   .     S
C1042  C431    1.409   1_556 S
C1043  C1047   1.492   .     S
C1044  C1046   1.485   .     S
C1045  O1077   1.221   .     D
C1045  H1061   1.085   .     S
C1046  O1078   1.221   .     D
C1046  H1062   1.085   .     S
C1047  H1063   1.085   .     S
C1047  O1079   1.221   .     D
C1048  O1080   1.221   .     D
C1048  C1049   1.494   .     S
C1048  H1064   1.085   .     S
C1049  C432    1.408   1_556 S
C1050  H1066   1.083   .     S
C1050  C1188   1.383   1_455 S
C1051  H1067   1.083   .     S
C1051  C1054   1.401   .     A
C1051  C1121   1.383   .     S
C1052  H1068   1.083   .     S
C1052  C1054   1.401   .     A
C1052  C1118   1.383   .     S
C1053  H1069   1.083   .     S
C1053  C1187   1.383   1_455 S
Cu1055 O1084   1.967   .     S
Cu1055 N1073   2.009   .     S
Cu1055 Cu1056  2.673   .     S
Cu1055 O1082   1.965   .     S
Cu1055 O1086   1.967   .     S
Cu1055 O1075   1.965   .     S
Cu1056 O1083   1.965   .     S
Cu1056 O1087   1.967   .     S
Cu1056 N1074   2.009   .     S
Cu1056 O1081   1.965   .     S
Cu1056 O1085   1.967   .     S
H1059  O1088   0.992   .     S
H1060  O1076   0.991   .     S
C1089  O1143   1.289   .     A
C1089  O1151   1.290   .     A
C1089  C1090   1.450   .     S
C1090  C1118   1.401   .     A
C1090  C1121   1.401   .     A
C1091  H1138   1.082   .     S
C1091  N1142   1.367   .     A
C1092  N1141   1.367   .     A
C1092  H1139   1.082   .     S
C1092  C685    1.415   1_565 S
C1093  H1140   1.082   .     S
C1093  N1142   1.367   .     A
C1094  H1126   1.082   .     S
C1094  N1141   1.367   .     A
C1094  C683    1.415   1_565 S
C1095  O1152   1.293   .     A
C1095  C1101   1.463   .     S
C1095  O1155   1.291   .     A
C1096  O1154   1.294   .     A
C1096  O1153   1.293   .     A
C1096  C1099   1.468   .     S
C1097  C1108   1.395   .     A
C1097  H1125   1.081   .     S
C1097  C1099   1.390   .     A
C1098  H1133   1.081   .     S
C1098  C1109   1.398   .     A
C1098  C1101   1.388   .     A
C1099  C1102   1.410   .     A
C1100  O1149   1.289   .     A
C1100  C1122   1.450   .     S
C1100  O1150   1.290   .     A
C1101  C1103   1.408   .     A
C1102  C1104   1.420   .     A
C1102  O1156   1.378   .     S
C1103  O1144   1.381   .     S
C1103  C1105   1.417   .     A
C1104  C1110   1.425   .     A
C1104  C1106   1.426   .     A
C1105  C1112   1.425   .     A
C1105  C1107   1.428   .     A
C1106  C1108   1.416   .     A
C1106  C495    1.409   1_556 S
C1107  C1109   1.418   .     A
C1108  C1117   1.415   .     A
C1109  C1111   1.416   .     A
C1110  C1113   1.486   .     S
C1110  C499    1.409   1_556 S
C1111  C1115   1.492   .     S
C1112  C1114   1.485   .     S
C1113  O1145   1.221   .     D
C1113  H1129   1.085   .     S
C1114  O1146   1.221   .     D
C1114  H1130   1.085   .     S
C1115  H1131   1.085   .     S
C1115  O1147   1.221   .     D
C1116  O1148   1.221   .     D
C1116  C1117   1.494   .     S
C1116  H1132   1.085   .     S
C1117  C500    1.408   1_556 S
C1118  H1134   1.083   .     S
C1119  H1135   1.083   .     S
C1119  C1122   1.401   .     A
C1119  C1189   1.383   .     S
C1120  H1136   1.083   .     S
C1120  C1122   1.401   .     A
C1120  C1186   1.383   .     S
C1121  H1137   1.083   .     S
Cu1123 O1152   1.967   .     S
Cu1123 N1141   2.009   .     S
Cu1123 Cu1124  2.673   .     S
Cu1123 O1150   1.965   .     S
Cu1123 O1154   1.967   .     S
Cu1123 O1143   1.965   .     S
Cu1124 O1151   1.965   .     S
Cu1124 O1155   1.967   .     S
Cu1124 N1142   2.009   .     S
Cu1124 O1149   1.965   .     S
Cu1124 O1153   1.967   .     S
H1127  O1156   0.992   .     S
H1128  O1144   0.991   .     S
C1157  O1211   1.289   .     A
C1157  O1219   1.290   .     A
C1157  C1158   1.450   .     S
C1158  C1186   1.401   .     A
C1158  C1189   1.401   .     A
C1159  H1206   1.082   .     S
C1159  N1210   1.367   .     A
C1160  N1209   1.367   .     A
C1160  H1207   1.082   .     S
C1160  C753    1.415   1_565 S
C1161  H1208   1.082   .     S
C1161  N1210   1.367   .     A
C1162  H1194   1.082   .     S
C1162  N1209   1.367   .     A
C1162  C751    1.415   1_565 S
C1163  O1220   1.293   .     A
C1163  C1169   1.463   .     S
C1163  O1223   1.291   .     A
C1164  O1222   1.294   .     A
C1164  O1221   1.293   .     A
C1164  C1167   1.468   .     S
C1165  C1176   1.395   .     A
C1165  H1193   1.081   .     S
C1165  C1167   1.390   .     A
C1166  H1201   1.081   .     S
C1166  C1177   1.398   .     A
C1166  C1169   1.388   .     A
C1167  C1170   1.410   .     A
C1168  O1217   1.289   .     A
C1168  C1190   1.450   .     S
C1168  O1218   1.290   .     A
C1169  C1171   1.408   .     A
C1170  C1172   1.420   .     A
C1170  O1224   1.378   .     S
C1171  O1212   1.381   .     S
C1171  C1173   1.417   .     A
C1172  C1178   1.425   .     A
C1172  C1174   1.426   .     A
C1173  C1180   1.425   .     A
C1173  C1175   1.428   .     A
C1174  C1176   1.416   .     A
C1174  C563    1.409   1_556 S
C1175  C1177   1.418   .     A
C1176  C1185   1.415   .     A
C1177  C1179   1.416   .     A
C1178  C1181   1.486   .     S
C1178  C567    1.409   1_556 S
C1179  C1183   1.492   .     S
C1180  C1182   1.485   .     S
C1181  O1213   1.221   .     D
C1181  H1197   1.085   .     S
C1182  O1214   1.221   .     D
C1182  H1198   1.085   .     S
C1183  H1199   1.085   .     S
C1183  O1215   1.221   .     D
C1184  O1216   1.221   .     D
C1184  C1185   1.494   .     S
C1184  H1200   1.085   .     S
C1185  C568    1.408   1_556 S
C1186  H1202   1.083   .     S
C1187  H1203   1.083   .     S
C1187  C1190   1.401   .     A
C1187  C1053   1.383   1_655 S
C1188  H1204   1.083   .     S
C1188  C1190   1.401   .     A
C1188  C1050   1.383   1_655 S
C1189  H1205   1.083   .     S
Cu1191 O1220   1.967   .     S
Cu1191 N1209   2.009   .     S
Cu1191 Cu1192  2.673   .     S
Cu1191 O1218   1.965   .     S
Cu1191 O1222   1.967   .     S
Cu1191 O1211   1.965   .     S
Cu1192 O1219   1.965   .     S
Cu1192 O1223   1.967   .     S
Cu1192 N1210   2.009   .     S
Cu1192 O1217   1.965   .     S
Cu1192 O1221   1.967   .     S
H1195  O1224   0.992   .     S
H1196  O1212   0.991   .     S
