data_str_m2_o2_o10_pcu_sym.48
_audit_creation_date              2020-01-03
_audit_creation_method            'Materials Studio'
_symmetry_space_group_name_H-M    'P1'
_symmetry_Int_Tables_number       1
_symmetry_cell_setting            triclinic
loop_
_symmetry_equiv_pos_as_xyz
  x,y,z
_cell_length_a                    26.1642
_cell_length_b                    30.3147
_cell_length_c                    27.9161
_cell_angle_alpha                 88.5740
_cell_angle_beta                  97.2262
_cell_angle_gamma                 91.9690
loop_
_atom_site_label
_atom_site_type_symbol
_atom_site_fract_x
_atom_site_fract_y
_atom_site_fract_z
_atom_site_U_iso_or_equiv
_atom_site_adp_type
_atom_site_occupancy
C1     C     0.16778   0.16482   0.25085   0.00000  Uiso   1.00
C2     C     0.20502   0.27367   0.44890   0.00000  Uiso   1.00
C3     C     0.16442   0.25264   0.02710   0.00000  Uiso   1.00
C4     C     0.16901   0.24807   0.47279   0.00000  Uiso   1.00
C5     C     0.06804   0.24981   0.23775   0.00000  Uiso   1.00
C6     C     0.26529   0.25027   0.26224   0.00000  Uiso   1.00
C7     C     0.01286   0.24915   0.23097   0.00000  Uiso   1.00
C8     C     0.32047   0.25106   0.26900   0.00000  Uiso   1.00
C9     C     0.17755   0.04433   0.29295   0.00000  Uiso   1.00
C10    C     0.13325   0.45227   0.21396   0.00000  Uiso   1.00
C11    C     0.17872   0.09038   0.29589   0.00000  Uiso   1.00
C12    C     0.16583   0.33475   0.24928   0.00000  Uiso   1.00
C13    C     0.13100   0.40610   0.21377   0.00000  Uiso   1.00
C14    C     0.16958   0.11612   0.25226   0.00000  Uiso   1.00
C15    C     0.16546   0.38270   0.24762   0.00000  Uiso   1.00
C16    C     0.16170   0.09449   0.20776   0.00000  Uiso   1.00
C17    C     0.20143   0.40546   0.28005   0.00000  Uiso   1.00
C18    C     0.16215   0.04884   0.20582   0.00000  Uiso   1.00
C19    C     0.20379   0.45118   0.27926   0.00000  Uiso   1.00
C20    C     0.16973   0.02344   0.24838   0.00000  Uiso   1.00
C21    C     0.16927   0.47497   0.24676   0.00000  Uiso   1.00
C22    C     0.19094   0.10936   0.34608   0.00000  Uiso   1.00
C23    C     0.19443   0.28382   0.05663   0.00000  Uiso   1.00
C24    C     0.24616   0.12891   0.35454   0.00000  Uiso   1.00
C25    C     0.25751   0.14864   0.40468   0.00000  Uiso   1.00
C26    C     0.09039   0.38317   0.17860   0.00000  Uiso   1.00
C27    C     0.10927   0.37922   0.12905   0.00000  Uiso   1.00
C28    C     0.07241   0.35017   0.09571   0.00000  Uiso   1.00
C29    C     0.20801   0.32835   0.03739   0.00000  Uiso   1.00
C30    C     0.13052   0.17105   0.46472   0.00000  Uiso   1.00
C31    C     0.24308   0.30211   0.13647   0.00000  Uiso   1.00
C32    C     0.08940   0.19938   0.36398   0.00000  Uiso   1.00
C33    C     0.13989   0.21604   0.44377   0.00000  Uiso   1.00
C34    C     0.20028   0.27771   0.10759   0.00000  Uiso   1.00
C35    C     0.13336   0.22226   0.39268   0.00000  Uiso   1.00
C36    C     0.12978   0.22643   0.10127   0.00000  Uiso   1.00
C37    C     0.20336   0.27398   0.39842   0.00000  Uiso   1.00
C38    C     0.12806   0.22722   0.05073   0.00000  Uiso   1.00
Cu39   Cu    0.16667   0.24999   0.29821   0.00000  Uiso   1.00
Cu40   Cu    0.16667   0.25000   0.20178   0.00000  Uiso   1.00
H41    H     0.32665   0.24676   0.19437   0.00000  Uiso   1.00
H42    H     0.23140   0.29388   0.38142   0.00000  Uiso   1.00
H43    H     0.09677   0.20880   0.03078   0.00000  Uiso   1.00
H44    H     0.23620   0.29242   0.46844   0.00000  Uiso   1.00
H45    H     0.23201   0.17658   0.40795   0.00000  Uiso   1.00
H46    H     0.25155   0.12325   0.43299   0.00000  Uiso   1.00
H47    H     0.29812   0.16105   0.41070   0.00000  Uiso   1.00
H48    H     0.27382   0.10241   0.35142   0.00000  Uiso   1.00
H49    H     0.25247   0.15496   0.32707   0.00000  Uiso   1.00
H50    H     0.16210   0.13343   0.35299   0.00000  Uiso   1.00
H51    H     0.18748   0.08304   0.37410   0.00000  Uiso   1.00
H52    H     0.00668   0.25349   0.30559   0.00000  Uiso   1.00
H53    H     0.06977   0.31624   0.11140   0.00000  Uiso   1.00
H54    H     0.08691   0.34818   0.06014   0.00000  Uiso   1.00
H55    H     0.03345   0.36430   0.09017   0.00000  Uiso   1.00
H56    H     0.11245   0.41260   0.11208   0.00000  Uiso   1.00
H57    H     0.14804   0.36472   0.13310   0.00000  Uiso   1.00
H58    H     0.07958   0.35008   0.19287   0.00000  Uiso   1.00
H59    H     0.05442   0.40217   0.17445   0.00000  Uiso   1.00
H60    H     0.24263   0.34635   0.05231   0.00000  Uiso   1.00
H61    H     0.15210   0.16121   0.49884   0.00000  Uiso   1.00
H62    H     0.23791   0.31884   0.16892   0.00000  Uiso   1.00
H63    H     0.18280   0.02442   0.32586   0.00000  Uiso   1.00
H64    H     0.09341   0.18314   0.33087   0.00000  Uiso   1.00
H65    H     0.10593   0.47044   0.18926   0.00000  Uiso   1.00
H66    H     0.15501   0.11287   0.17390   0.00000  Uiso   1.00
H67    H     0.22840   0.38771   0.30556   0.00000  Uiso   1.00
H68    H     0.15680   0.03343   0.17088   0.00000  Uiso   1.00
H69    H     0.23276   0.46794   0.30411   0.00000  Uiso   1.00
H70    H     0.10151   0.20659   0.11805   0.00000  Uiso   1.00
N71    N     0.16667   0.25001   0.12934   0.00000  Uiso   1.00
N72    N     0.16667   0.24999   0.37065   0.00000  Uiso   1.00
O73    O     0.16667   0.18572   0.29071   0.00000  Uiso   1.00
O74    O     0.10068   0.14386   0.44400   0.00000  Uiso   1.00
O75    O     0.28603   0.30370   0.12360   0.00000  Uiso   1.00
O76    O     0.04683   0.19869   0.37760   0.00000  Uiso   1.00
O77    O     0.16666   0.31427   0.20928   0.00000  Uiso   1.00
O78    O     0.16667   0.18573   0.20928   0.00000  Uiso   1.00
O79    O     0.16666   0.31427   0.29072   0.00000  Uiso   1.00
O80    O     0.09161   0.24999   0.28132   0.00000  Uiso   1.00
O81    O     0.24172   0.25000   0.21868   0.00000  Uiso   1.00
O82    O     0.09161   0.25000   0.19988   0.00000  Uiso   1.00
O83    O     0.24172   0.25000   0.30011   0.00000  Uiso   1.00
O84    O     0.17878   0.34650   0.00598   0.00000  Uiso   1.00
C85    C     0.50112   0.16482   0.25085   0.00000  Uiso   1.00
C86    C     0.53835   0.27367   0.44890   0.00000  Uiso   1.00
C87    C     0.49775   0.25264   0.02710   0.00000  Uiso   1.00
C88    C     0.50235   0.24807   0.47279   0.00000  Uiso   1.00
C89    C     0.40138   0.24981   0.23775   0.00000  Uiso   1.00
C90    C     0.59862   0.25027   0.26224   0.00000  Uiso   1.00
C91    C     0.34620   0.24915   0.23097   0.00000  Uiso   1.00
C92    C     0.65380   0.25106   0.26900   0.00000  Uiso   1.00
C93    C     0.51088   0.04433   0.29295   0.00000  Uiso   1.00
C94    C     0.46658   0.45227   0.21396   0.00000  Uiso   1.00
C95    C     0.51205   0.09038   0.29589   0.00000  Uiso   1.00
C96    C     0.49916   0.33475   0.24928   0.00000  Uiso   1.00
C97    C     0.46433   0.40610   0.21377   0.00000  Uiso   1.00
C98    C     0.50291   0.11612   0.25226   0.00000  Uiso   1.00
C99    C     0.49879   0.38270   0.24762   0.00000  Uiso   1.00
C100   C     0.49503   0.09449   0.20776   0.00000  Uiso   1.00
C101   C     0.53476   0.40546   0.28005   0.00000  Uiso   1.00
C102   C     0.49548   0.04884   0.20582   0.00000  Uiso   1.00
C103   C     0.53712   0.45118   0.27926   0.00000  Uiso   1.00
C104   C     0.50306   0.02344   0.24838   0.00000  Uiso   1.00
C105   C     0.50260   0.47497   0.24676   0.00000  Uiso   1.00
C106   C     0.52427   0.10936   0.34608   0.00000  Uiso   1.00
C107   C     0.52776   0.28382   0.05663   0.00000  Uiso   1.00
C108   C     0.57949   0.12891   0.35454   0.00000  Uiso   1.00
C109   C     0.59085   0.14864   0.40468   0.00000  Uiso   1.00
C110   C     0.42373   0.38317   0.17860   0.00000  Uiso   1.00
C111   C     0.44261   0.37922   0.12905   0.00000  Uiso   1.00
C112   C     0.40575   0.35017   0.09571   0.00000  Uiso   1.00
C113   C     0.54134   0.32835   0.03739   0.00000  Uiso   1.00
C114   C     0.46385   0.17105   0.46472   0.00000  Uiso   1.00
C115   C     0.57641   0.30211   0.13647   0.00000  Uiso   1.00
C116   C     0.42273   0.19938   0.36398   0.00000  Uiso   1.00
C117   C     0.47323   0.21604   0.44377   0.00000  Uiso   1.00
C118   C     0.53362   0.27771   0.10759   0.00000  Uiso   1.00
C119   C     0.46669   0.22226   0.39268   0.00000  Uiso   1.00
C120   C     0.46311   0.22643   0.10127   0.00000  Uiso   1.00
C121   C     0.53670   0.27398   0.39842   0.00000  Uiso   1.00
C122   C     0.46139   0.22722   0.05073   0.00000  Uiso   1.00
Cu123  Cu    0.50000   0.24999   0.29821   0.00000  Uiso   1.00
Cu124  Cu    0.50000   0.25000   0.20178   0.00000  Uiso   1.00
H125   H     0.65999   0.24676   0.19437   0.00000  Uiso   1.00
H126   H     0.56474   0.29388   0.38142   0.00000  Uiso   1.00
H127   H     0.43011   0.20880   0.03078   0.00000  Uiso   1.00
H128   H     0.56954   0.29242   0.46844   0.00000  Uiso   1.00
H129   H     0.56534   0.17658   0.40795   0.00000  Uiso   1.00
H130   H     0.58488   0.12325   0.43299   0.00000  Uiso   1.00
H131   H     0.63146   0.16105   0.41070   0.00000  Uiso   1.00
H132   H     0.60715   0.10241   0.35142   0.00000  Uiso   1.00
H133   H     0.58580   0.15496   0.32707   0.00000  Uiso   1.00
H134   H     0.49544   0.13343   0.35299   0.00000  Uiso   1.00
H135   H     0.52081   0.08304   0.37410   0.00000  Uiso   1.00
H136   H     0.34001   0.25349   0.30559   0.00000  Uiso   1.00
H137   H     0.40310   0.31624   0.11140   0.00000  Uiso   1.00
H138   H     0.42025   0.34818   0.06014   0.00000  Uiso   1.00
H139   H     0.36678   0.36430   0.09017   0.00000  Uiso   1.00
H140   H     0.44578   0.41260   0.11208   0.00000  Uiso   1.00
H141   H     0.48137   0.36472   0.13310   0.00000  Uiso   1.00
H142   H     0.41292   0.35008   0.19287   0.00000  Uiso   1.00
H143   H     0.38776   0.40217   0.17445   0.00000  Uiso   1.00
H144   H     0.57596   0.34635   0.05231   0.00000  Uiso   1.00
H145   H     0.48544   0.16121   0.49884   0.00000  Uiso   1.00
H146   H     0.57124   0.31884   0.16892   0.00000  Uiso   1.00
H147   H     0.51613   0.02442   0.32586   0.00000  Uiso   1.00
H148   H     0.42674   0.18314   0.33087   0.00000  Uiso   1.00
H149   H     0.43926   0.47044   0.18926   0.00000  Uiso   1.00
H150   H     0.48834   0.11287   0.17390   0.00000  Uiso   1.00
H151   H     0.56173   0.38771   0.30556   0.00000  Uiso   1.00
H152   H     0.49014   0.03343   0.17088   0.00000  Uiso   1.00
H153   H     0.56610   0.46794   0.30411   0.00000  Uiso   1.00
H154   H     0.43485   0.20659   0.11805   0.00000  Uiso   1.00
N155   N     0.50000   0.25001   0.12934   0.00000  Uiso   1.00
N156   N     0.50000   0.24999   0.37065   0.00000  Uiso   1.00
O157   O     0.50000   0.18572   0.29071   0.00000  Uiso   1.00
O158   O     0.43401   0.14386   0.44400   0.00000  Uiso   1.00
O159   O     0.61936   0.30370   0.12360   0.00000  Uiso   1.00
O160   O     0.38016   0.19869   0.37760   0.00000  Uiso   1.00
O161   O     0.50000   0.31427   0.20928   0.00000  Uiso   1.00
O162   O     0.50000   0.18573   0.20928   0.00000  Uiso   1.00
O163   O     0.50000   0.31427   0.29072   0.00000  Uiso   1.00
O164   O     0.42495   0.24999   0.28132   0.00000  Uiso   1.00
O165   O     0.57505   0.25000   0.21868   0.00000  Uiso   1.00
O166   O     0.42495   0.25000   0.19988   0.00000  Uiso   1.00
O167   O     0.57505   0.25000   0.30011   0.00000  Uiso   1.00
O168   O     0.51211   0.34650   0.00598   0.00000  Uiso   1.00
C169   C     0.83445   0.16482   0.25085   0.00000  Uiso   1.00
C170   C     0.87168   0.27367   0.44890   0.00000  Uiso   1.00
C171   C     0.83109   0.25264   0.02710   0.00000  Uiso   1.00
C172   C     0.83568   0.24807   0.47279   0.00000  Uiso   1.00
C173   C     0.73471   0.24981   0.23775   0.00000  Uiso   1.00
C174   C     0.93196   0.25027   0.26224   0.00000  Uiso   1.00
C175   C     0.67953   0.24915   0.23097   0.00000  Uiso   1.00
C176   C     0.98713   0.25106   0.26900   0.00000  Uiso   1.00
C177   C     0.84422   0.04433   0.29295   0.00000  Uiso   1.00
C178   C     0.79992   0.45227   0.21396   0.00000  Uiso   1.00
C179   C     0.84539   0.09038   0.29589   0.00000  Uiso   1.00
C180   C     0.83249   0.33475   0.24928   0.00000  Uiso   1.00
C181   C     0.79767   0.40610   0.21377   0.00000  Uiso   1.00
C182   C     0.83624   0.11612   0.25226   0.00000  Uiso   1.00
C183   C     0.83212   0.38270   0.24762   0.00000  Uiso   1.00
C184   C     0.82837   0.09449   0.20776   0.00000  Uiso   1.00
C185   C     0.86809   0.40546   0.28005   0.00000  Uiso   1.00
C186   C     0.82881   0.04884   0.20582   0.00000  Uiso   1.00
C187   C     0.87045   0.45118   0.27926   0.00000  Uiso   1.00
C188   C     0.83640   0.02344   0.24838   0.00000  Uiso   1.00
C189   C     0.83594   0.47497   0.24676   0.00000  Uiso   1.00
C190   C     0.85760   0.10936   0.34608   0.00000  Uiso   1.00
C191   C     0.86109   0.28382   0.05663   0.00000  Uiso   1.00
C192   C     0.91282   0.12891   0.35454   0.00000  Uiso   1.00
C193   C     0.92418   0.14864   0.40468   0.00000  Uiso   1.00
C194   C     0.75706   0.38317   0.17860   0.00000  Uiso   1.00
C195   C     0.77594   0.37922   0.12905   0.00000  Uiso   1.00
C196   C     0.73908   0.35017   0.09571   0.00000  Uiso   1.00
C197   C     0.87467   0.32835   0.03739   0.00000  Uiso   1.00
C198   C     0.79719   0.17105   0.46472   0.00000  Uiso   1.00
C199   C     0.90974   0.30211   0.13647   0.00000  Uiso   1.00
C200   C     0.75606   0.19938   0.36398   0.00000  Uiso   1.00
C201   C     0.80656   0.21604   0.44377   0.00000  Uiso   1.00
C202   C     0.86695   0.27771   0.10759   0.00000  Uiso   1.00
C203   C     0.80002   0.22226   0.39268   0.00000  Uiso   1.00
C204   C     0.79644   0.22643   0.10127   0.00000  Uiso   1.00
C205   C     0.87003   0.27398   0.39842   0.00000  Uiso   1.00
C206   C     0.79473   0.22722   0.05073   0.00000  Uiso   1.00
Cu207  Cu    0.83333   0.24999   0.29821   0.00000  Uiso   1.00
Cu208  Cu    0.83333   0.25000   0.20178   0.00000  Uiso   1.00
H209   H     0.99332   0.24676   0.19437   0.00000  Uiso   1.00
H210   H     0.89807   0.29388   0.38142   0.00000  Uiso   1.00
H211   H     0.76344   0.20880   0.03078   0.00000  Uiso   1.00
H212   H     0.90287   0.29242   0.46844   0.00000  Uiso   1.00
H213   H     0.89867   0.17658   0.40795   0.00000  Uiso   1.00
H214   H     0.91822   0.12325   0.43299   0.00000  Uiso   1.00
H215   H     0.96479   0.16105   0.41070   0.00000  Uiso   1.00
H216   H     0.94049   0.10241   0.35142   0.00000  Uiso   1.00
H217   H     0.91913   0.15496   0.32707   0.00000  Uiso   1.00
H218   H     0.82877   0.13343   0.35299   0.00000  Uiso   1.00
H219   H     0.85415   0.08304   0.37410   0.00000  Uiso   1.00
H220   H     0.67334   0.25349   0.30559   0.00000  Uiso   1.00
H221   H     0.73643   0.31624   0.11140   0.00000  Uiso   1.00
H222   H     0.75358   0.34818   0.06014   0.00000  Uiso   1.00
H223   H     0.70012   0.36430   0.09017   0.00000  Uiso   1.00
H224   H     0.77912   0.41260   0.11208   0.00000  Uiso   1.00
H225   H     0.81471   0.36472   0.13310   0.00000  Uiso   1.00
H226   H     0.74625   0.35008   0.19287   0.00000  Uiso   1.00
H227   H     0.72109   0.40217   0.17445   0.00000  Uiso   1.00
H228   H     0.90930   0.34635   0.05231   0.00000  Uiso   1.00
H229   H     0.81877   0.16121   0.49884   0.00000  Uiso   1.00
H230   H     0.90457   0.31884   0.16892   0.00000  Uiso   1.00
H231   H     0.84947   0.02442   0.32586   0.00000  Uiso   1.00
H232   H     0.76007   0.18314   0.33087   0.00000  Uiso   1.00
H233   H     0.77260   0.47044   0.18926   0.00000  Uiso   1.00
H234   H     0.82167   0.11287   0.17390   0.00000  Uiso   1.00
H235   H     0.89507   0.38771   0.30556   0.00000  Uiso   1.00
H236   H     0.82347   0.03343   0.17088   0.00000  Uiso   1.00
H237   H     0.89943   0.46794   0.30411   0.00000  Uiso   1.00
H238   H     0.76818   0.20659   0.11805   0.00000  Uiso   1.00
N239   N     0.83333   0.25001   0.12934   0.00000  Uiso   1.00
N240   N     0.83333   0.24999   0.37065   0.00000  Uiso   1.00
O241   O     0.83334   0.18572   0.29071   0.00000  Uiso   1.00
O242   O     0.76734   0.14386   0.44400   0.00000  Uiso   1.00
O243   O     0.95269   0.30370   0.12360   0.00000  Uiso   1.00
O244   O     0.71350   0.19869   0.37760   0.00000  Uiso   1.00
O245   O     0.83333   0.31427   0.20928   0.00000  Uiso   1.00
O246   O     0.83334   0.18573   0.20928   0.00000  Uiso   1.00
O247   O     0.83333   0.31427   0.29072   0.00000  Uiso   1.00
O248   O     0.75828   0.24999   0.28132   0.00000  Uiso   1.00
O249   O     0.90839   0.25000   0.21868   0.00000  Uiso   1.00
O250   O     0.75828   0.25000   0.19988   0.00000  Uiso   1.00
O251   O     0.90839   0.25000   0.30011   0.00000  Uiso   1.00
O252   O     0.84545   0.34650   0.00598   0.00000  Uiso   1.00
C253   C     0.16778   0.66482   0.25085   0.00000  Uiso   1.00
C254   C     0.20502   0.77367   0.44890   0.00000  Uiso   1.00
C255   C     0.16442   0.75264   0.02710   0.00000  Uiso   1.00
C256   C     0.16901   0.74807   0.47279   0.00000  Uiso   1.00
C257   C     0.06804   0.74981   0.23775   0.00000  Uiso   1.00
C258   C     0.26529   0.75027   0.26224   0.00000  Uiso   1.00
C259   C     0.01286   0.74915   0.23097   0.00000  Uiso   1.00
C260   C     0.32047   0.75106   0.26900   0.00000  Uiso   1.00
C261   C     0.17755   0.54433   0.29295   0.00000  Uiso   1.00
C262   C     0.13325   0.95227   0.21396   0.00000  Uiso   1.00
C263   C     0.17872   0.59038   0.29589   0.00000  Uiso   1.00
C264   C     0.16583   0.83475   0.24928   0.00000  Uiso   1.00
C265   C     0.13100   0.90610   0.21377   0.00000  Uiso   1.00
C266   C     0.16958   0.61612   0.25226   0.00000  Uiso   1.00
C267   C     0.16546   0.88270   0.24762   0.00000  Uiso   1.00
C268   C     0.16170   0.59449   0.20776   0.00000  Uiso   1.00
C269   C     0.20143   0.90546   0.28005   0.00000  Uiso   1.00
C270   C     0.16215   0.54884   0.20582   0.00000  Uiso   1.00
C271   C     0.20379   0.95118   0.27926   0.00000  Uiso   1.00
C272   C     0.16973   0.52344   0.24838   0.00000  Uiso   1.00
C273   C     0.16927   0.97497   0.24676   0.00000  Uiso   1.00
C274   C     0.19094   0.60936   0.34608   0.00000  Uiso   1.00
C275   C     0.19443   0.78382   0.05663   0.00000  Uiso   1.00
C276   C     0.24616   0.62891   0.35454   0.00000  Uiso   1.00
C277   C     0.25751   0.64864   0.40468   0.00000  Uiso   1.00
C278   C     0.09039   0.88317   0.17860   0.00000  Uiso   1.00
C279   C     0.10927   0.87922   0.12905   0.00000  Uiso   1.00
C280   C     0.07241   0.85017   0.09571   0.00000  Uiso   1.00
C281   C     0.20801   0.82835   0.03739   0.00000  Uiso   1.00
C282   C     0.13052   0.67105   0.46472   0.00000  Uiso   1.00
C283   C     0.24308   0.80211   0.13647   0.00000  Uiso   1.00
C284   C     0.08940   0.69938   0.36398   0.00000  Uiso   1.00
C285   C     0.13989   0.71604   0.44377   0.00000  Uiso   1.00
C286   C     0.20028   0.77771   0.10759   0.00000  Uiso   1.00
C287   C     0.13336   0.72226   0.39268   0.00000  Uiso   1.00
C288   C     0.12978   0.72643   0.10127   0.00000  Uiso   1.00
C289   C     0.20336   0.77398   0.39842   0.00000  Uiso   1.00
C290   C     0.12806   0.72722   0.05073   0.00000  Uiso   1.00
Cu291  Cu    0.16667   0.74999   0.29821   0.00000  Uiso   1.00
Cu292  Cu    0.16667   0.75000   0.20178   0.00000  Uiso   1.00
H293   H     0.32665   0.74676   0.19437   0.00000  Uiso   1.00
H294   H     0.23140   0.79388   0.38142   0.00000  Uiso   1.00
H295   H     0.09677   0.70880   0.03078   0.00000  Uiso   1.00
H296   H     0.23620   0.79242   0.46844   0.00000  Uiso   1.00
H297   H     0.23201   0.67658   0.40795   0.00000  Uiso   1.00
H298   H     0.25155   0.62325   0.43299   0.00000  Uiso   1.00
H299   H     0.29812   0.66105   0.41070   0.00000  Uiso   1.00
H300   H     0.27382   0.60241   0.35142   0.00000  Uiso   1.00
H301   H     0.25247   0.65496   0.32707   0.00000  Uiso   1.00
H302   H     0.16210   0.63343   0.35299   0.00000  Uiso   1.00
H303   H     0.18748   0.58304   0.37410   0.00000  Uiso   1.00
H304   H     0.00668   0.75349   0.30559   0.00000  Uiso   1.00
H305   H     0.06977   0.81624   0.11140   0.00000  Uiso   1.00
H306   H     0.08691   0.84818   0.06014   0.00000  Uiso   1.00
H307   H     0.03345   0.86430   0.09017   0.00000  Uiso   1.00
H308   H     0.11245   0.91260   0.11208   0.00000  Uiso   1.00
H309   H     0.14804   0.86472   0.13310   0.00000  Uiso   1.00
H310   H     0.07958   0.85008   0.19287   0.00000  Uiso   1.00
H311   H     0.05442   0.90217   0.17445   0.00000  Uiso   1.00
H312   H     0.24263   0.84635   0.05231   0.00000  Uiso   1.00
H313   H     0.15210   0.66121   0.49884   0.00000  Uiso   1.00
H314   H     0.23791   0.81884   0.16892   0.00000  Uiso   1.00
H315   H     0.18280   0.52442   0.32586   0.00000  Uiso   1.00
H316   H     0.09341   0.68314   0.33087   0.00000  Uiso   1.00
H317   H     0.10593   0.97044   0.18926   0.00000  Uiso   1.00
H318   H     0.15501   0.61287   0.17390   0.00000  Uiso   1.00
H319   H     0.22840   0.88771   0.30556   0.00000  Uiso   1.00
H320   H     0.15680   0.53343   0.17088   0.00000  Uiso   1.00
H321   H     0.23276   0.96794   0.30411   0.00000  Uiso   1.00
H322   H     0.10151   0.70659   0.11805   0.00000  Uiso   1.00
N323   N     0.16667   0.75001   0.12934   0.00000  Uiso   1.00
N324   N     0.16667   0.74999   0.37065   0.00000  Uiso   1.00
O325   O     0.16667   0.68572   0.29071   0.00000  Uiso   1.00
O326   O     0.10068   0.64386   0.44400   0.00000  Uiso   1.00
O327   O     0.28603   0.80370   0.12360   0.00000  Uiso   1.00
O328   O     0.04683   0.69869   0.37760   0.00000  Uiso   1.00
O329   O     0.16666   0.81427   0.20928   0.00000  Uiso   1.00
O330   O     0.16667   0.68573   0.20928   0.00000  Uiso   1.00
O331   O     0.16666   0.81427   0.29072   0.00000  Uiso   1.00
O332   O     0.09161   0.74999   0.28132   0.00000  Uiso   1.00
O333   O     0.24172   0.75000   0.21868   0.00000  Uiso   1.00
O334   O     0.09161   0.75000   0.19988   0.00000  Uiso   1.00
O335   O     0.24172   0.75000   0.30011   0.00000  Uiso   1.00
O336   O     0.17878   0.84650   0.00598   0.00000  Uiso   1.00
C337   C     0.50112   0.66482   0.25085   0.00000  Uiso   1.00
C338   C     0.53835   0.77367   0.44890   0.00000  Uiso   1.00
C339   C     0.49775   0.75264   0.02710   0.00000  Uiso   1.00
C340   C     0.50235   0.74807   0.47279   0.00000  Uiso   1.00
C341   C     0.40138   0.74981   0.23775   0.00000  Uiso   1.00
C342   C     0.59862   0.75027   0.26224   0.00000  Uiso   1.00
C343   C     0.34620   0.74915   0.23097   0.00000  Uiso   1.00
C344   C     0.65380   0.75106   0.26900   0.00000  Uiso   1.00
C345   C     0.51088   0.54433   0.29295   0.00000  Uiso   1.00
C346   C     0.46658   0.95227   0.21396   0.00000  Uiso   1.00
C347   C     0.51205   0.59038   0.29589   0.00000  Uiso   1.00
C348   C     0.49916   0.83475   0.24928   0.00000  Uiso   1.00
C349   C     0.46433   0.90610   0.21377   0.00000  Uiso   1.00
C350   C     0.50291   0.61612   0.25226   0.00000  Uiso   1.00
C351   C     0.49879   0.88270   0.24762   0.00000  Uiso   1.00
C352   C     0.49503   0.59449   0.20776   0.00000  Uiso   1.00
C353   C     0.53476   0.90546   0.28005   0.00000  Uiso   1.00
C354   C     0.49548   0.54884   0.20582   0.00000  Uiso   1.00
C355   C     0.53712   0.95118   0.27926   0.00000  Uiso   1.00
C356   C     0.50306   0.52344   0.24838   0.00000  Uiso   1.00
C357   C     0.50260   0.97497   0.24676   0.00000  Uiso   1.00
C358   C     0.52427   0.60936   0.34608   0.00000  Uiso   1.00
C359   C     0.52776   0.78382   0.05663   0.00000  Uiso   1.00
C360   C     0.57949   0.62891   0.35454   0.00000  Uiso   1.00
C361   C     0.59085   0.64864   0.40468   0.00000  Uiso   1.00
C362   C     0.42373   0.88317   0.17860   0.00000  Uiso   1.00
C363   C     0.44261   0.87922   0.12905   0.00000  Uiso   1.00
C364   C     0.40575   0.85017   0.09571   0.00000  Uiso   1.00
C365   C     0.54134   0.82835   0.03739   0.00000  Uiso   1.00
C366   C     0.46385   0.67105   0.46472   0.00000  Uiso   1.00
C367   C     0.57641   0.80211   0.13647   0.00000  Uiso   1.00
C368   C     0.42273   0.69938   0.36398   0.00000  Uiso   1.00
C369   C     0.47323   0.71604   0.44377   0.00000  Uiso   1.00
C370   C     0.53362   0.77771   0.10759   0.00000  Uiso   1.00
C371   C     0.46669   0.72226   0.39268   0.00000  Uiso   1.00
C372   C     0.46311   0.72643   0.10127   0.00000  Uiso   1.00
C373   C     0.53670   0.77398   0.39842   0.00000  Uiso   1.00
C374   C     0.46139   0.72722   0.05073   0.00000  Uiso   1.00
Cu375  Cu    0.50000   0.74999   0.29821   0.00000  Uiso   1.00
Cu376  Cu    0.50000   0.75000   0.20178   0.00000  Uiso   1.00
H377   H     0.65999   0.74676   0.19437   0.00000  Uiso   1.00
H378   H     0.56474   0.79388   0.38142   0.00000  Uiso   1.00
H379   H     0.43011   0.70880   0.03078   0.00000  Uiso   1.00
H380   H     0.56954   0.79242   0.46844   0.00000  Uiso   1.00
H381   H     0.56534   0.67658   0.40795   0.00000  Uiso   1.00
H382   H     0.58488   0.62325   0.43299   0.00000  Uiso   1.00
H383   H     0.63146   0.66105   0.41070   0.00000  Uiso   1.00
H384   H     0.60715   0.60241   0.35142   0.00000  Uiso   1.00
H385   H     0.58580   0.65496   0.32707   0.00000  Uiso   1.00
H386   H     0.49544   0.63343   0.35299   0.00000  Uiso   1.00
H387   H     0.52081   0.58304   0.37410   0.00000  Uiso   1.00
H388   H     0.34001   0.75349   0.30559   0.00000  Uiso   1.00
H389   H     0.40310   0.81624   0.11140   0.00000  Uiso   1.00
H390   H     0.42025   0.84818   0.06014   0.00000  Uiso   1.00
H391   H     0.36678   0.86430   0.09017   0.00000  Uiso   1.00
H392   H     0.44578   0.91260   0.11208   0.00000  Uiso   1.00
H393   H     0.48137   0.86472   0.13310   0.00000  Uiso   1.00
H394   H     0.41292   0.85008   0.19287   0.00000  Uiso   1.00
H395   H     0.38776   0.90217   0.17445   0.00000  Uiso   1.00
H396   H     0.57596   0.84635   0.05231   0.00000  Uiso   1.00
H397   H     0.48544   0.66121   0.49884   0.00000  Uiso   1.00
H398   H     0.57124   0.81884   0.16892   0.00000  Uiso   1.00
H399   H     0.51613   0.52442   0.32586   0.00000  Uiso   1.00
H400   H     0.42674   0.68314   0.33087   0.00000  Uiso   1.00
H401   H     0.43926   0.97044   0.18926   0.00000  Uiso   1.00
H402   H     0.48834   0.61287   0.17390   0.00000  Uiso   1.00
H403   H     0.56173   0.88771   0.30556   0.00000  Uiso   1.00
H404   H     0.49014   0.53343   0.17088   0.00000  Uiso   1.00
H405   H     0.56610   0.96794   0.30411   0.00000  Uiso   1.00
H406   H     0.43485   0.70659   0.11805   0.00000  Uiso   1.00
N407   N     0.50000   0.75001   0.12934   0.00000  Uiso   1.00
N408   N     0.50000   0.74999   0.37065   0.00000  Uiso   1.00
O409   O     0.50000   0.68572   0.29071   0.00000  Uiso   1.00
O410   O     0.43401   0.64386   0.44400   0.00000  Uiso   1.00
O411   O     0.61936   0.80370   0.12360   0.00000  Uiso   1.00
O412   O     0.38016   0.69869   0.37760   0.00000  Uiso   1.00
O413   O     0.50000   0.81427   0.20928   0.00000  Uiso   1.00
O414   O     0.50000   0.68573   0.20928   0.00000  Uiso   1.00
O415   O     0.50000   0.81427   0.29072   0.00000  Uiso   1.00
O416   O     0.42495   0.74999   0.28132   0.00000  Uiso   1.00
O417   O     0.57505   0.75000   0.21868   0.00000  Uiso   1.00
O418   O     0.42495   0.75000   0.19988   0.00000  Uiso   1.00
O419   O     0.57505   0.75000   0.30011   0.00000  Uiso   1.00
O420   O     0.51211   0.84650   0.00598   0.00000  Uiso   1.00
C421   C     0.83445   0.66482   0.25085   0.00000  Uiso   1.00
C422   C     0.87168   0.77367   0.44890   0.00000  Uiso   1.00
C423   C     0.83109   0.75264   0.02710   0.00000  Uiso   1.00
C424   C     0.83568   0.74807   0.47279   0.00000  Uiso   1.00
C425   C     0.73471   0.74981   0.23775   0.00000  Uiso   1.00
C426   C     0.93196   0.75027   0.26224   0.00000  Uiso   1.00
C427   C     0.67953   0.74915   0.23097   0.00000  Uiso   1.00
C428   C     0.98713   0.75106   0.26900   0.00000  Uiso   1.00
C429   C     0.84422   0.54433   0.29295   0.00000  Uiso   1.00
C430   C     0.79992   0.95227   0.21396   0.00000  Uiso   1.00
C431   C     0.84539   0.59038   0.29589   0.00000  Uiso   1.00
C432   C     0.83249   0.83475   0.24928   0.00000  Uiso   1.00
C433   C     0.79767   0.90610   0.21377   0.00000  Uiso   1.00
C434   C     0.83624   0.61612   0.25226   0.00000  Uiso   1.00
C435   C     0.83212   0.88270   0.24762   0.00000  Uiso   1.00
C436   C     0.82837   0.59449   0.20776   0.00000  Uiso   1.00
C437   C     0.86809   0.90546   0.28005   0.00000  Uiso   1.00
C438   C     0.82881   0.54884   0.20582   0.00000  Uiso   1.00
C439   C     0.87045   0.95118   0.27926   0.00000  Uiso   1.00
C440   C     0.83640   0.52344   0.24838   0.00000  Uiso   1.00
C441   C     0.83594   0.97497   0.24676   0.00000  Uiso   1.00
C442   C     0.85760   0.60936   0.34608   0.00000  Uiso   1.00
C443   C     0.86109   0.78382   0.05663   0.00000  Uiso   1.00
C444   C     0.91282   0.62891   0.35454   0.00000  Uiso   1.00
C445   C     0.92418   0.64864   0.40468   0.00000  Uiso   1.00
C446   C     0.75706   0.88317   0.17860   0.00000  Uiso   1.00
C447   C     0.77594   0.87922   0.12905   0.00000  Uiso   1.00
C448   C     0.73908   0.85017   0.09571   0.00000  Uiso   1.00
C449   C     0.87467   0.82835   0.03739   0.00000  Uiso   1.00
C450   C     0.79719   0.67105   0.46472   0.00000  Uiso   1.00
C451   C     0.90974   0.80211   0.13647   0.00000  Uiso   1.00
C452   C     0.75606   0.69938   0.36398   0.00000  Uiso   1.00
C453   C     0.80656   0.71604   0.44377   0.00000  Uiso   1.00
C454   C     0.86695   0.77771   0.10759   0.00000  Uiso   1.00
C455   C     0.80002   0.72226   0.39268   0.00000  Uiso   1.00
C456   C     0.79644   0.72643   0.10127   0.00000  Uiso   1.00
C457   C     0.87003   0.77398   0.39842   0.00000  Uiso   1.00
C458   C     0.79473   0.72722   0.05073   0.00000  Uiso   1.00
Cu459  Cu    0.83333   0.74999   0.29821   0.00000  Uiso   1.00
Cu460  Cu    0.83333   0.75000   0.20178   0.00000  Uiso   1.00
H461   H     0.99332   0.74676   0.19437   0.00000  Uiso   1.00
H462   H     0.89807   0.79388   0.38142   0.00000  Uiso   1.00
H463   H     0.76344   0.70880   0.03078   0.00000  Uiso   1.00
H464   H     0.90287   0.79242   0.46844   0.00000  Uiso   1.00
H465   H     0.89867   0.67658   0.40795   0.00000  Uiso   1.00
H466   H     0.91822   0.62325   0.43299   0.00000  Uiso   1.00
H467   H     0.96479   0.66105   0.41070   0.00000  Uiso   1.00
H468   H     0.94049   0.60241   0.35142   0.00000  Uiso   1.00
H469   H     0.91913   0.65496   0.32707   0.00000  Uiso   1.00
H470   H     0.82877   0.63343   0.35299   0.00000  Uiso   1.00
H471   H     0.85415   0.58304   0.37410   0.00000  Uiso   1.00
H472   H     0.67334   0.75349   0.30559   0.00000  Uiso   1.00
H473   H     0.73643   0.81624   0.11140   0.00000  Uiso   1.00
H474   H     0.75358   0.84818   0.06014   0.00000  Uiso   1.00
H475   H     0.70012   0.86430   0.09017   0.00000  Uiso   1.00
H476   H     0.77912   0.91260   0.11208   0.00000  Uiso   1.00
H477   H     0.81471   0.86472   0.13310   0.00000  Uiso   1.00
H478   H     0.74625   0.85008   0.19287   0.00000  Uiso   1.00
H479   H     0.72109   0.90217   0.17445   0.00000  Uiso   1.00
H480   H     0.90930   0.84635   0.05231   0.00000  Uiso   1.00
H481   H     0.81877   0.66121   0.49884   0.00000  Uiso   1.00
H482   H     0.90457   0.81884   0.16892   0.00000  Uiso   1.00
H483   H     0.84947   0.52442   0.32586   0.00000  Uiso   1.00
H484   H     0.76007   0.68314   0.33087   0.00000  Uiso   1.00
H485   H     0.77260   0.97044   0.18926   0.00000  Uiso   1.00
H486   H     0.82167   0.61287   0.17390   0.00000  Uiso   1.00
H487   H     0.89507   0.88771   0.30556   0.00000  Uiso   1.00
H488   H     0.82347   0.53343   0.17088   0.00000  Uiso   1.00
H489   H     0.89943   0.96794   0.30411   0.00000  Uiso   1.00
H490   H     0.76818   0.70659   0.11805   0.00000  Uiso   1.00
N491   N     0.83333   0.75001   0.12934   0.00000  Uiso   1.00
N492   N     0.83333   0.74999   0.37065   0.00000  Uiso   1.00
O493   O     0.83334   0.68572   0.29071   0.00000  Uiso   1.00
O494   O     0.76734   0.64386   0.44400   0.00000  Uiso   1.00
O495   O     0.95269   0.80370   0.12360   0.00000  Uiso   1.00
O496   O     0.71350   0.69869   0.37760   0.00000  Uiso   1.00
O497   O     0.83333   0.81427   0.20928   0.00000  Uiso   1.00
O498   O     0.83334   0.68573   0.20928   0.00000  Uiso   1.00
O499   O     0.83333   0.81427   0.29072   0.00000  Uiso   1.00
O500   O     0.75828   0.74999   0.28132   0.00000  Uiso   1.00
O501   O     0.90839   0.75000   0.21868   0.00000  Uiso   1.00
O502   O     0.75828   0.75000   0.19988   0.00000  Uiso   1.00
O503   O     0.90839   0.75000   0.30011   0.00000  Uiso   1.00
O504   O     0.84545   0.84650   0.00598   0.00000  Uiso   1.00
C505   C     0.16778   0.16482   0.75085   0.00000  Uiso   1.00
C506   C     0.20502   0.27367   0.94890   0.00000  Uiso   1.00
C507   C     0.16442   0.25264   0.52710   0.00000  Uiso   1.00
C508   C     0.16901   0.24807   0.97279   0.00000  Uiso   1.00
C509   C     0.06804   0.24981   0.73775   0.00000  Uiso   1.00
C510   C     0.26529   0.25027   0.76224   0.00000  Uiso   1.00
C511   C     0.01286   0.24915   0.73097   0.00000  Uiso   1.00
C512   C     0.32047   0.25106   0.76900   0.00000  Uiso   1.00
C513   C     0.17755   0.04433   0.79295   0.00000  Uiso   1.00
C514   C     0.13325   0.45227   0.71396   0.00000  Uiso   1.00
C515   C     0.17872   0.09038   0.79589   0.00000  Uiso   1.00
C516   C     0.16583   0.33475   0.74928   0.00000  Uiso   1.00
C517   C     0.13100   0.40610   0.71377   0.00000  Uiso   1.00
C518   C     0.16958   0.11612   0.75226   0.00000  Uiso   1.00
C519   C     0.16546   0.38270   0.74762   0.00000  Uiso   1.00
C520   C     0.16170   0.09449   0.70776   0.00000  Uiso   1.00
C521   C     0.20143   0.40546   0.78005   0.00000  Uiso   1.00
C522   C     0.16215   0.04884   0.70582   0.00000  Uiso   1.00
C523   C     0.20379   0.45118   0.77926   0.00000  Uiso   1.00
C524   C     0.16973   0.02344   0.74838   0.00000  Uiso   1.00
C525   C     0.16927   0.47497   0.74676   0.00000  Uiso   1.00
C526   C     0.19094   0.10936   0.84608   0.00000  Uiso   1.00
C527   C     0.19443   0.28382   0.55663   0.00000  Uiso   1.00
C528   C     0.24616   0.12891   0.85454   0.00000  Uiso   1.00
C529   C     0.25751   0.14864   0.90468   0.00000  Uiso   1.00
C530   C     0.09039   0.38317   0.67860   0.00000  Uiso   1.00
C531   C     0.10927   0.37922   0.62905   0.00000  Uiso   1.00
C532   C     0.07241   0.35017   0.59571   0.00000  Uiso   1.00
C533   C     0.20801   0.32835   0.53739   0.00000  Uiso   1.00
C534   C     0.13052   0.17105   0.96472   0.00000  Uiso   1.00
C535   C     0.24308   0.30211   0.63647   0.00000  Uiso   1.00
C536   C     0.08940   0.19938   0.86398   0.00000  Uiso   1.00
C537   C     0.13989   0.21604   0.94377   0.00000  Uiso   1.00
C538   C     0.20028   0.27771   0.60759   0.00000  Uiso   1.00
C539   C     0.13336   0.22226   0.89268   0.00000  Uiso   1.00
C540   C     0.12978   0.22643   0.60127   0.00000  Uiso   1.00
C541   C     0.20336   0.27398   0.89842   0.00000  Uiso   1.00
C542   C     0.12806   0.22722   0.55073   0.00000  Uiso   1.00
Cu543  Cu    0.16667   0.24999   0.79821   0.00000  Uiso   1.00
Cu544  Cu    0.16667   0.25000   0.70178   0.00000  Uiso   1.00
H545   H     0.32665   0.24676   0.69437   0.00000  Uiso   1.00
H546   H     0.23140   0.29388   0.88142   0.00000  Uiso   1.00
H547   H     0.09677   0.20880   0.53078   0.00000  Uiso   1.00
H548   H     0.23620   0.29242   0.96844   0.00000  Uiso   1.00
H549   H     0.23201   0.17658   0.90795   0.00000  Uiso   1.00
H550   H     0.25155   0.12325   0.93299   0.00000  Uiso   1.00
H551   H     0.29812   0.16105   0.91070   0.00000  Uiso   1.00
H552   H     0.27382   0.10241   0.85142   0.00000  Uiso   1.00
H553   H     0.25247   0.15496   0.82707   0.00000  Uiso   1.00
H554   H     0.16210   0.13343   0.85299   0.00000  Uiso   1.00
H555   H     0.18748   0.08304   0.87410   0.00000  Uiso   1.00
H556   H     0.00668   0.25349   0.80559   0.00000  Uiso   1.00
H557   H     0.06977   0.31624   0.61140   0.00000  Uiso   1.00
H558   H     0.08691   0.34818   0.56014   0.00000  Uiso   1.00
H559   H     0.03345   0.36430   0.59017   0.00000  Uiso   1.00
H560   H     0.11245   0.41260   0.61208   0.00000  Uiso   1.00
H561   H     0.14804   0.36472   0.63310   0.00000  Uiso   1.00
H562   H     0.07958   0.35008   0.69287   0.00000  Uiso   1.00
H563   H     0.05442   0.40217   0.67445   0.00000  Uiso   1.00
H564   H     0.24263   0.34635   0.55231   0.00000  Uiso   1.00
H565   H     0.15210   0.16121   0.99884   0.00000  Uiso   1.00
H566   H     0.23791   0.31884   0.66892   0.00000  Uiso   1.00
H567   H     0.18280   0.02442   0.82586   0.00000  Uiso   1.00
H568   H     0.09341   0.18314   0.83087   0.00000  Uiso   1.00
H569   H     0.10593   0.47044   0.68926   0.00000  Uiso   1.00
H570   H     0.15501   0.11287   0.67390   0.00000  Uiso   1.00
H571   H     0.22840   0.38771   0.80556   0.00000  Uiso   1.00
H572   H     0.15680   0.03343   0.67088   0.00000  Uiso   1.00
H573   H     0.23276   0.46794   0.80411   0.00000  Uiso   1.00
H574   H     0.10151   0.20659   0.61805   0.00000  Uiso   1.00
N575   N     0.16667   0.25001   0.62934   0.00000  Uiso   1.00
N576   N     0.16667   0.24999   0.87065   0.00000  Uiso   1.00
O577   O     0.16667   0.18572   0.79071   0.00000  Uiso   1.00
O578   O     0.10068   0.14386   0.94400   0.00000  Uiso   1.00
O579   O     0.28603   0.30370   0.62360   0.00000  Uiso   1.00
O580   O     0.04683   0.19869   0.87760   0.00000  Uiso   1.00
O581   O     0.16666   0.31427   0.70928   0.00000  Uiso   1.00
O582   O     0.16667   0.18573   0.70928   0.00000  Uiso   1.00
O583   O     0.16666   0.31427   0.79072   0.00000  Uiso   1.00
O584   O     0.09161   0.24999   0.78132   0.00000  Uiso   1.00
O585   O     0.24172   0.25000   0.71868   0.00000  Uiso   1.00
O586   O     0.09161   0.25000   0.69988   0.00000  Uiso   1.00
O587   O     0.24172   0.25000   0.80011   0.00000  Uiso   1.00
O588   O     0.17878   0.34650   0.50598   0.00000  Uiso   1.00
C589   C     0.50112   0.16482   0.75085   0.00000  Uiso   1.00
C590   C     0.53835   0.27367   0.94890   0.00000  Uiso   1.00
C591   C     0.49775   0.25264   0.52710   0.00000  Uiso   1.00
C592   C     0.50235   0.24807   0.97279   0.00000  Uiso   1.00
C593   C     0.40138   0.24981   0.73775   0.00000  Uiso   1.00
C594   C     0.59862   0.25027   0.76224   0.00000  Uiso   1.00
C595   C     0.34620   0.24915   0.73097   0.00000  Uiso   1.00
C596   C     0.65380   0.25106   0.76900   0.00000  Uiso   1.00
C597   C     0.51088   0.04433   0.79295   0.00000  Uiso   1.00
C598   C     0.46658   0.45227   0.71396   0.00000  Uiso   1.00
C599   C     0.51205   0.09038   0.79589   0.00000  Uiso   1.00
C600   C     0.49916   0.33475   0.74928   0.00000  Uiso   1.00
C601   C     0.46433   0.40610   0.71377   0.00000  Uiso   1.00
C602   C     0.50291   0.11612   0.75226   0.00000  Uiso   1.00
C603   C     0.49879   0.38270   0.74762   0.00000  Uiso   1.00
C604   C     0.49503   0.09449   0.70776   0.00000  Uiso   1.00
C605   C     0.53476   0.40546   0.78005   0.00000  Uiso   1.00
C606   C     0.49548   0.04884   0.70582   0.00000  Uiso   1.00
C607   C     0.53712   0.45118   0.77926   0.00000  Uiso   1.00
C608   C     0.50306   0.02344   0.74838   0.00000  Uiso   1.00
C609   C     0.50260   0.47497   0.74676   0.00000  Uiso   1.00
C610   C     0.52427   0.10936   0.84608   0.00000  Uiso   1.00
C611   C     0.52776   0.28382   0.55663   0.00000  Uiso   1.00
C612   C     0.57949   0.12891   0.85454   0.00000  Uiso   1.00
C613   C     0.59085   0.14864   0.90468   0.00000  Uiso   1.00
C614   C     0.42373   0.38317   0.67860   0.00000  Uiso   1.00
C615   C     0.44261   0.37922   0.62905   0.00000  Uiso   1.00
C616   C     0.40575   0.35017   0.59571   0.00000  Uiso   1.00
C617   C     0.54134   0.32835   0.53739   0.00000  Uiso   1.00
C618   C     0.46385   0.17105   0.96472   0.00000  Uiso   1.00
C619   C     0.57641   0.30211   0.63647   0.00000  Uiso   1.00
C620   C     0.42273   0.19938   0.86398   0.00000  Uiso   1.00
C621   C     0.47323   0.21604   0.94377   0.00000  Uiso   1.00
C622   C     0.53362   0.27771   0.60759   0.00000  Uiso   1.00
C623   C     0.46669   0.22226   0.89268   0.00000  Uiso   1.00
C624   C     0.46311   0.22643   0.60127   0.00000  Uiso   1.00
C625   C     0.53670   0.27398   0.89842   0.00000  Uiso   1.00
C626   C     0.46139   0.22722   0.55073   0.00000  Uiso   1.00
Cu627  Cu    0.50000   0.24999   0.79821   0.00000  Uiso   1.00
Cu628  Cu    0.50000   0.25000   0.70178   0.00000  Uiso   1.00
H629   H     0.65999   0.24676   0.69437   0.00000  Uiso   1.00
H630   H     0.56474   0.29388   0.88142   0.00000  Uiso   1.00
H631   H     0.43011   0.20880   0.53078   0.00000  Uiso   1.00
H632   H     0.56954   0.29242   0.96844   0.00000  Uiso   1.00
H633   H     0.56534   0.17658   0.90795   0.00000  Uiso   1.00
H634   H     0.58488   0.12325   0.93299   0.00000  Uiso   1.00
H635   H     0.63146   0.16105   0.91070   0.00000  Uiso   1.00
H636   H     0.60715   0.10241   0.85142   0.00000  Uiso   1.00
H637   H     0.58580   0.15496   0.82707   0.00000  Uiso   1.00
H638   H     0.49544   0.13343   0.85299   0.00000  Uiso   1.00
H639   H     0.52081   0.08304   0.87410   0.00000  Uiso   1.00
H640   H     0.34001   0.25349   0.80559   0.00000  Uiso   1.00
H641   H     0.40310   0.31624   0.61140   0.00000  Uiso   1.00
H642   H     0.42025   0.34818   0.56014   0.00000  Uiso   1.00
H643   H     0.36678   0.36430   0.59017   0.00000  Uiso   1.00
H644   H     0.44578   0.41260   0.61208   0.00000  Uiso   1.00
H645   H     0.48137   0.36472   0.63310   0.00000  Uiso   1.00
H646   H     0.41292   0.35008   0.69287   0.00000  Uiso   1.00
H647   H     0.38776   0.40217   0.67445   0.00000  Uiso   1.00
H648   H     0.57596   0.34635   0.55231   0.00000  Uiso   1.00
H649   H     0.48544   0.16121   0.99884   0.00000  Uiso   1.00
H650   H     0.57124   0.31884   0.66892   0.00000  Uiso   1.00
H651   H     0.51613   0.02442   0.82586   0.00000  Uiso   1.00
H652   H     0.42674   0.18314   0.83087   0.00000  Uiso   1.00
H653   H     0.43926   0.47044   0.68926   0.00000  Uiso   1.00
H654   H     0.48834   0.11287   0.67390   0.00000  Uiso   1.00
H655   H     0.56173   0.38771   0.80556   0.00000  Uiso   1.00
H656   H     0.49014   0.03343   0.67088   0.00000  Uiso   1.00
H657   H     0.56610   0.46794   0.80411   0.00000  Uiso   1.00
H658   H     0.43485   0.20659   0.61805   0.00000  Uiso   1.00
N659   N     0.50000   0.25001   0.62934   0.00000  Uiso   1.00
N660   N     0.50000   0.24999   0.87065   0.00000  Uiso   1.00
O661   O     0.50000   0.18572   0.79071   0.00000  Uiso   1.00
O662   O     0.43401   0.14386   0.94400   0.00000  Uiso   1.00
O663   O     0.61936   0.30370   0.62360   0.00000  Uiso   1.00
O664   O     0.38016   0.19869   0.87760   0.00000  Uiso   1.00
O665   O     0.50000   0.31427   0.70928   0.00000  Uiso   1.00
O666   O     0.50000   0.18573   0.70928   0.00000  Uiso   1.00
O667   O     0.50000   0.31427   0.79072   0.00000  Uiso   1.00
O668   O     0.42495   0.24999   0.78132   0.00000  Uiso   1.00
O669   O     0.57505   0.25000   0.71868   0.00000  Uiso   1.00
O670   O     0.42495   0.25000   0.69988   0.00000  Uiso   1.00
O671   O     0.57505   0.25000   0.80011   0.00000  Uiso   1.00
O672   O     0.51211   0.34650   0.50598   0.00000  Uiso   1.00
C673   C     0.83445   0.16482   0.75085   0.00000  Uiso   1.00
C674   C     0.87168   0.27367   0.94890   0.00000  Uiso   1.00
C675   C     0.83109   0.25264   0.52710   0.00000  Uiso   1.00
C676   C     0.83568   0.24807   0.97279   0.00000  Uiso   1.00
C677   C     0.73471   0.24981   0.73775   0.00000  Uiso   1.00
C678   C     0.93196   0.25027   0.76224   0.00000  Uiso   1.00
C679   C     0.67953   0.24915   0.73097   0.00000  Uiso   1.00
C680   C     0.98713   0.25106   0.76900   0.00000  Uiso   1.00
C681   C     0.84422   0.04433   0.79295   0.00000  Uiso   1.00
C682   C     0.79992   0.45227   0.71396   0.00000  Uiso   1.00
C683   C     0.84539   0.09038   0.79589   0.00000  Uiso   1.00
C684   C     0.83249   0.33475   0.74928   0.00000  Uiso   1.00
C685   C     0.79767   0.40610   0.71377   0.00000  Uiso   1.00
C686   C     0.83624   0.11612   0.75226   0.00000  Uiso   1.00
C687   C     0.83212   0.38270   0.74762   0.00000  Uiso   1.00
C688   C     0.82837   0.09449   0.70776   0.00000  Uiso   1.00
C689   C     0.86809   0.40546   0.78005   0.00000  Uiso   1.00
C690   C     0.82881   0.04884   0.70582   0.00000  Uiso   1.00
C691   C     0.87045   0.45118   0.77926   0.00000  Uiso   1.00
C692   C     0.83640   0.02344   0.74838   0.00000  Uiso   1.00
C693   C     0.83594   0.47497   0.74676   0.00000  Uiso   1.00
C694   C     0.85760   0.10936   0.84608   0.00000  Uiso   1.00
C695   C     0.86109   0.28382   0.55663   0.00000  Uiso   1.00
C696   C     0.91282   0.12891   0.85454   0.00000  Uiso   1.00
C697   C     0.92418   0.14864   0.90468   0.00000  Uiso   1.00
C698   C     0.75706   0.38317   0.67860   0.00000  Uiso   1.00
C699   C     0.77594   0.37922   0.62905   0.00000  Uiso   1.00
C700   C     0.73908   0.35017   0.59571   0.00000  Uiso   1.00
C701   C     0.87467   0.32835   0.53739   0.00000  Uiso   1.00
C702   C     0.79719   0.17105   0.96472   0.00000  Uiso   1.00
C703   C     0.90974   0.30211   0.63647   0.00000  Uiso   1.00
C704   C     0.75606   0.19938   0.86398   0.00000  Uiso   1.00
C705   C     0.80656   0.21604   0.94377   0.00000  Uiso   1.00
C706   C     0.86695   0.27771   0.60759   0.00000  Uiso   1.00
C707   C     0.80002   0.22226   0.89268   0.00000  Uiso   1.00
C708   C     0.79644   0.22643   0.60127   0.00000  Uiso   1.00
C709   C     0.87003   0.27398   0.89842   0.00000  Uiso   1.00
C710   C     0.79473   0.22722   0.55073   0.00000  Uiso   1.00
Cu711  Cu    0.83333   0.24999   0.79821   0.00000  Uiso   1.00
Cu712  Cu    0.83333   0.25000   0.70178   0.00000  Uiso   1.00
H713   H     0.99332   0.24676   0.69437   0.00000  Uiso   1.00
H714   H     0.89807   0.29388   0.88142   0.00000  Uiso   1.00
H715   H     0.76344   0.20880   0.53078   0.00000  Uiso   1.00
H716   H     0.90287   0.29242   0.96844   0.00000  Uiso   1.00
H717   H     0.89867   0.17658   0.90795   0.00000  Uiso   1.00
H718   H     0.91822   0.12325   0.93299   0.00000  Uiso   1.00
H719   H     0.96479   0.16105   0.91070   0.00000  Uiso   1.00
H720   H     0.94049   0.10241   0.85142   0.00000  Uiso   1.00
H721   H     0.91913   0.15496   0.82707   0.00000  Uiso   1.00
H722   H     0.82877   0.13343   0.85299   0.00000  Uiso   1.00
H723   H     0.85415   0.08304   0.87410   0.00000  Uiso   1.00
H724   H     0.67334   0.25349   0.80559   0.00000  Uiso   1.00
H725   H     0.73643   0.31624   0.61140   0.00000  Uiso   1.00
H726   H     0.75358   0.34818   0.56014   0.00000  Uiso   1.00
H727   H     0.70012   0.36430   0.59017   0.00000  Uiso   1.00
H728   H     0.77912   0.41260   0.61208   0.00000  Uiso   1.00
H729   H     0.81471   0.36472   0.63310   0.00000  Uiso   1.00
H730   H     0.74625   0.35008   0.69287   0.00000  Uiso   1.00
H731   H     0.72109   0.40217   0.67445   0.00000  Uiso   1.00
H732   H     0.90930   0.34635   0.55231   0.00000  Uiso   1.00
H733   H     0.81877   0.16121   0.99884   0.00000  Uiso   1.00
H734   H     0.90457   0.31884   0.66892   0.00000  Uiso   1.00
H735   H     0.84947   0.02442   0.82586   0.00000  Uiso   1.00
H736   H     0.76007   0.18314   0.83087   0.00000  Uiso   1.00
H737   H     0.77260   0.47044   0.68926   0.00000  Uiso   1.00
H738   H     0.82167   0.11287   0.67390   0.00000  Uiso   1.00
H739   H     0.89507   0.38771   0.80556   0.00000  Uiso   1.00
H740   H     0.82347   0.03343   0.67088   0.00000  Uiso   1.00
H741   H     0.89943   0.46794   0.80411   0.00000  Uiso   1.00
H742   H     0.76818   0.20659   0.61805   0.00000  Uiso   1.00
N743   N     0.83333   0.25001   0.62934   0.00000  Uiso   1.00
N744   N     0.83333   0.24999   0.87065   0.00000  Uiso   1.00
O745   O     0.83334   0.18572   0.79071   0.00000  Uiso   1.00
O746   O     0.76734   0.14386   0.94400   0.00000  Uiso   1.00
O747   O     0.95269   0.30370   0.62360   0.00000  Uiso   1.00
O748   O     0.71350   0.19869   0.87760   0.00000  Uiso   1.00
O749   O     0.83333   0.31427   0.70928   0.00000  Uiso   1.00
O750   O     0.83334   0.18573   0.70928   0.00000  Uiso   1.00
O751   O     0.83333   0.31427   0.79072   0.00000  Uiso   1.00
O752   O     0.75828   0.24999   0.78132   0.00000  Uiso   1.00
O753   O     0.90839   0.25000   0.71868   0.00000  Uiso   1.00
O754   O     0.75828   0.25000   0.69988   0.00000  Uiso   1.00
O755   O     0.90839   0.25000   0.80011   0.00000  Uiso   1.00
O756   O     0.84545   0.34650   0.50598   0.00000  Uiso   1.00
C757   C     0.16778   0.66482   0.75085   0.00000  Uiso   1.00
C758   C     0.20502   0.77367   0.94890   0.00000  Uiso   1.00
C759   C     0.16442   0.75264   0.52710   0.00000  Uiso   1.00
C760   C     0.16901   0.74807   0.97279   0.00000  Uiso   1.00
C761   C     0.06804   0.74981   0.73775   0.00000  Uiso   1.00
C762   C     0.26529   0.75027   0.76224   0.00000  Uiso   1.00
C763   C     0.01286   0.74915   0.73097   0.00000  Uiso   1.00
C764   C     0.32047   0.75106   0.76900   0.00000  Uiso   1.00
C765   C     0.17755   0.54433   0.79295   0.00000  Uiso   1.00
C766   C     0.13325   0.95227   0.71396   0.00000  Uiso   1.00
C767   C     0.17872   0.59038   0.79589   0.00000  Uiso   1.00
C768   C     0.16583   0.83475   0.74928   0.00000  Uiso   1.00
C769   C     0.13100   0.90610   0.71377   0.00000  Uiso   1.00
C770   C     0.16958   0.61612   0.75226   0.00000  Uiso   1.00
C771   C     0.16546   0.88270   0.74762   0.00000  Uiso   1.00
C772   C     0.16170   0.59449   0.70776   0.00000  Uiso   1.00
C773   C     0.20143   0.90546   0.78005   0.00000  Uiso   1.00
C774   C     0.16215   0.54884   0.70582   0.00000  Uiso   1.00
C775   C     0.20379   0.95118   0.77926   0.00000  Uiso   1.00
C776   C     0.16973   0.52344   0.74838   0.00000  Uiso   1.00
C777   C     0.16927   0.97497   0.74676   0.00000  Uiso   1.00
C778   C     0.19094   0.60936   0.84608   0.00000  Uiso   1.00
C779   C     0.19443   0.78382   0.55663   0.00000  Uiso   1.00
C780   C     0.24616   0.62891   0.85454   0.00000  Uiso   1.00
C781   C     0.25751   0.64864   0.90468   0.00000  Uiso   1.00
C782   C     0.09039   0.88317   0.67860   0.00000  Uiso   1.00
C783   C     0.10927   0.87922   0.62905   0.00000  Uiso   1.00
C784   C     0.07241   0.85017   0.59571   0.00000  Uiso   1.00
C785   C     0.20801   0.82835   0.53739   0.00000  Uiso   1.00
C786   C     0.13052   0.67105   0.96472   0.00000  Uiso   1.00
C787   C     0.24308   0.80211   0.63647   0.00000  Uiso   1.00
C788   C     0.08940   0.69938   0.86398   0.00000  Uiso   1.00
C789   C     0.13989   0.71604   0.94377   0.00000  Uiso   1.00
C790   C     0.20028   0.77771   0.60759   0.00000  Uiso   1.00
C791   C     0.13336   0.72226   0.89268   0.00000  Uiso   1.00
C792   C     0.12978   0.72643   0.60127   0.00000  Uiso   1.00
C793   C     0.20336   0.77398   0.89842   0.00000  Uiso   1.00
C794   C     0.12806   0.72722   0.55073   0.00000  Uiso   1.00
Cu795  Cu    0.16667   0.74999   0.79821   0.00000  Uiso   1.00
Cu796  Cu    0.16667   0.75000   0.70178   0.00000  Uiso   1.00
H797   H     0.32665   0.74676   0.69437   0.00000  Uiso   1.00
H798   H     0.23140   0.79388   0.88142   0.00000  Uiso   1.00
H799   H     0.09677   0.70880   0.53078   0.00000  Uiso   1.00
H800   H     0.23620   0.79242   0.96844   0.00000  Uiso   1.00
H801   H     0.23201   0.67658   0.90795   0.00000  Uiso   1.00
H802   H     0.25155   0.62325   0.93299   0.00000  Uiso   1.00
H803   H     0.29812   0.66105   0.91070   0.00000  Uiso   1.00
H804   H     0.27382   0.60241   0.85142   0.00000  Uiso   1.00
H805   H     0.25247   0.65496   0.82707   0.00000  Uiso   1.00
H806   H     0.16210   0.63343   0.85299   0.00000  Uiso   1.00
H807   H     0.18748   0.58304   0.87410   0.00000  Uiso   1.00
H808   H     0.00668   0.75349   0.80559   0.00000  Uiso   1.00
H809   H     0.06977   0.81624   0.61140   0.00000  Uiso   1.00
H810   H     0.08691   0.84818   0.56014   0.00000  Uiso   1.00
H811   H     0.03345   0.86430   0.59017   0.00000  Uiso   1.00
H812   H     0.11245   0.91260   0.61208   0.00000  Uiso   1.00
H813   H     0.14804   0.86472   0.63310   0.00000  Uiso   1.00
H814   H     0.07958   0.85008   0.69287   0.00000  Uiso   1.00
H815   H     0.05442   0.90217   0.67445   0.00000  Uiso   1.00
H816   H     0.24263   0.84635   0.55231   0.00000  Uiso   1.00
H817   H     0.15210   0.66121   0.99884   0.00000  Uiso   1.00
H818   H     0.23791   0.81884   0.66892   0.00000  Uiso   1.00
H819   H     0.18280   0.52442   0.82586   0.00000  Uiso   1.00
H820   H     0.09341   0.68314   0.83087   0.00000  Uiso   1.00
H821   H     0.10593   0.97044   0.68926   0.00000  Uiso   1.00
H822   H     0.15501   0.61287   0.67390   0.00000  Uiso   1.00
H823   H     0.22840   0.88771   0.80556   0.00000  Uiso   1.00
H824   H     0.15680   0.53343   0.67088   0.00000  Uiso   1.00
H825   H     0.23276   0.96794   0.80411   0.00000  Uiso   1.00
H826   H     0.10151   0.70659   0.61805   0.00000  Uiso   1.00
N827   N     0.16667   0.75001   0.62934   0.00000  Uiso   1.00
N828   N     0.16667   0.74999   0.87065   0.00000  Uiso   1.00
O829   O     0.16667   0.68572   0.79071   0.00000  Uiso   1.00
O830   O     0.10068   0.64386   0.94400   0.00000  Uiso   1.00
O831   O     0.28603   0.80370   0.62360   0.00000  Uiso   1.00
O832   O     0.04683   0.69869   0.87760   0.00000  Uiso   1.00
O833   O     0.16666   0.81427   0.70928   0.00000  Uiso   1.00
O834   O     0.16667   0.68573   0.70928   0.00000  Uiso   1.00
O835   O     0.16666   0.81427   0.79072   0.00000  Uiso   1.00
O836   O     0.09161   0.74999   0.78132   0.00000  Uiso   1.00
O837   O     0.24172   0.75000   0.71868   0.00000  Uiso   1.00
O838   O     0.09161   0.75000   0.69988   0.00000  Uiso   1.00
O839   O     0.24172   0.75000   0.80011   0.00000  Uiso   1.00
O840   O     0.17878   0.84650   0.50598   0.00000  Uiso   1.00
C841   C     0.50112   0.66482   0.75085   0.00000  Uiso   1.00
C842   C     0.53835   0.77367   0.94890   0.00000  Uiso   1.00
C843   C     0.49775   0.75264   0.52710   0.00000  Uiso   1.00
C844   C     0.50235   0.74807   0.97279   0.00000  Uiso   1.00
C845   C     0.40138   0.74981   0.73775   0.00000  Uiso   1.00
C846   C     0.59862   0.75027   0.76224   0.00000  Uiso   1.00
C847   C     0.34620   0.74915   0.73097   0.00000  Uiso   1.00
C848   C     0.65380   0.75106   0.76900   0.00000  Uiso   1.00
C849   C     0.51088   0.54433   0.79295   0.00000  Uiso   1.00
C850   C     0.46658   0.95227   0.71396   0.00000  Uiso   1.00
C851   C     0.51205   0.59038   0.79589   0.00000  Uiso   1.00
C852   C     0.49916   0.83475   0.74928   0.00000  Uiso   1.00
C853   C     0.46433   0.90610   0.71377   0.00000  Uiso   1.00
C854   C     0.50291   0.61612   0.75226   0.00000  Uiso   1.00
C855   C     0.49879   0.88270   0.74762   0.00000  Uiso   1.00
C856   C     0.49503   0.59449   0.70776   0.00000  Uiso   1.00
C857   C     0.53476   0.90546   0.78005   0.00000  Uiso   1.00
C858   C     0.49548   0.54884   0.70582   0.00000  Uiso   1.00
C859   C     0.53712   0.95118   0.77926   0.00000  Uiso   1.00
C860   C     0.50306   0.52344   0.74838   0.00000  Uiso   1.00
C861   C     0.50260   0.97497   0.74676   0.00000  Uiso   1.00
C862   C     0.52427   0.60936   0.84608   0.00000  Uiso   1.00
C863   C     0.52776   0.78382   0.55663   0.00000  Uiso   1.00
C864   C     0.57949   0.62891   0.85454   0.00000  Uiso   1.00
C865   C     0.59085   0.64864   0.90468   0.00000  Uiso   1.00
C866   C     0.42373   0.88317   0.67860   0.00000  Uiso   1.00
C867   C     0.44261   0.87922   0.62905   0.00000  Uiso   1.00
C868   C     0.40575   0.85017   0.59571   0.00000  Uiso   1.00
C869   C     0.54134   0.82835   0.53739   0.00000  Uiso   1.00
C870   C     0.46385   0.67105   0.96472   0.00000  Uiso   1.00
C871   C     0.57641   0.80211   0.63647   0.00000  Uiso   1.00
C872   C     0.42273   0.69938   0.86398   0.00000  Uiso   1.00
C873   C     0.47323   0.71604   0.94377   0.00000  Uiso   1.00
C874   C     0.53362   0.77771   0.60759   0.00000  Uiso   1.00
C875   C     0.46669   0.72226   0.89268   0.00000  Uiso   1.00
C876   C     0.46311   0.72643   0.60127   0.00000  Uiso   1.00
C877   C     0.53670   0.77398   0.89842   0.00000  Uiso   1.00
C878   C     0.46139   0.72722   0.55073   0.00000  Uiso   1.00
Cu879  Cu    0.50000   0.74999   0.79821   0.00000  Uiso   1.00
Cu880  Cu    0.50000   0.75000   0.70178   0.00000  Uiso   1.00
H881   H     0.65999   0.74676   0.69437   0.00000  Uiso   1.00
H882   H     0.56474   0.79388   0.88142   0.00000  Uiso   1.00
H883   H     0.43011   0.70880   0.53078   0.00000  Uiso   1.00
H884   H     0.56954   0.79242   0.96844   0.00000  Uiso   1.00
H885   H     0.56534   0.67658   0.90795   0.00000  Uiso   1.00
H886   H     0.58488   0.62325   0.93299   0.00000  Uiso   1.00
H887   H     0.63146   0.66105   0.91070   0.00000  Uiso   1.00
H888   H     0.60715   0.60241   0.85142   0.00000  Uiso   1.00
H889   H     0.58580   0.65496   0.82707   0.00000  Uiso   1.00
H890   H     0.49544   0.63343   0.85299   0.00000  Uiso   1.00
H891   H     0.52081   0.58304   0.87410   0.00000  Uiso   1.00
H892   H     0.34001   0.75349   0.80559   0.00000  Uiso   1.00
H893   H     0.40310   0.81624   0.61140   0.00000  Uiso   1.00
H894   H     0.42025   0.84818   0.56014   0.00000  Uiso   1.00
H895   H     0.36678   0.86430   0.59017   0.00000  Uiso   1.00
H896   H     0.44578   0.91260   0.61208   0.00000  Uiso   1.00
H897   H     0.48137   0.86472   0.63310   0.00000  Uiso   1.00
H898   H     0.41292   0.85008   0.69287   0.00000  Uiso   1.00
H899   H     0.38776   0.90217   0.67445   0.00000  Uiso   1.00
H900   H     0.57596   0.84635   0.55231   0.00000  Uiso   1.00
H901   H     0.48544   0.66121   0.99884   0.00000  Uiso   1.00
H902   H     0.57124   0.81884   0.66892   0.00000  Uiso   1.00
H903   H     0.51613   0.52442   0.82586   0.00000  Uiso   1.00
H904   H     0.42674   0.68314   0.83087   0.00000  Uiso   1.00
H905   H     0.43926   0.97044   0.68926   0.00000  Uiso   1.00
H906   H     0.48834   0.61287   0.67390   0.00000  Uiso   1.00
H907   H     0.56173   0.88771   0.80556   0.00000  Uiso   1.00
H908   H     0.49014   0.53343   0.67088   0.00000  Uiso   1.00
H909   H     0.56610   0.96794   0.80411   0.00000  Uiso   1.00
H910   H     0.43485   0.70659   0.61805   0.00000  Uiso   1.00
N911   N     0.50000   0.75001   0.62934   0.00000  Uiso   1.00
N912   N     0.50000   0.74999   0.87065   0.00000  Uiso   1.00
O913   O     0.50000   0.68572   0.79071   0.00000  Uiso   1.00
O914   O     0.43401   0.64386   0.94400   0.00000  Uiso   1.00
O915   O     0.61936   0.80370   0.62360   0.00000  Uiso   1.00
O916   O     0.38016   0.69869   0.87760   0.00000  Uiso   1.00
O917   O     0.50000   0.81427   0.70928   0.00000  Uiso   1.00
O918   O     0.50000   0.68573   0.70928   0.00000  Uiso   1.00
O919   O     0.50000   0.81427   0.79072   0.00000  Uiso   1.00
O920   O     0.42495   0.74999   0.78132   0.00000  Uiso   1.00
O921   O     0.57505   0.75000   0.71868   0.00000  Uiso   1.00
O922   O     0.42495   0.75000   0.69988   0.00000  Uiso   1.00
O923   O     0.57505   0.75000   0.80011   0.00000  Uiso   1.00
O924   O     0.51211   0.84650   0.50598   0.00000  Uiso   1.00
C925   C     0.83445   0.66482   0.75085   0.00000  Uiso   1.00
C926   C     0.87168   0.77367   0.94890   0.00000  Uiso   1.00
C927   C     0.83109   0.75264   0.52710   0.00000  Uiso   1.00
C928   C     0.83568   0.74807   0.97279   0.00000  Uiso   1.00
C929   C     0.73471   0.74981   0.73775   0.00000  Uiso   1.00
C930   C     0.93196   0.75027   0.76224   0.00000  Uiso   1.00
C931   C     0.67953   0.74915   0.73097   0.00000  Uiso   1.00
C932   C     0.98713   0.75106   0.76900   0.00000  Uiso   1.00
C933   C     0.84422   0.54433   0.79295   0.00000  Uiso   1.00
C934   C     0.79992   0.95227   0.71396   0.00000  Uiso   1.00
C935   C     0.84539   0.59038   0.79589   0.00000  Uiso   1.00
C936   C     0.83249   0.83475   0.74928   0.00000  Uiso   1.00
C937   C     0.79767   0.90610   0.71377   0.00000  Uiso   1.00
C938   C     0.83624   0.61612   0.75226   0.00000  Uiso   1.00
C939   C     0.83212   0.88270   0.74762   0.00000  Uiso   1.00
C940   C     0.82837   0.59449   0.70776   0.00000  Uiso   1.00
C941   C     0.86809   0.90546   0.78005   0.00000  Uiso   1.00
C942   C     0.82881   0.54884   0.70582   0.00000  Uiso   1.00
C943   C     0.87045   0.95118   0.77926   0.00000  Uiso   1.00
C944   C     0.83640   0.52344   0.74838   0.00000  Uiso   1.00
C945   C     0.83594   0.97497   0.74676   0.00000  Uiso   1.00
C946   C     0.85760   0.60936   0.84608   0.00000  Uiso   1.00
C947   C     0.86109   0.78382   0.55663   0.00000  Uiso   1.00
C948   C     0.91282   0.62891   0.85454   0.00000  Uiso   1.00
C949   C     0.92418   0.64864   0.90468   0.00000  Uiso   1.00
C950   C     0.75706   0.88317   0.67860   0.00000  Uiso   1.00
C951   C     0.77594   0.87922   0.62905   0.00000  Uiso   1.00
C952   C     0.73908   0.85017   0.59571   0.00000  Uiso   1.00
C953   C     0.87467   0.82835   0.53739   0.00000  Uiso   1.00
C954   C     0.79719   0.67105   0.96472   0.00000  Uiso   1.00
C955   C     0.90974   0.80211   0.63647   0.00000  Uiso   1.00
C956   C     0.75606   0.69938   0.86398   0.00000  Uiso   1.00
C957   C     0.80656   0.71604   0.94377   0.00000  Uiso   1.00
C958   C     0.86695   0.77771   0.60759   0.00000  Uiso   1.00
C959   C     0.80002   0.72226   0.89268   0.00000  Uiso   1.00
C960   C     0.79644   0.72643   0.60127   0.00000  Uiso   1.00
C961   C     0.87003   0.77398   0.89842   0.00000  Uiso   1.00
C962   C     0.79473   0.72722   0.55073   0.00000  Uiso   1.00
Cu963  Cu    0.83333   0.74999   0.79821   0.00000  Uiso   1.00
Cu964  Cu    0.83333   0.75000   0.70178   0.00000  Uiso   1.00
H965   H     0.99332   0.74676   0.69437   0.00000  Uiso   1.00
H966   H     0.89807   0.79388   0.88142   0.00000  Uiso   1.00
H967   H     0.76344   0.70880   0.53078   0.00000  Uiso   1.00
H968   H     0.90287   0.79242   0.96844   0.00000  Uiso   1.00
H969   H     0.89867   0.67658   0.90795   0.00000  Uiso   1.00
H970   H     0.91822   0.62325   0.93299   0.00000  Uiso   1.00
H971   H     0.96479   0.66105   0.91070   0.00000  Uiso   1.00
H972   H     0.94049   0.60241   0.85142   0.00000  Uiso   1.00
H973   H     0.91913   0.65496   0.82707   0.00000  Uiso   1.00
H974   H     0.82877   0.63343   0.85299   0.00000  Uiso   1.00
H975   H     0.85415   0.58304   0.87410   0.00000  Uiso   1.00
H976   H     0.67334   0.75349   0.80559   0.00000  Uiso   1.00
H977   H     0.73643   0.81624   0.61140   0.00000  Uiso   1.00
H978   H     0.75358   0.84818   0.56014   0.00000  Uiso   1.00
H979   H     0.70012   0.86430   0.59017   0.00000  Uiso   1.00
H980   H     0.77912   0.91260   0.61208   0.00000  Uiso   1.00
H981   H     0.81471   0.86472   0.63310   0.00000  Uiso   1.00
H982   H     0.74625   0.85008   0.69287   0.00000  Uiso   1.00
H983   H     0.72109   0.90217   0.67445   0.00000  Uiso   1.00
H984   H     0.90930   0.84635   0.55231   0.00000  Uiso   1.00
H985   H     0.81877   0.66121   0.99884   0.00000  Uiso   1.00
H986   H     0.90457   0.81884   0.66892   0.00000  Uiso   1.00
H987   H     0.84947   0.52442   0.82586   0.00000  Uiso   1.00
H988   H     0.76007   0.68314   0.83087   0.00000  Uiso   1.00
H989   H     0.77260   0.97044   0.68926   0.00000  Uiso   1.00
H990   H     0.82167   0.61287   0.67390   0.00000  Uiso   1.00
H991   H     0.89507   0.88771   0.80556   0.00000  Uiso   1.00
H992   H     0.82347   0.53343   0.67088   0.00000  Uiso   1.00
H993   H     0.89943   0.96794   0.80411   0.00000  Uiso   1.00
H994   H     0.76818   0.70659   0.61805   0.00000  Uiso   1.00
N995   N     0.83333   0.75001   0.62934   0.00000  Uiso   1.00
N996   N     0.83333   0.74999   0.87065   0.00000  Uiso   1.00
O997   O     0.83334   0.68572   0.79071   0.00000  Uiso   1.00
O998   O     0.76734   0.64386   0.94400   0.00000  Uiso   1.00
O999   O     0.95269   0.80370   0.62360   0.00000  Uiso   1.00
O1000  O     0.71350   0.69869   0.87760   0.00000  Uiso   1.00
O1001  O     0.83333   0.81427   0.70928   0.00000  Uiso   1.00
O1002  O     0.83334   0.68573   0.70928   0.00000  Uiso   1.00
O1003  O     0.83333   0.81427   0.79072   0.00000  Uiso   1.00
O1004  O     0.75828   0.74999   0.78132   0.00000  Uiso   1.00
O1005  O     0.90839   0.75000   0.71868   0.00000  Uiso   1.00
O1006  O     0.75828   0.75000   0.69988   0.00000  Uiso   1.00
O1007  O     0.90839   0.75000   0.80011   0.00000  Uiso   1.00
O1008  O     0.84545   0.84650   0.50598   0.00000  Uiso   1.00
loop_
_geom_bond_atom_site_label_1
_geom_bond_atom_site_label_2
_geom_bond_distance
_geom_bond_site_symmetry_2
_ccdc_geom_bond_type
C1     O78     1.306   .     A
C1     O73     1.298   .     A
C1     C14     1.478   .     S
C2     H44     1.076   .     S
C2     C4      1.420   .     A
C2     C37     1.404   .     A
C3     C23     1.419   .     A
C3     C38     1.420   .     A
C3     C508    1.546   1_554 S
C4     C33     1.419   .     A
C4     C507    1.546   .     S
C5     C7      1.432   .     S
C5     O80     1.293   .     A
C5     O82     1.289   .     A
C6     O81     1.293   .     A
C6     C8      1.432   .     S
C6     O83     1.289   .     A
C7     C176    1.330   1_455 S
C7     H209    1.086   1_455 S
C8     C91     1.330   .     S
C8     H136    1.086   .     S
C9     C11     1.400   .     A
C9     C20     1.399   .     A
C9     H63     1.083   .     S
C10    C21     1.403   .     A
C10    H65     1.084   .     S
C10    C13     1.399   .     A
C11    C14     1.429   .     A
C11    C22     1.520   .     S
C12    O79     1.297   .     A
C12    C15     1.454   .     S
C12    O77     1.294   .     A
C13    C15     1.416   .     A
C13    C26     1.516   .     S
C14    C16     1.408   .     A
C15    C17     1.398   .     A
C16    H66     1.083   .     S
C16    C18     1.387   .     A
C17    C19     1.385   .     A
C17    H67     1.084   .     S
C18    H68     1.083   .     S
C18    C20     1.396   .     A
C19    C21     1.402   .     A
C19    H69     1.083   .     S
C20    C273    1.471   1_545 S
C21    C272    1.471   .     S
C22    H50     1.105   .     S
C22    C24     1.535   .     S
C22    H51     1.113   .     S
C23    C29     1.489   .     S
C23    C34     1.420   .     A
C24    H48     1.112   .     S
C24    C25     1.526   .     S
C24    H49     1.110   .     S
C25    H47     1.109   .     S
C25    H45     1.109   .     S
C25    H46     1.111   .     S
C26    C27     1.535   .     S
C26    H59     1.112   .     S
C26    H58     1.111   .     S
C27    H57     1.111   .     S
C27    H56     1.112   .     S
C27    C28     1.526   .     S
C28    H55     1.111   .     S
C28    H54     1.110   .     S
C28    H53     1.111   .     S
C29    H60     1.084   .     S
C29    O84     1.222   .     D
C30    O74     1.220   .     D
C30    H61     1.085   .     S
C30    C33     1.495   .     S
C31    H62     1.075   .     S
C31    O75     1.221   .     D
C31    C34     1.482   .     S
C32    C35     1.479   .     S
C32    H64     1.076   .     S
C32    O76     1.221   .     D
C33    C35     1.423   .     A
C34    N71     1.380   .     A
C35    N72     1.379   .     A
C36    N71     1.359   .     A
C36    H70     1.082   .     S
C36    C38     1.406   .     A
C37    H42     1.082   .     S
C37    N72     1.358   .     A
C38    H43     1.078   .     S
Cu39   N72     2.022   .     S
Cu39   Cu40    2.692   .     S
Cu39   O79     1.954   .     S
Cu39   O80     1.961   .     S
Cu39   O83     1.958   .     S
Cu39   O73     1.965   .     S
Cu40   N71     2.022   .     S
Cu40   O82     1.958   .     S
Cu40   O78     1.954   .     S
Cu40   O81     1.961   .     S
Cu40   O77     1.965   .     S
H41    C91     1.086   .     S
H52    C176    1.086   1_455 S
C85    O162    1.306   .     A
C85    O157    1.298   .     A
C85    C98     1.478   .     S
C86    H128    1.076   .     S
C86    C88     1.420   .     A
C86    C121    1.404   .     A
C87    C107    1.419   .     A
C87    C122    1.420   .     A
C87    C592    1.546   1_554 S
C88    C117    1.419   .     A
C88    C591    1.546   .     S
C89    C91     1.432   .     S
C89    O164    1.293   .     A
C89    O166    1.289   .     A
C90    O165    1.293   .     A
C90    C92     1.432   .     S
C90    O167    1.289   .     A
C92    C175    1.330   .     S
C92    H220    1.086   .     S
C93    C95     1.400   .     A
C93    C104    1.399   .     A
C93    H147    1.083   .     S
C94    C105    1.403   .     A
C94    H149    1.084   .     S
C94    C97     1.399   .     A
C95    C98     1.429   .     A
C95    C106    1.520   .     S
C96    O163    1.297   .     A
C96    C99     1.454   .     S
C96    O161    1.294   .     A
C97    C99     1.416   .     A
C97    C110    1.516   .     S
C98    C100    1.408   .     A
C99    C101    1.398   .     A
C100   H150    1.083   .     S
C100   C102    1.387   .     A
C101   C103    1.385   .     A
C101   H151    1.084   .     S
C102   H152    1.083   .     S
C102   C104    1.396   .     A
C103   C105    1.402   .     A
C103   H153    1.083   .     S
C104   C357    1.471   1_545 S
C105   C356    1.471   .     S
C106   H134    1.105   .     S
C106   C108    1.535   .     S
C106   H135    1.113   .     S
C107   C113    1.489   .     S
C107   C118    1.420   .     A
C108   H132    1.112   .     S
C108   C109    1.526   .     S
C108   H133    1.110   .     S
C109   H131    1.109   .     S
C109   H129    1.109   .     S
C109   H130    1.111   .     S
C110   C111    1.535   .     S
C110   H143    1.112   .     S
C110   H142    1.111   .     S
C111   H141    1.111   .     S
C111   H140    1.112   .     S
C111   C112    1.526   .     S
C112   H139    1.111   .     S
C112   H138    1.110   .     S
C112   H137    1.111   .     S
C113   H144    1.084   .     S
C113   O168    1.222   .     D
C114   O158    1.220   .     D
C114   H145    1.085   .     S
C114   C117    1.495   .     S
C115   H146    1.075   .     S
C115   O159    1.221   .     D
C115   C118    1.482   .     S
C116   C119    1.479   .     S
C116   H148    1.076   .     S
C116   O160    1.221   .     D
C117   C119    1.423   .     A
C118   N155    1.380   .     A
C119   N156    1.379   .     A
C120   N155    1.359   .     A
C120   H154    1.082   .     S
C120   C122    1.406   .     A
C121   H126    1.082   .     S
C121   N156    1.358   .     A
C122   H127    1.078   .     S
Cu123  N156    2.022   .     S
Cu123  Cu124   2.692   .     S
Cu123  O163    1.954   .     S
Cu123  O164    1.961   .     S
Cu123  O167    1.958   .     S
Cu123  O157    1.965   .     S
Cu124  N155    2.022   .     S
Cu124  O166    1.958   .     S
Cu124  O162    1.954   .     S
Cu124  O165    1.961   .     S
Cu124  O161    1.965   .     S
H125   C175    1.086   .     S
C169   O246    1.306   .     A
C169   O241    1.298   .     A
C169   C182    1.478   .     S
C170   H212    1.076   .     S
C170   C172    1.420   .     A
C170   C205    1.404   .     A
C171   C191    1.419   .     A
C171   C206    1.420   .     A
C171   C676    1.546   1_554 S
C172   C201    1.419   .     A
C172   C675    1.546   .     S
C173   C175    1.432   .     S
C173   O248    1.293   .     A
C173   O250    1.289   .     A
C174   O249    1.293   .     A
C174   C176    1.432   .     S
C174   O251    1.289   .     A
C176   C7      1.330   1_655 S
C176   H52     1.086   1_655 S
C177   C179    1.400   .     A
C177   C188    1.399   .     A
C177   H231    1.083   .     S
C178   C189    1.403   .     A
C178   H233    1.084   .     S
C178   C181    1.399   .     A
C179   C182    1.429   .     A
C179   C190    1.520   .     S
C180   O247    1.297   .     A
C180   C183    1.454   .     S
C180   O245    1.294   .     A
C181   C183    1.416   .     A
C181   C194    1.516   .     S
C182   C184    1.408   .     A
C183   C185    1.398   .     A
C184   H234    1.083   .     S
C184   C186    1.387   .     A
C185   C187    1.385   .     A
C185   H235    1.084   .     S
C186   H236    1.083   .     S
C186   C188    1.396   .     A
C187   C189    1.402   .     A
C187   H237    1.083   .     S
C188   C441    1.471   1_545 S
C189   C440    1.471   .     S
C190   H218    1.105   .     S
C190   C192    1.535   .     S
C190   H219    1.113   .     S
C191   C197    1.489   .     S
C191   C202    1.420   .     A
C192   H216    1.112   .     S
C192   C193    1.526   .     S
C192   H217    1.110   .     S
C193   H215    1.109   .     S
C193   H213    1.109   .     S
C193   H214    1.111   .     S
C194   C195    1.535   .     S
C194   H227    1.112   .     S
C194   H226    1.111   .     S
C195   H225    1.111   .     S
C195   H224    1.112   .     S
C195   C196    1.526   .     S
C196   H223    1.111   .     S
C196   H222    1.110   .     S
C196   H221    1.111   .     S
C197   H228    1.084   .     S
C197   O252    1.222   .     D
C198   O242    1.220   .     D
C198   H229    1.085   .     S
C198   C201    1.495   .     S
C199   H230    1.075   .     S
C199   O243    1.221   .     D
C199   C202    1.482   .     S
C200   C203    1.479   .     S
C200   H232    1.076   .     S
C200   O244    1.221   .     D
C201   C203    1.423   .     A
C202   N239    1.380   .     A
C203   N240    1.379   .     A
C204   N239    1.359   .     A
C204   H238    1.082   .     S
C204   C206    1.406   .     A
C205   H210    1.082   .     S
C205   N240    1.358   .     A
C206   H211    1.078   .     S
Cu207  N240    2.022   .     S
Cu207  Cu208   2.692   .     S
Cu207  O247    1.954   .     S
Cu207  O248    1.961   .     S
Cu207  O251    1.958   .     S
Cu207  O241    1.965   .     S
Cu208  N239    2.022   .     S
Cu208  O250    1.958   .     S
Cu208  O246    1.954   .     S
Cu208  O249    1.961   .     S
Cu208  O245    1.965   .     S
H209   C7      1.086   1_655 S
C253   O330    1.306   .     A
C253   O325    1.298   .     A
C253   C266    1.478   .     S
C254   H296    1.076   .     S
C254   C256    1.420   .     A
C254   C289    1.404   .     A
C255   C275    1.419   .     A
C255   C290    1.420   .     A
C255   C760    1.546   1_554 S
C256   C285    1.419   .     A
C256   C759    1.546   .     S
C257   C259    1.432   .     S
C257   O332    1.293   .     A
C257   O334    1.289   .     A
C258   O333    1.293   .     A
C258   C260    1.432   .     S
C258   O335    1.289   .     A
C259   C428    1.330   1_455 S
C259   H461    1.086   1_455 S
C260   C343    1.330   .     S
C260   H388    1.086   .     S
C261   C263    1.400   .     A
C261   C272    1.399   .     A
C261   H315    1.083   .     S
C262   C273    1.403   .     A
C262   H317    1.084   .     S
C262   C265    1.399   .     A
C263   C266    1.429   .     A
C263   C274    1.520   .     S
C264   O331    1.297   .     A
C264   C267    1.454   .     S
C264   O329    1.294   .     A
C265   C267    1.416   .     A
C265   C278    1.516   .     S
C266   C268    1.408   .     A
C267   C269    1.398   .     A
C268   H318    1.083   .     S
C268   C270    1.387   .     A
C269   C271    1.385   .     A
C269   H319    1.084   .     S
C270   H320    1.083   .     S
C270   C272    1.396   .     A
C271   C273    1.402   .     A
C271   H321    1.083   .     S
C273   C20     1.471   1_565 S
C274   H302    1.105   .     S
C274   C276    1.535   .     S
C274   H303    1.113   .     S
C275   C281    1.489   .     S
C275   C286    1.420   .     A
C276   H300    1.112   .     S
C276   C277    1.526   .     S
C276   H301    1.110   .     S
C277   H299    1.109   .     S
C277   H297    1.109   .     S
C277   H298    1.111   .     S
C278   C279    1.535   .     S
C278   H311    1.112   .     S
C278   H310    1.111   .     S
C279   H309    1.111   .     S
C279   H308    1.112   .     S
C279   C280    1.526   .     S
C280   H307    1.111   .     S
C280   H306    1.110   .     S
C280   H305    1.111   .     S
C281   H312    1.084   .     S
C281   O336    1.222   .     D
C282   O326    1.220   .     D
C282   H313    1.085   .     S
C282   C285    1.495   .     S
C283   H314    1.075   .     S
C283   O327    1.221   .     D
C283   C286    1.482   .     S
C284   C287    1.479   .     S
C284   H316    1.076   .     S
C284   O328    1.221   .     D
C285   C287    1.423   .     A
C286   N323    1.380   .     A
C287   N324    1.379   .     A
C288   N323    1.359   .     A
C288   H322    1.082   .     S
C288   C290    1.406   .     A
C289   H294    1.082   .     S
C289   N324    1.358   .     A
C290   H295    1.078   .     S
Cu291  N324    2.022   .     S
Cu291  Cu292   2.692   .     S
Cu291  O331    1.954   .     S
Cu291  O332    1.961   .     S
Cu291  O335    1.958   .     S
Cu291  O325    1.965   .     S
Cu292  N323    2.022   .     S
Cu292  O334    1.958   .     S
Cu292  O330    1.954   .     S
Cu292  O333    1.961   .     S
Cu292  O329    1.965   .     S
H293   C343    1.086   .     S
H304   C428    1.086   1_455 S
C337   O414    1.306   .     A
C337   O409    1.298   .     A
C337   C350    1.478   .     S
C338   H380    1.076   .     S
C338   C340    1.420   .     A
C338   C373    1.404   .     A
C339   C359    1.419   .     A
C339   C374    1.420   .     A
C339   C844    1.546   1_554 S
C340   C369    1.419   .     A
C340   C843    1.546   .     S
C341   C343    1.432   .     S
C341   O416    1.293   .     A
C341   O418    1.289   .     A
C342   O417    1.293   .     A
C342   C344    1.432   .     S
C342   O419    1.289   .     A
C344   C427    1.330   .     S
C344   H472    1.086   .     S
C345   C347    1.400   .     A
C345   C356    1.399   .     A
C345   H399    1.083   .     S
C346   C357    1.403   .     A
C346   H401    1.084   .     S
C346   C349    1.399   .     A
C347   C350    1.429   .     A
C347   C358    1.520   .     S
C348   O415    1.297   .     A
C348   C351    1.454   .     S
C348   O413    1.294   .     A
C349   C351    1.416   .     A
C349   C362    1.516   .     S
C350   C352    1.408   .     A
C351   C353    1.398   .     A
C352   H402    1.083   .     S
C352   C354    1.387   .     A
C353   C355    1.385   .     A
C353   H403    1.084   .     S
C354   H404    1.083   .     S
C354   C356    1.396   .     A
C355   C357    1.402   .     A
C355   H405    1.083   .     S
C357   C104    1.471   1_565 S
C358   H386    1.105   .     S
C358   C360    1.535   .     S
C358   H387    1.113   .     S
C359   C365    1.489   .     S
C359   C370    1.420   .     A
C360   H384    1.112   .     S
C360   C361    1.526   .     S
C360   H385    1.110   .     S
C361   H383    1.109   .     S
C361   H381    1.109   .     S
C361   H382    1.111   .     S
C362   C363    1.535   .     S
C362   H395    1.112   .     S
C362   H394    1.111   .     S
C363   H393    1.111   .     S
C363   H392    1.112   .     S
C363   C364    1.526   .     S
C364   H391    1.111   .     S
C364   H390    1.110   .     S
C364   H389    1.111   .     S
C365   H396    1.084   .     S
C365   O420    1.222   .     D
C366   O410    1.220   .     D
C366   H397    1.085   .     S
C366   C369    1.495   .     S
C367   H398    1.075   .     S
C367   O411    1.221   .     D
C367   C370    1.482   .     S
C368   C371    1.479   .     S
C368   H400    1.076   .     S
C368   O412    1.221   .     D
C369   C371    1.423   .     A
C370   N407    1.380   .     A
C371   N408    1.379   .     A
C372   N407    1.359   .     A
C372   H406    1.082   .     S
C372   C374    1.406   .     A
C373   H378    1.082   .     S
C373   N408    1.358   .     A
C374   H379    1.078   .     S
Cu375  N408    2.022   .     S
Cu375  Cu376   2.692   .     S
Cu375  O415    1.954   .     S
Cu375  O416    1.961   .     S
Cu375  O419    1.958   .     S
Cu375  O409    1.965   .     S
Cu376  N407    2.022   .     S
Cu376  O418    1.958   .     S
Cu376  O414    1.954   .     S
Cu376  O417    1.961   .     S
Cu376  O413    1.965   .     S
H377   C427    1.086   .     S
C421   O498    1.306   .     A
C421   O493    1.298   .     A
C421   C434    1.478   .     S
C422   H464    1.076   .     S
C422   C424    1.420   .     A
C422   C457    1.404   .     A
C423   C443    1.419   .     A
C423   C458    1.420   .     A
C423   C928    1.546   1_554 S
C424   C453    1.419   .     A
C424   C927    1.546   .     S
C425   C427    1.432   .     S
C425   O500    1.293   .     A
C425   O502    1.289   .     A
C426   O501    1.293   .     A
C426   C428    1.432   .     S
C426   O503    1.289   .     A
C428   C259    1.330   1_655 S
C428   H304    1.086   1_655 S
C429   C431    1.400   .     A
C429   C440    1.399   .     A
C429   H483    1.083   .     S
C430   C441    1.403   .     A
C430   H485    1.084   .     S
C430   C433    1.399   .     A
C431   C434    1.429   .     A
C431   C442    1.520   .     S
C432   O499    1.297   .     A
C432   C435    1.454   .     S
C432   O497    1.294   .     A
C433   C435    1.416   .     A
C433   C446    1.516   .     S
C434   C436    1.408   .     A
C435   C437    1.398   .     A
C436   H486    1.083   .     S
C436   C438    1.387   .     A
C437   C439    1.385   .     A
C437   H487    1.084   .     S
C438   H488    1.083   .     S
C438   C440    1.396   .     A
C439   C441    1.402   .     A
C439   H489    1.083   .     S
C441   C188    1.471   1_565 S
C442   H470    1.105   .     S
C442   C444    1.535   .     S
C442   H471    1.113   .     S
C443   C449    1.489   .     S
C443   C454    1.420   .     A
C444   H468    1.112   .     S
C444   C445    1.526   .     S
C444   H469    1.110   .     S
C445   H467    1.109   .     S
C445   H465    1.109   .     S
C445   H466    1.111   .     S
C446   C447    1.535   .     S
C446   H479    1.112   .     S
C446   H478    1.111   .     S
C447   H477    1.111   .     S
C447   H476    1.112   .     S
C447   C448    1.526   .     S
C448   H475    1.111   .     S
C448   H474    1.110   .     S
C448   H473    1.111   .     S
C449   H480    1.084   .     S
C449   O504    1.222   .     D
C450   O494    1.220   .     D
C450   H481    1.085   .     S
C450   C453    1.495   .     S
C451   H482    1.075   .     S
C451   O495    1.221   .     D
C451   C454    1.482   .     S
C452   C455    1.479   .     S
C452   H484    1.076   .     S
C452   O496    1.221   .     D
C453   C455    1.423   .     A
C454   N491    1.380   .     A
C455   N492    1.379   .     A
C456   N491    1.359   .     A
C456   H490    1.082   .     S
C456   C458    1.406   .     A
C457   H462    1.082   .     S
C457   N492    1.358   .     A
C458   H463    1.078   .     S
Cu459  N492    2.022   .     S
Cu459  Cu460   2.692   .     S
Cu459  O499    1.954   .     S
Cu459  O500    1.961   .     S
Cu459  O503    1.958   .     S
Cu459  O493    1.965   .     S
Cu460  N491    2.022   .     S
Cu460  O502    1.958   .     S
Cu460  O498    1.954   .     S
Cu460  O501    1.961   .     S
Cu460  O497    1.965   .     S
H461   C259    1.086   1_655 S
C505   O582    1.306   .     A
C505   O577    1.298   .     A
C505   C518    1.478   .     S
C506   H548    1.076   .     S
C506   C508    1.420   .     A
C506   C541    1.404   .     A
C507   C527    1.419   .     A
C507   C542    1.420   .     A
C508   C537    1.419   .     A
C508   C3      1.546   1_556 S
C509   C511    1.432   .     S
C509   O584    1.293   .     A
C509   O586    1.289   .     A
C510   O585    1.293   .     A
C510   C512    1.432   .     S
C510   O587    1.289   .     A
C511   C680    1.330   1_455 S
C511   H713    1.086   1_455 S
C512   C595    1.330   .     S
C512   H640    1.086   .     S
C513   C515    1.400   .     A
C513   C524    1.399   .     A
C513   H567    1.083   .     S
C514   C525    1.403   .     A
C514   H569    1.084   .     S
C514   C517    1.399   .     A
C515   C518    1.429   .     A
C515   C526    1.520   .     S
C516   O583    1.297   .     A
C516   C519    1.454   .     S
C516   O581    1.294   .     A
C517   C519    1.416   .     A
C517   C530    1.516   .     S
C518   C520    1.408   .     A
C519   C521    1.398   .     A
C520   H570    1.083   .     S
C520   C522    1.387   .     A
C521   C523    1.385   .     A
C521   H571    1.084   .     S
C522   H572    1.083   .     S
C522   C524    1.396   .     A
C523   C525    1.402   .     A
C523   H573    1.083   .     S
C524   C777    1.471   1_545 S
C525   C776    1.471   .     S
C526   H554    1.105   .     S
C526   C528    1.535   .     S
C526   H555    1.113   .     S
C527   C533    1.489   .     S
C527   C538    1.420   .     A
C528   H552    1.112   .     S
C528   C529    1.526   .     S
C528   H553    1.110   .     S
C529   H551    1.109   .     S
C529   H549    1.109   .     S
C529   H550    1.111   .     S
C530   C531    1.535   .     S
C530   H563    1.112   .     S
C530   H562    1.111   .     S
C531   H561    1.111   .     S
C531   H560    1.112   .     S
C531   C532    1.526   .     S
C532   H559    1.111   .     S
C532   H558    1.110   .     S
C532   H557    1.111   .     S
C533   H564    1.084   .     S
C533   O588    1.222   .     D
C534   O578    1.220   .     D
C534   H565    1.085   .     S
C534   C537    1.495   .     S
C535   H566    1.075   .     S
C535   O579    1.221   .     D
C535   C538    1.482   .     S
C536   C539    1.479   .     S
C536   H568    1.076   .     S
C536   O580    1.221   .     D
C537   C539    1.423   .     A
C538   N575    1.380   .     A
C539   N576    1.379   .     A
C540   N575    1.359   .     A
C540   H574    1.082   .     S
C540   C542    1.406   .     A
C541   H546    1.082   .     S
C541   N576    1.358   .     A
C542   H547    1.078   .     S
Cu543  N576    2.022   .     S
Cu543  Cu544   2.692   .     S
Cu543  O583    1.954   .     S
Cu543  O584    1.961   .     S
Cu543  O587    1.958   .     S
Cu543  O577    1.965   .     S
Cu544  N575    2.022   .     S
Cu544  O586    1.958   .     S
Cu544  O582    1.954   .     S
Cu544  O585    1.961   .     S
Cu544  O581    1.965   .     S
H545   C595    1.086   .     S
H556   C680    1.086   1_455 S
C589   O666    1.306   .     A
C589   O661    1.298   .     A
C589   C602    1.478   .     S
C590   H632    1.076   .     S
C590   C592    1.420   .     A
C590   C625    1.404   .     A
C591   C611    1.419   .     A
C591   C626    1.420   .     A
C592   C621    1.419   .     A
C592   C87     1.546   1_556 S
C593   C595    1.432   .     S
C593   O668    1.293   .     A
C593   O670    1.289   .     A
C594   O669    1.293   .     A
C594   C596    1.432   .     S
C594   O671    1.289   .     A
C596   C679    1.330   .     S
C596   H724    1.086   .     S
C597   C599    1.400   .     A
C597   C608    1.399   .     A
C597   H651    1.083   .     S
C598   C609    1.403   .     A
C598   H653    1.084   .     S
C598   C601    1.399   .     A
C599   C602    1.429   .     A
C599   C610    1.520   .     S
C600   O667    1.297   .     A
C600   C603    1.454   .     S
C600   O665    1.294   .     A
C601   C603    1.416   .     A
C601   C614    1.516   .     S
C602   C604    1.408   .     A
C603   C605    1.398   .     A
C604   H654    1.083   .     S
C604   C606    1.387   .     A
C605   C607    1.385   .     A
C605   H655    1.084   .     S
C606   H656    1.083   .     S
C606   C608    1.396   .     A
C607   C609    1.402   .     A
C607   H657    1.083   .     S
C608   C861    1.471   1_545 S
C609   C860    1.471   .     S
C610   H638    1.105   .     S
C610   C612    1.535   .     S
C610   H639    1.113   .     S
C611   C617    1.489   .     S
C611   C622    1.420   .     A
C612   H636    1.112   .     S
C612   C613    1.526   .     S
C612   H637    1.110   .     S
C613   H635    1.109   .     S
C613   H633    1.109   .     S
C613   H634    1.111   .     S
C614   C615    1.535   .     S
C614   H647    1.112   .     S
C614   H646    1.111   .     S
C615   H645    1.111   .     S
C615   H644    1.112   .     S
C615   C616    1.526   .     S
C616   H643    1.111   .     S
C616   H642    1.110   .     S
C616   H641    1.111   .     S
C617   H648    1.084   .     S
C617   O672    1.222   .     D
C618   O662    1.220   .     D
C618   H649    1.085   .     S
C618   C621    1.495   .     S
C619   H650    1.075   .     S
C619   O663    1.221   .     D
C619   C622    1.482   .     S
C620   C623    1.479   .     S
C620   H652    1.076   .     S
C620   O664    1.221   .     D
C621   C623    1.423   .     A
C622   N659    1.380   .     A
C623   N660    1.379   .     A
C624   N659    1.359   .     A
C624   H658    1.082   .     S
C624   C626    1.406   .     A
C625   H630    1.082   .     S
C625   N660    1.358   .     A
C626   H631    1.078   .     S
Cu627  N660    2.022   .     S
Cu627  Cu628   2.692   .     S
Cu627  O667    1.954   .     S
Cu627  O668    1.961   .     S
Cu627  O671    1.958   .     S
Cu627  O661    1.965   .     S
Cu628  N659    2.022   .     S
Cu628  O670    1.958   .     S
Cu628  O666    1.954   .     S
Cu628  O669    1.961   .     S
Cu628  O665    1.965   .     S
H629   C679    1.086   .     S
C673   O750    1.306   .     A
C673   O745    1.298   .     A
C673   C686    1.478   .     S
C674   H716    1.076   .     S
C674   C676    1.420   .     A
C674   C709    1.404   .     A
C675   C695    1.419   .     A
C675   C710    1.420   .     A
C676   C705    1.419   .     A
C676   C171    1.546   1_556 S
C677   C679    1.432   .     S
C677   O752    1.293   .     A
C677   O754    1.289   .     A
C678   O753    1.293   .     A
C678   C680    1.432   .     S
C678   O755    1.289   .     A
C680   C511    1.330   1_655 S
C680   H556    1.086   1_655 S
C681   C683    1.400   .     A
C681   C692    1.399   .     A
C681   H735    1.083   .     S
C682   C693    1.403   .     A
C682   H737    1.084   .     S
C682   C685    1.399   .     A
C683   C686    1.429   .     A
C683   C694    1.520   .     S
C684   O751    1.297   .     A
C684   C687    1.454   .     S
C684   O749    1.294   .     A
C685   C687    1.416   .     A
C685   C698    1.516   .     S
C686   C688    1.408   .     A
C687   C689    1.398   .     A
C688   H738    1.083   .     S
C688   C690    1.387   .     A
C689   C691    1.385   .     A
C689   H739    1.084   .     S
C690   H740    1.083   .     S
C690   C692    1.396   .     A
C691   C693    1.402   .     A
C691   H741    1.083   .     S
C692   C945    1.471   1_545 S
C693   C944    1.471   .     S
C694   H722    1.105   .     S
C694   C696    1.535   .     S
C694   H723    1.113   .     S
C695   C701    1.489   .     S
C695   C706    1.420   .     A
C696   H720    1.112   .     S
C696   C697    1.526   .     S
C696   H721    1.110   .     S
C697   H719    1.109   .     S
C697   H717    1.109   .     S
C697   H718    1.111   .     S
C698   C699    1.535   .     S
C698   H731    1.112   .     S
C698   H730    1.111   .     S
C699   H729    1.111   .     S
C699   H728    1.112   .     S
C699   C700    1.526   .     S
C700   H727    1.111   .     S
C700   H726    1.110   .     S
C700   H725    1.111   .     S
C701   H732    1.084   .     S
C701   O756    1.222   .     D
C702   O746    1.220   .     D
C702   H733    1.085   .     S
C702   C705    1.495   .     S
C703   H734    1.075   .     S
C703   O747    1.221   .     D
C703   C706    1.482   .     S
C704   C707    1.479   .     S
C704   H736    1.076   .     S
C704   O748    1.221   .     D
C705   C707    1.423   .     A
C706   N743    1.380   .     A
C707   N744    1.379   .     A
C708   N743    1.359   .     A
C708   H742    1.082   .     S
C708   C710    1.406   .     A
C709   H714    1.082   .     S
C709   N744    1.358   .     A
C710   H715    1.078   .     S
Cu711  N744    2.022   .     S
Cu711  Cu712   2.692   .     S
Cu711  O751    1.954   .     S
Cu711  O752    1.961   .     S
Cu711  O755    1.958   .     S
Cu711  O745    1.965   .     S
Cu712  N743    2.022   .     S
Cu712  O754    1.958   .     S
Cu712  O750    1.954   .     S
Cu712  O753    1.961   .     S
Cu712  O749    1.965   .     S
H713   C511    1.086   1_655 S
C757   O834    1.306   .     A
C757   O829    1.298   .     A
C757   C770    1.478   .     S
C758   H800    1.076   .     S
C758   C760    1.420   .     A
C758   C793    1.404   .     A
C759   C779    1.419   .     A
C759   C794    1.420   .     A
C760   C789    1.419   .     A
C760   C255    1.546   1_556 S
C761   C763    1.432   .     S
C761   O836    1.293   .     A
C761   O838    1.289   .     A
C762   O837    1.293   .     A
C762   C764    1.432   .     S
C762   O839    1.289   .     A
C763   C932    1.330   1_455 S
C763   H965    1.086   1_455 S
C764   C847    1.330   .     S
C764   H892    1.086   .     S
C765   C767    1.400   .     A
C765   C776    1.399   .     A
C765   H819    1.083   .     S
C766   C777    1.403   .     A
C766   H821    1.084   .     S
C766   C769    1.399   .     A
C767   C770    1.429   .     A
C767   C778    1.520   .     S
C768   O835    1.297   .     A
C768   C771    1.454   .     S
C768   O833    1.294   .     A
C769   C771    1.416   .     A
C769   C782    1.516   .     S
C770   C772    1.408   .     A
C771   C773    1.398   .     A
C772   H822    1.083   .     S
C772   C774    1.387   .     A
C773   C775    1.385   .     A
C773   H823    1.084   .     S
C774   H824    1.083   .     S
C774   C776    1.396   .     A
C775   C777    1.402   .     A
C775   H825    1.083   .     S
C777   C524    1.471   1_565 S
C778   H806    1.105   .     S
C778   C780    1.535   .     S
C778   H807    1.113   .     S
C779   C785    1.489   .     S
C779   C790    1.420   .     A
C780   H804    1.112   .     S
C780   C781    1.526   .     S
C780   H805    1.110   .     S
C781   H803    1.109   .     S
C781   H801    1.109   .     S
C781   H802    1.111   .     S
C782   C783    1.535   .     S
C782   H815    1.112   .     S
C782   H814    1.111   .     S
C783   H813    1.111   .     S
C783   H812    1.112   .     S
C783   C784    1.526   .     S
C784   H811    1.111   .     S
C784   H810    1.110   .     S
C784   H809    1.111   .     S
C785   H816    1.084   .     S
C785   O840    1.222   .     D
C786   O830    1.220   .     D
C786   H817    1.085   .     S
C786   C789    1.495   .     S
C787   H818    1.075   .     S
C787   O831    1.221   .     D
C787   C790    1.482   .     S
C788   C791    1.479   .     S
C788   H820    1.076   .     S
C788   O832    1.221   .     D
C789   C791    1.423   .     A
C790   N827    1.380   .     A
C791   N828    1.379   .     A
C792   N827    1.359   .     A
C792   H826    1.082   .     S
C792   C794    1.406   .     A
C793   H798    1.082   .     S
C793   N828    1.358   .     A
C794   H799    1.078   .     S
Cu795  N828    2.022   .     S
Cu795  Cu796   2.692   .     S
Cu795  O835    1.954   .     S
Cu795  O836    1.961   .     S
Cu795  O839    1.958   .     S
Cu795  O829    1.965   .     S
Cu796  N827    2.022   .     S
Cu796  O838    1.958   .     S
Cu796  O834    1.954   .     S
Cu796  O837    1.961   .     S
Cu796  O833    1.965   .     S
H797   C847    1.086   .     S
H808   C932    1.086   1_455 S
C841   O918    1.306   .     A
C841   O913    1.298   .     A
C841   C854    1.478   .     S
C842   H884    1.076   .     S
C842   C844    1.420   .     A
C842   C877    1.404   .     A
C843   C863    1.419   .     A
C843   C878    1.420   .     A
C844   C873    1.419   .     A
C844   C339    1.546   1_556 S
C845   C847    1.432   .     S
C845   O920    1.293   .     A
C845   O922    1.289   .     A
C846   O921    1.293   .     A
C846   C848    1.432   .     S
C846   O923    1.289   .     A
C848   C931    1.330   .     S
C848   H976    1.086   .     S
C849   C851    1.400   .     A
C849   C860    1.399   .     A
C849   H903    1.083   .     S
C850   C861    1.403   .     A
C850   H905    1.084   .     S
C850   C853    1.399   .     A
C851   C854    1.429   .     A
C851   C862    1.520   .     S
C852   O919    1.297   .     A
C852   C855    1.454   .     S
C852   O917    1.294   .     A
C853   C855    1.416   .     A
C853   C866    1.516   .     S
C854   C856    1.408   .     A
C855   C857    1.398   .     A
C856   H906    1.083   .     S
C856   C858    1.387   .     A
C857   C859    1.385   .     A
C857   H907    1.084   .     S
C858   H908    1.083   .     S
C858   C860    1.396   .     A
C859   C861    1.402   .     A
C859   H909    1.083   .     S
C861   C608    1.471   1_565 S
C862   H890    1.105   .     S
C862   C864    1.535   .     S
C862   H891    1.113   .     S
C863   C869    1.489   .     S
C863   C874    1.420   .     A
C864   H888    1.112   .     S
C864   C865    1.526   .     S
C864   H889    1.110   .     S
C865   H887    1.109   .     S
C865   H885    1.109   .     S
C865   H886    1.111   .     S
C866   C867    1.535   .     S
C866   H899    1.112   .     S
C866   H898    1.111   .     S
C867   H897    1.111   .     S
C867   H896    1.112   .     S
C867   C868    1.526   .     S
C868   H895    1.111   .     S
C868   H894    1.110   .     S
C868   H893    1.111   .     S
C869   H900    1.084   .     S
C869   O924    1.222   .     D
C870   O914    1.220   .     D
C870   H901    1.085   .     S
C870   C873    1.495   .     S
C871   H902    1.075   .     S
C871   O915    1.221   .     D
C871   C874    1.482   .     S
C872   C875    1.479   .     S
C872   H904    1.076   .     S
C872   O916    1.221   .     D
C873   C875    1.423   .     A
C874   N911    1.380   .     A
C875   N912    1.379   .     A
C876   N911    1.359   .     A
C876   H910    1.082   .     S
C876   C878    1.406   .     A
C877   H882    1.082   .     S
C877   N912    1.358   .     A
C878   H883    1.078   .     S
Cu879  N912    2.022   .     S
Cu879  Cu880   2.692   .     S
Cu879  O919    1.954   .     S
Cu879  O920    1.961   .     S
Cu879  O923    1.958   .     S
Cu879  O913    1.965   .     S
Cu880  N911    2.022   .     S
Cu880  O922    1.958   .     S
Cu880  O918    1.954   .     S
Cu880  O921    1.961   .     S
Cu880  O917    1.965   .     S
H881   C931    1.086   .     S
C925   O1002   1.306   .     A
C925   O997    1.298   .     A
C925   C938    1.478   .     S
C926   H968    1.076   .     S
C926   C928    1.420   .     A
C926   C961    1.404   .     A
C927   C947    1.419   .     A
C927   C962    1.420   .     A
C928   C957    1.419   .     A
C928   C423    1.546   1_556 S
C929   C931    1.432   .     S
C929   O1004   1.293   .     A
C929   O1006   1.289   .     A
C930   O1005   1.293   .     A
C930   C932    1.432   .     S
C930   O1007   1.289   .     A
C932   C763    1.330   1_655 S
C932   H808    1.086   1_655 S
C933   C935    1.400   .     A
C933   C944    1.399   .     A
C933   H987    1.083   .     S
C934   C945    1.403   .     A
C934   H989    1.084   .     S
C934   C937    1.399   .     A
C935   C938    1.429   .     A
C935   C946    1.520   .     S
C936   O1003   1.297   .     A
C936   C939    1.454   .     S
C936   O1001   1.294   .     A
C937   C939    1.416   .     A
C937   C950    1.516   .     S
C938   C940    1.408   .     A
C939   C941    1.398   .     A
C940   H990    1.083   .     S
C940   C942    1.387   .     A
C941   C943    1.385   .     A
C941   H991    1.084   .     S
C942   H992    1.083   .     S
C942   C944    1.396   .     A
C943   C945    1.402   .     A
C943   H993    1.083   .     S
C945   C692    1.471   1_565 S
C946   H974    1.105   .     S
C946   C948    1.535   .     S
C946   H975    1.113   .     S
C947   C953    1.489   .     S
C947   C958    1.420   .     A
C948   H972    1.112   .     S
C948   C949    1.526   .     S
C948   H973    1.110   .     S
C949   H971    1.109   .     S
C949   H969    1.109   .     S
C949   H970    1.111   .     S
C950   C951    1.535   .     S
C950   H983    1.112   .     S
C950   H982    1.111   .     S
C951   H981    1.111   .     S
C951   H980    1.112   .     S
C951   C952    1.526   .     S
C952   H979    1.111   .     S
C952   H978    1.110   .     S
C952   H977    1.111   .     S
C953   H984    1.084   .     S
C953   O1008   1.222   .     D
C954   O998    1.220   .     D
C954   H985    1.085   .     S
C954   C957    1.495   .     S
C955   H986    1.075   .     S
C955   O999    1.221   .     D
C955   C958    1.482   .     S
C956   C959    1.479   .     S
C956   H988    1.076   .     S
C956   O1000   1.221   .     D
C957   C959    1.423   .     A
C958   N995    1.380   .     A
C959   N996    1.379   .     A
C960   N995    1.359   .     A
C960   H994    1.082   .     S
C960   C962    1.406   .     A
C961   H966    1.082   .     S
C961   N996    1.358   .     A
C962   H967    1.078   .     S
Cu963  N996    2.022   .     S
Cu963  Cu964   2.692   .     S
Cu963  O1003   1.954   .     S
Cu963  O1004   1.961   .     S
Cu963  O1007   1.958   .     S
Cu963  O997    1.965   .     S
Cu964  N995    2.022   .     S
Cu964  O1006   1.958   .     S
Cu964  O1002   1.954   .     S
Cu964  O1005   1.961   .     S
Cu964  O1001   1.965   .     S
H965   C763    1.086   1_655 S
