data_str_m3_o1_o18_pcu_sym.14
_audit_creation_date              2020-01-03
_audit_creation_method            'Materials Studio'
_symmetry_space_group_name_H-M    'P1'
_symmetry_Int_Tables_number       1
_symmetry_cell_setting            triclinic
loop_
_symmetry_equiv_pos_as_xyz
  x,y,z
_cell_length_a                    29.5578
_cell_length_b                    32.1482
_cell_length_c                    31.1245
_cell_angle_alpha                 90.0870
_cell_angle_beta                  67.2183
_cell_angle_gamma                 89.9949
loop_
_atom_site_label
_atom_site_type_symbol
_atom_site_fract_x
_atom_site_fract_y
_atom_site_fract_z
_atom_site_U_iso_or_equiv
_atom_site_adp_type
_atom_site_occupancy
C1     C     0.16667   0.24670   0.25003   0.00000  Uiso   1.00
C2     C     0.13055   0.31201   0.24013   0.00000  Uiso   1.00
C3     C     0.16667   0.04248   0.24997   0.00000  Uiso   1.00
C4     C     0.16666   0.29085   0.25003   0.00000  Uiso   1.00
C5     C     0.32148   0.14151   0.22026   0.00000  Uiso   1.00
C6     C     0.01185   0.19183   0.27974   0.00000  Uiso   1.00
C7     C     0.03607   0.14149   0.22029   0.00000  Uiso   1.00
C8     C     0.29727   0.19184   0.27971   0.00000  Uiso   1.00
C9     C     0.13590   0.16617   0.33798   0.00000  Uiso   1.00
C10    C     0.19744   0.16716   0.16202   0.00000  Uiso   1.00
C11    C     0.11634   0.16735   0.38862   0.00000  Uiso   1.00
C12    C     0.16667   0.08664   0.24997   0.00000  Uiso   1.00
C13    C     0.21699   0.16599   0.11138   0.00000  Uiso   1.00
C14    C     0.05719   0.19151   0.46233   0.00000  Uiso   1.00
C15    C     0.27615   0.14184   0.03766   0.00000  Uiso   1.00
C16    C     0.07113   0.18584   0.41455   0.00000  Uiso   1.00
C17    C     0.26221   0.14750   0.08544   0.00000  Uiso   1.00
C18    C     0.14661   0.15355   0.41058   0.00000  Uiso   1.00
C19    C     0.18672   0.17978   0.08942   0.00000  Uiso   1.00
C20    C     0.13745   0.16588   0.45637   0.00000  Uiso   1.00
C21    C     0.19588   0.16744   0.04363   0.00000  Uiso   1.00
C22    C     0.09026   0.18211   0.48344   0.00000  Uiso   1.00
C23    C     0.11004   0.17992   0.05148   0.00000  Uiso   1.00
C24    C     0.24307   0.15123   0.01656   0.00000  Uiso   1.00
C25    C     0.17352   0.16262   0.47591   0.00000  Uiso   1.00
C26    C     0.15981   0.17070   0.02409   0.00000  Uiso   1.00
C27    C     0.22329   0.15340   0.44852   0.00000  Uiso   1.00
C28    C     0.07657   0.18771   0.03119   0.00000  Uiso   1.00
C29    C     0.25676   0.14562   0.46880   0.00000  Uiso   1.00
C30    C     0.20277   0.31204   0.25991   0.00000  Uiso   1.00
C31    C     0.13056   0.02129   0.24009   0.00000  Uiso   1.00
C32    C     0.20278   0.02133   0.25987   0.00000  Uiso   1.00
F33    F     0.03028   0.19967   0.05871   0.00000  Uiso   1.00
F34    F     0.30306   0.13366   0.44129   0.00000  Uiso   1.00
F35    F     0.15065   0.20747   0.11238   0.00000  Uiso   1.00
F36    F     0.18267   0.12584   0.38763   0.00000  Uiso   1.00
H37    H     0.28637   0.13723   0.10207   0.00000  Uiso   1.00
H38    H     0.10265   0.29575   0.23212   0.00000  Uiso   1.00
H39    H     0.31303   0.12140   0.19647   0.00000  Uiso   1.00
H40    H     0.02031   0.21193   0.30353   0.00000  Uiso   1.00
H41    H     0.06387   0.12132   0.19654   0.00000  Uiso   1.00
H42    H     0.26947   0.21201   0.30347   0.00000  Uiso   1.00
H43    H     0.04697   0.19612   0.39793   0.00000  Uiso   1.00
H44    H     0.02145   0.20474   0.48228   0.00000  Uiso   1.00
H45    H     0.31190   0.12861   0.01771   0.00000  Uiso   1.00
H46    H     0.09550   0.18068   0.08899   0.00000  Uiso   1.00
H47    H     0.23783   0.15263   0.41101   0.00000  Uiso   1.00
H48    H     0.23066   0.29582   0.26795   0.00000  Uiso   1.00
H49    H     0.10267   0.03752   0.23205   0.00000  Uiso   1.00
H50    H     0.23069   0.03758   0.26788   0.00000  Uiso   1.00
N51    N     0.04759   0.16668   0.25001   0.00000  Uiso   1.00
N52    N     0.28574   0.16666   0.24999   0.00000  Uiso   1.00
O53    O     0.12846   0.22775   0.25001   0.00000  Uiso   1.00
O54    O     0.20488   0.10558   0.25000   0.00000  Uiso   1.00
O55    O     0.20490   0.22774   0.25000   0.00000  Uiso   1.00
O56    O     0.12843   0.10559   0.25000   0.00000  Uiso   1.00
O57    O     0.10661   0.16667   0.31613   0.00000  Uiso   1.00
O58    O     0.22672   0.16666   0.18388   0.00000  Uiso   1.00
O59    O     0.18305   0.16666   0.31612   0.00000  Uiso   1.00
O60    O     0.15028   0.16667   0.18388   0.00000  Uiso   1.00
Zn61   Zn    0.11562   0.16667   0.25000   0.00000  Uiso   1.00
Zn62   Zn    0.21771   0.16666   0.25000   0.00000  Uiso   1.00
C63    C     0.50000   0.24670   0.25003   0.00000  Uiso   1.00
C64    C     0.46389   0.31201   0.24013   0.00000  Uiso   1.00
C65    C     0.50001   0.04248   0.24997   0.00000  Uiso   1.00
C66    C     0.49999   0.29085   0.25003   0.00000  Uiso   1.00
C67    C     0.65481   0.14151   0.22026   0.00000  Uiso   1.00
C68    C     0.34519   0.19183   0.27974   0.00000  Uiso   1.00
C69    C     0.36940   0.14149   0.22029   0.00000  Uiso   1.00
C70    C     0.63060   0.19184   0.27971   0.00000  Uiso   1.00
C71    C     0.46923   0.16617   0.33798   0.00000  Uiso   1.00
C72    C     0.53077   0.16716   0.16202   0.00000  Uiso   1.00
C73    C     0.44968   0.16735   0.38862   0.00000  Uiso   1.00
C74    C     0.50000   0.08664   0.24997   0.00000  Uiso   1.00
C75    C     0.55032   0.16599   0.11138   0.00000  Uiso   1.00
C76    C     0.39052   0.19151   0.46233   0.00000  Uiso   1.00
C77    C     0.60949   0.14184   0.03766   0.00000  Uiso   1.00
C78    C     0.40446   0.18584   0.41455   0.00000  Uiso   1.00
C79    C     0.59555   0.14750   0.08544   0.00000  Uiso   1.00
C80    C     0.47994   0.15355   0.41058   0.00000  Uiso   1.00
C81    C     0.52005   0.17978   0.08942   0.00000  Uiso   1.00
C82    C     0.47079   0.16588   0.45637   0.00000  Uiso   1.00
C83    C     0.52921   0.16744   0.04363   0.00000  Uiso   1.00
C84    C     0.42360   0.18211   0.48344   0.00000  Uiso   1.00
C85    C     0.44337   0.17992   0.05148   0.00000  Uiso   1.00
C86    C     0.57641   0.15123   0.01656   0.00000  Uiso   1.00
C87    C     0.50686   0.16262   0.47591   0.00000  Uiso   1.00
C88    C     0.49314   0.17070   0.02409   0.00000  Uiso   1.00
C89    C     0.55663   0.15340   0.44852   0.00000  Uiso   1.00
C90    C     0.40991   0.18771   0.03119   0.00000  Uiso   1.00
C91    C     0.59009   0.14562   0.46880   0.00000  Uiso   1.00
C92    C     0.53610   0.31204   0.25991   0.00000  Uiso   1.00
C93    C     0.46390   0.02129   0.24009   0.00000  Uiso   1.00
C94    C     0.53611   0.02133   0.25987   0.00000  Uiso   1.00
F95    F     0.36361   0.19967   0.05871   0.00000  Uiso   1.00
F96    F     0.63640   0.13366   0.44129   0.00000  Uiso   1.00
F97    F     0.48398   0.20747   0.11238   0.00000  Uiso   1.00
F98    F     0.51601   0.12584   0.38763   0.00000  Uiso   1.00
H99    H     0.61971   0.13723   0.10207   0.00000  Uiso   1.00
H100   H     0.43598   0.29575   0.23212   0.00000  Uiso   1.00
H101   H     0.64636   0.12140   0.19647   0.00000  Uiso   1.00
H102   H     0.35364   0.21193   0.30353   0.00000  Uiso   1.00
H103   H     0.39720   0.12132   0.19654   0.00000  Uiso   1.00
H104   H     0.60280   0.21201   0.30347   0.00000  Uiso   1.00
H105   H     0.38030   0.19612   0.39793   0.00000  Uiso   1.00
H106   H     0.35478   0.20474   0.48228   0.00000  Uiso   1.00
H107   H     0.64523   0.12861   0.01771   0.00000  Uiso   1.00
H108   H     0.42884   0.18068   0.08899   0.00000  Uiso   1.00
H109   H     0.57116   0.15263   0.41101   0.00000  Uiso   1.00
H110   H     0.56400   0.29582   0.26795   0.00000  Uiso   1.00
H111   H     0.43600   0.03752   0.23205   0.00000  Uiso   1.00
H112   H     0.56402   0.03758   0.26788   0.00000  Uiso   1.00
N113   N     0.38093   0.16668   0.25001   0.00000  Uiso   1.00
N114   N     0.61907   0.16666   0.24999   0.00000  Uiso   1.00
O115   O     0.46179   0.22775   0.25001   0.00000  Uiso   1.00
O116   O     0.53821   0.10558   0.25000   0.00000  Uiso   1.00
O117   O     0.53823   0.22774   0.25000   0.00000  Uiso   1.00
O118   O     0.46177   0.10559   0.25000   0.00000  Uiso   1.00
O119   O     0.43994   0.16667   0.31613   0.00000  Uiso   1.00
O120   O     0.56006   0.16666   0.18388   0.00000  Uiso   1.00
O121   O     0.51639   0.16666   0.31612   0.00000  Uiso   1.00
O122   O     0.48361   0.16667   0.18388   0.00000  Uiso   1.00
Zn123  Zn    0.44896   0.16667   0.25000   0.00000  Uiso   1.00
Zn124  Zn    0.55104   0.16666   0.25000   0.00000  Uiso   1.00
C125   C     0.83333   0.24670   0.25003   0.00000  Uiso   1.00
C126   C     0.79722   0.31201   0.24013   0.00000  Uiso   1.00
C127   C     0.83334   0.04248   0.24997   0.00000  Uiso   1.00
C128   C     0.83333   0.29085   0.25003   0.00000  Uiso   1.00
C129   C     0.98815   0.14151   0.22026   0.00000  Uiso   1.00
C130   C     0.67852   0.19183   0.27974   0.00000  Uiso   1.00
C131   C     0.70273   0.14149   0.22029   0.00000  Uiso   1.00
C132   C     0.96393   0.19184   0.27971   0.00000  Uiso   1.00
C133   C     0.80256   0.16617   0.33798   0.00000  Uiso   1.00
C134   C     0.86410   0.16716   0.16202   0.00000  Uiso   1.00
C135   C     0.78301   0.16735   0.38862   0.00000  Uiso   1.00
C136   C     0.83333   0.08664   0.24997   0.00000  Uiso   1.00
C137   C     0.88366   0.16599   0.11138   0.00000  Uiso   1.00
C138   C     0.72385   0.19151   0.46233   0.00000  Uiso   1.00
C139   C     0.94282   0.14184   0.03766   0.00000  Uiso   1.00
C140   C     0.73779   0.18584   0.41455   0.00000  Uiso   1.00
C141   C     0.92888   0.14750   0.08544   0.00000  Uiso   1.00
C142   C     0.81328   0.15355   0.41058   0.00000  Uiso   1.00
C143   C     0.85339   0.17978   0.08942   0.00000  Uiso   1.00
C144   C     0.80412   0.16588   0.45637   0.00000  Uiso   1.00
C145   C     0.86254   0.16744   0.04363   0.00000  Uiso   1.00
C146   C     0.75693   0.18211   0.48344   0.00000  Uiso   1.00
C147   C     0.77671   0.17992   0.05148   0.00000  Uiso   1.00
C148   C     0.90974   0.15123   0.01656   0.00000  Uiso   1.00
C149   C     0.84019   0.16262   0.47591   0.00000  Uiso   1.00
C150   C     0.82648   0.17070   0.02409   0.00000  Uiso   1.00
C151   C     0.88996   0.15340   0.44852   0.00000  Uiso   1.00
C152   C     0.74324   0.18771   0.03119   0.00000  Uiso   1.00
C153   C     0.92343   0.14562   0.46880   0.00000  Uiso   1.00
C154   C     0.86944   0.31204   0.25991   0.00000  Uiso   1.00
C155   C     0.79723   0.02129   0.24009   0.00000  Uiso   1.00
C156   C     0.86945   0.02133   0.25987   0.00000  Uiso   1.00
F157   F     0.69694   0.19967   0.05871   0.00000  Uiso   1.00
F158   F     0.96973   0.13366   0.44129   0.00000  Uiso   1.00
F159   F     0.81731   0.20747   0.11238   0.00000  Uiso   1.00
F160   F     0.84934   0.12584   0.38763   0.00000  Uiso   1.00
H161   H     0.95304   0.13723   0.10207   0.00000  Uiso   1.00
H162   H     0.76931   0.29575   0.23212   0.00000  Uiso   1.00
H163   H     0.97970   0.12140   0.19647   0.00000  Uiso   1.00
H164   H     0.68697   0.21193   0.30353   0.00000  Uiso   1.00
H165   H     0.73053   0.12132   0.19654   0.00000  Uiso   1.00
H166   H     0.93613   0.21201   0.30347   0.00000  Uiso   1.00
H167   H     0.71364   0.19612   0.39793   0.00000  Uiso   1.00
H168   H     0.68811   0.20474   0.48228   0.00000  Uiso   1.00
H169   H     0.97856   0.12861   0.01771   0.00000  Uiso   1.00
H170   H     0.76217   0.18068   0.08899   0.00000  Uiso   1.00
H171   H     0.90449   0.15263   0.41101   0.00000  Uiso   1.00
H172   H     0.89733   0.29582   0.26795   0.00000  Uiso   1.00
H173   H     0.76934   0.03752   0.23205   0.00000  Uiso   1.00
H174   H     0.89735   0.03758   0.26788   0.00000  Uiso   1.00
N175   N     0.71426   0.16668   0.25001   0.00000  Uiso   1.00
N176   N     0.95241   0.16666   0.24999   0.00000  Uiso   1.00
O177   O     0.79512   0.22775   0.25001   0.00000  Uiso   1.00
O178   O     0.87154   0.10558   0.25000   0.00000  Uiso   1.00
O179   O     0.87157   0.22774   0.25000   0.00000  Uiso   1.00
O180   O     0.79510   0.10559   0.25000   0.00000  Uiso   1.00
O181   O     0.77328   0.16667   0.31613   0.00000  Uiso   1.00
O182   O     0.89339   0.16666   0.18388   0.00000  Uiso   1.00
O183   O     0.84972   0.16666   0.31612   0.00000  Uiso   1.00
O184   O     0.81695   0.16667   0.18388   0.00000  Uiso   1.00
Zn185  Zn    0.78229   0.16667   0.25000   0.00000  Uiso   1.00
Zn186  Zn    0.88438   0.16666   0.25000   0.00000  Uiso   1.00
C187   C     0.16667   0.58003   0.25003   0.00000  Uiso   1.00
C188   C     0.13055   0.64534   0.24013   0.00000  Uiso   1.00
C189   C     0.16667   0.37582   0.24997   0.00000  Uiso   1.00
C190   C     0.16666   0.62418   0.25003   0.00000  Uiso   1.00
C191   C     0.32148   0.47484   0.22026   0.00000  Uiso   1.00
C192   C     0.01185   0.52516   0.27974   0.00000  Uiso   1.00
C193   C     0.03607   0.47483   0.22029   0.00000  Uiso   1.00
C194   C     0.29727   0.52517   0.27971   0.00000  Uiso   1.00
C195   C     0.13590   0.49950   0.33798   0.00000  Uiso   1.00
C196   C     0.19744   0.50050   0.16202   0.00000  Uiso   1.00
C197   C     0.11634   0.50068   0.38862   0.00000  Uiso   1.00
C198   C     0.16667   0.41997   0.24997   0.00000  Uiso   1.00
C199   C     0.21699   0.49932   0.11138   0.00000  Uiso   1.00
C200   C     0.05719   0.52484   0.46233   0.00000  Uiso   1.00
C201   C     0.27615   0.47517   0.03766   0.00000  Uiso   1.00
C202   C     0.07113   0.51918   0.41455   0.00000  Uiso   1.00
C203   C     0.26221   0.48083   0.08544   0.00000  Uiso   1.00
C204   C     0.14661   0.48688   0.41058   0.00000  Uiso   1.00
C205   C     0.18672   0.51311   0.08942   0.00000  Uiso   1.00
C206   C     0.13745   0.49921   0.45637   0.00000  Uiso   1.00
C207   C     0.19588   0.50078   0.04363   0.00000  Uiso   1.00
C208   C     0.09026   0.51544   0.48344   0.00000  Uiso   1.00
C209   C     0.11004   0.51326   0.05148   0.00000  Uiso   1.00
C210   C     0.24307   0.48456   0.01656   0.00000  Uiso   1.00
C211   C     0.17352   0.49595   0.47591   0.00000  Uiso   1.00
C212   C     0.15981   0.50403   0.02409   0.00000  Uiso   1.00
C213   C     0.22329   0.48673   0.44852   0.00000  Uiso   1.00
C214   C     0.07657   0.52104   0.03119   0.00000  Uiso   1.00
C215   C     0.25676   0.47895   0.46880   0.00000  Uiso   1.00
C216   C     0.20277   0.64537   0.25991   0.00000  Uiso   1.00
C217   C     0.13056   0.35463   0.24009   0.00000  Uiso   1.00
C218   C     0.20278   0.35466   0.25987   0.00000  Uiso   1.00
F219   F     0.03028   0.53301   0.05871   0.00000  Uiso   1.00
F220   F     0.30306   0.46700   0.44129   0.00000  Uiso   1.00
F221   F     0.15065   0.54081   0.11238   0.00000  Uiso   1.00
F222   F     0.18267   0.45918   0.38763   0.00000  Uiso   1.00
H223   H     0.28637   0.47057   0.10207   0.00000  Uiso   1.00
H224   H     0.10265   0.62909   0.23212   0.00000  Uiso   1.00
H225   H     0.31303   0.45473   0.19647   0.00000  Uiso   1.00
H226   H     0.02031   0.54527   0.30353   0.00000  Uiso   1.00
H227   H     0.06387   0.45466   0.19654   0.00000  Uiso   1.00
H228   H     0.26947   0.54534   0.30347   0.00000  Uiso   1.00
H229   H     0.04697   0.52946   0.39793   0.00000  Uiso   1.00
H230   H     0.02145   0.53808   0.48228   0.00000  Uiso   1.00
H231   H     0.31190   0.46194   0.01771   0.00000  Uiso   1.00
H232   H     0.09550   0.51402   0.08899   0.00000  Uiso   1.00
H233   H     0.23783   0.48597   0.41101   0.00000  Uiso   1.00
H234   H     0.23066   0.62915   0.26795   0.00000  Uiso   1.00
H235   H     0.10267   0.37085   0.23205   0.00000  Uiso   1.00
H236   H     0.23069   0.37091   0.26788   0.00000  Uiso   1.00
N237   N     0.04759   0.50001   0.25001   0.00000  Uiso   1.00
N238   N     0.28574   0.49999   0.24999   0.00000  Uiso   1.00
O239   O     0.12846   0.56108   0.25001   0.00000  Uiso   1.00
O240   O     0.20488   0.43892   0.25000   0.00000  Uiso   1.00
O241   O     0.20490   0.56107   0.25000   0.00000  Uiso   1.00
O242   O     0.12843   0.43893   0.25000   0.00000  Uiso   1.00
O243   O     0.10661   0.50001   0.31613   0.00000  Uiso   1.00
O244   O     0.22672   0.49999   0.18388   0.00000  Uiso   1.00
O245   O     0.18305   0.50000   0.31612   0.00000  Uiso   1.00
O246   O     0.15028   0.50000   0.18388   0.00000  Uiso   1.00
Zn247  Zn    0.11562   0.50001   0.25000   0.00000  Uiso   1.00
Zn248  Zn    0.21771   0.49999   0.25000   0.00000  Uiso   1.00
C249   C     0.50000   0.58003   0.25003   0.00000  Uiso   1.00
C250   C     0.46389   0.64534   0.24013   0.00000  Uiso   1.00
C251   C     0.50001   0.37582   0.24997   0.00000  Uiso   1.00
C252   C     0.49999   0.62418   0.25003   0.00000  Uiso   1.00
C253   C     0.65481   0.47484   0.22026   0.00000  Uiso   1.00
C254   C     0.34519   0.52516   0.27974   0.00000  Uiso   1.00
C255   C     0.36940   0.47483   0.22029   0.00000  Uiso   1.00
C256   C     0.63060   0.52517   0.27971   0.00000  Uiso   1.00
C257   C     0.46923   0.49950   0.33798   0.00000  Uiso   1.00
C258   C     0.53077   0.50050   0.16202   0.00000  Uiso   1.00
C259   C     0.44968   0.50068   0.38862   0.00000  Uiso   1.00
C260   C     0.50000   0.41997   0.24997   0.00000  Uiso   1.00
C261   C     0.55032   0.49932   0.11138   0.00000  Uiso   1.00
C262   C     0.39052   0.52484   0.46233   0.00000  Uiso   1.00
C263   C     0.60949   0.47517   0.03766   0.00000  Uiso   1.00
C264   C     0.40446   0.51918   0.41455   0.00000  Uiso   1.00
C265   C     0.59555   0.48083   0.08544   0.00000  Uiso   1.00
C266   C     0.47994   0.48688   0.41058   0.00000  Uiso   1.00
C267   C     0.52005   0.51311   0.08942   0.00000  Uiso   1.00
C268   C     0.47079   0.49921   0.45637   0.00000  Uiso   1.00
C269   C     0.52921   0.50078   0.04363   0.00000  Uiso   1.00
C270   C     0.42360   0.51544   0.48344   0.00000  Uiso   1.00
C271   C     0.44337   0.51326   0.05148   0.00000  Uiso   1.00
C272   C     0.57641   0.48456   0.01656   0.00000  Uiso   1.00
C273   C     0.50686   0.49595   0.47591   0.00000  Uiso   1.00
C274   C     0.49314   0.50403   0.02409   0.00000  Uiso   1.00
C275   C     0.55663   0.48673   0.44852   0.00000  Uiso   1.00
C276   C     0.40991   0.52104   0.03119   0.00000  Uiso   1.00
C277   C     0.59009   0.47895   0.46880   0.00000  Uiso   1.00
C278   C     0.53610   0.64537   0.25991   0.00000  Uiso   1.00
C279   C     0.46390   0.35463   0.24009   0.00000  Uiso   1.00
C280   C     0.53611   0.35466   0.25987   0.00000  Uiso   1.00
F281   F     0.36361   0.53301   0.05871   0.00000  Uiso   1.00
F282   F     0.63640   0.46700   0.44129   0.00000  Uiso   1.00
F283   F     0.48398   0.54081   0.11238   0.00000  Uiso   1.00
F284   F     0.51601   0.45918   0.38763   0.00000  Uiso   1.00
H285   H     0.61971   0.47057   0.10207   0.00000  Uiso   1.00
H286   H     0.43598   0.62909   0.23212   0.00000  Uiso   1.00
H287   H     0.64636   0.45473   0.19647   0.00000  Uiso   1.00
H288   H     0.35364   0.54527   0.30353   0.00000  Uiso   1.00
H289   H     0.39720   0.45466   0.19654   0.00000  Uiso   1.00
H290   H     0.60280   0.54534   0.30347   0.00000  Uiso   1.00
H291   H     0.38030   0.52946   0.39793   0.00000  Uiso   1.00
H292   H     0.35478   0.53808   0.48228   0.00000  Uiso   1.00
H293   H     0.64523   0.46194   0.01771   0.00000  Uiso   1.00
H294   H     0.42884   0.51402   0.08899   0.00000  Uiso   1.00
H295   H     0.57116   0.48597   0.41101   0.00000  Uiso   1.00
H296   H     0.56400   0.62915   0.26795   0.00000  Uiso   1.00
H297   H     0.43600   0.37085   0.23205   0.00000  Uiso   1.00
H298   H     0.56402   0.37091   0.26788   0.00000  Uiso   1.00
N299   N     0.38093   0.50001   0.25001   0.00000  Uiso   1.00
N300   N     0.61907   0.49999   0.24999   0.00000  Uiso   1.00
O301   O     0.46179   0.56108   0.25001   0.00000  Uiso   1.00
O302   O     0.53821   0.43892   0.25000   0.00000  Uiso   1.00
O303   O     0.53823   0.56107   0.25000   0.00000  Uiso   1.00
O304   O     0.46177   0.43893   0.25000   0.00000  Uiso   1.00
O305   O     0.43994   0.50001   0.31613   0.00000  Uiso   1.00
O306   O     0.56006   0.49999   0.18388   0.00000  Uiso   1.00
O307   O     0.51639   0.50000   0.31612   0.00000  Uiso   1.00
O308   O     0.48361   0.50000   0.18388   0.00000  Uiso   1.00
Zn309  Zn    0.44896   0.50001   0.25000   0.00000  Uiso   1.00
Zn310  Zn    0.55104   0.49999   0.25000   0.00000  Uiso   1.00
C311   C     0.83333   0.58003   0.25003   0.00000  Uiso   1.00
C312   C     0.79722   0.64534   0.24013   0.00000  Uiso   1.00
C313   C     0.83334   0.37582   0.24997   0.00000  Uiso   1.00
C314   C     0.83333   0.62418   0.25003   0.00000  Uiso   1.00
C315   C     0.98815   0.47484   0.22026   0.00000  Uiso   1.00
C316   C     0.67852   0.52516   0.27974   0.00000  Uiso   1.00
C317   C     0.70273   0.47483   0.22029   0.00000  Uiso   1.00
C318   C     0.96393   0.52517   0.27971   0.00000  Uiso   1.00
C319   C     0.80256   0.49950   0.33798   0.00000  Uiso   1.00
C320   C     0.86410   0.50050   0.16202   0.00000  Uiso   1.00
C321   C     0.78301   0.50068   0.38862   0.00000  Uiso   1.00
C322   C     0.83333   0.41997   0.24997   0.00000  Uiso   1.00
C323   C     0.88366   0.49932   0.11138   0.00000  Uiso   1.00
C324   C     0.72385   0.52484   0.46233   0.00000  Uiso   1.00
C325   C     0.94282   0.47517   0.03766   0.00000  Uiso   1.00
C326   C     0.73779   0.51918   0.41455   0.00000  Uiso   1.00
C327   C     0.92888   0.48083   0.08544   0.00000  Uiso   1.00
C328   C     0.81328   0.48688   0.41058   0.00000  Uiso   1.00
C329   C     0.85339   0.51311   0.08942   0.00000  Uiso   1.00
C330   C     0.80412   0.49921   0.45637   0.00000  Uiso   1.00
C331   C     0.86254   0.50078   0.04363   0.00000  Uiso   1.00
C332   C     0.75693   0.51544   0.48344   0.00000  Uiso   1.00
C333   C     0.77671   0.51326   0.05148   0.00000  Uiso   1.00
C334   C     0.90974   0.48456   0.01656   0.00000  Uiso   1.00
C335   C     0.84019   0.49595   0.47591   0.00000  Uiso   1.00
C336   C     0.82648   0.50403   0.02409   0.00000  Uiso   1.00
C337   C     0.88996   0.48673   0.44852   0.00000  Uiso   1.00
C338   C     0.74324   0.52104   0.03119   0.00000  Uiso   1.00
C339   C     0.92343   0.47895   0.46880   0.00000  Uiso   1.00
C340   C     0.86944   0.64537   0.25991   0.00000  Uiso   1.00
C341   C     0.79723   0.35463   0.24009   0.00000  Uiso   1.00
C342   C     0.86945   0.35466   0.25987   0.00000  Uiso   1.00
F343   F     0.69694   0.53301   0.05871   0.00000  Uiso   1.00
F344   F     0.96973   0.46700   0.44129   0.00000  Uiso   1.00
F345   F     0.81731   0.54081   0.11238   0.00000  Uiso   1.00
F346   F     0.84934   0.45918   0.38763   0.00000  Uiso   1.00
H347   H     0.95304   0.47057   0.10207   0.00000  Uiso   1.00
H348   H     0.76931   0.62909   0.23212   0.00000  Uiso   1.00
H349   H     0.97970   0.45473   0.19647   0.00000  Uiso   1.00
H350   H     0.68697   0.54527   0.30353   0.00000  Uiso   1.00
H351   H     0.73053   0.45466   0.19654   0.00000  Uiso   1.00
H352   H     0.93613   0.54534   0.30347   0.00000  Uiso   1.00
H353   H     0.71364   0.52946   0.39793   0.00000  Uiso   1.00
H354   H     0.68811   0.53808   0.48228   0.00000  Uiso   1.00
H355   H     0.97856   0.46194   0.01771   0.00000  Uiso   1.00
H356   H     0.76217   0.51402   0.08899   0.00000  Uiso   1.00
H357   H     0.90449   0.48597   0.41101   0.00000  Uiso   1.00
H358   H     0.89733   0.62915   0.26795   0.00000  Uiso   1.00
H359   H     0.76934   0.37085   0.23205   0.00000  Uiso   1.00
H360   H     0.89735   0.37091   0.26788   0.00000  Uiso   1.00
N361   N     0.71426   0.50001   0.25001   0.00000  Uiso   1.00
N362   N     0.95241   0.49999   0.24999   0.00000  Uiso   1.00
O363   O     0.79512   0.56108   0.25001   0.00000  Uiso   1.00
O364   O     0.87154   0.43892   0.25000   0.00000  Uiso   1.00
O365   O     0.87157   0.56107   0.25000   0.00000  Uiso   1.00
O366   O     0.79510   0.43893   0.25000   0.00000  Uiso   1.00
O367   O     0.77328   0.50001   0.31613   0.00000  Uiso   1.00
O368   O     0.89339   0.49999   0.18388   0.00000  Uiso   1.00
O369   O     0.84972   0.50000   0.31612   0.00000  Uiso   1.00
O370   O     0.81695   0.50000   0.18388   0.00000  Uiso   1.00
Zn371  Zn    0.78229   0.50001   0.25000   0.00000  Uiso   1.00
Zn372  Zn    0.88438   0.49999   0.25000   0.00000  Uiso   1.00
C373   C     0.16667   0.91336   0.25003   0.00000  Uiso   1.00
C374   C     0.13055   0.97867   0.24013   0.00000  Uiso   1.00
C375   C     0.16667   0.70915   0.24997   0.00000  Uiso   1.00
C376   C     0.16666   0.95752   0.25003   0.00000  Uiso   1.00
C377   C     0.32148   0.80817   0.22026   0.00000  Uiso   1.00
C378   C     0.01185   0.85849   0.27974   0.00000  Uiso   1.00
C379   C     0.03607   0.80816   0.22029   0.00000  Uiso   1.00
C380   C     0.29727   0.85851   0.27971   0.00000  Uiso   1.00
C381   C     0.13590   0.83284   0.33798   0.00000  Uiso   1.00
C382   C     0.19744   0.83383   0.16202   0.00000  Uiso   1.00
C383   C     0.11634   0.83401   0.38862   0.00000  Uiso   1.00
C384   C     0.16667   0.75330   0.24997   0.00000  Uiso   1.00
C385   C     0.21699   0.83265   0.11138   0.00000  Uiso   1.00
C386   C     0.05719   0.85817   0.46233   0.00000  Uiso   1.00
C387   C     0.27615   0.80850   0.03766   0.00000  Uiso   1.00
C388   C     0.07113   0.85251   0.41455   0.00000  Uiso   1.00
C389   C     0.26221   0.81417   0.08544   0.00000  Uiso   1.00
C390   C     0.14661   0.82021   0.41058   0.00000  Uiso   1.00
C391   C     0.18672   0.84644   0.08942   0.00000  Uiso   1.00
C392   C     0.13745   0.83255   0.45637   0.00000  Uiso   1.00
C393   C     0.19588   0.83411   0.04363   0.00000  Uiso   1.00
C394   C     0.09026   0.84877   0.48344   0.00000  Uiso   1.00
C395   C     0.11004   0.84659   0.05148   0.00000  Uiso   1.00
C396   C     0.24307   0.81789   0.01656   0.00000  Uiso   1.00
C397   C     0.17352   0.82929   0.47591   0.00000  Uiso   1.00
C398   C     0.15981   0.83737   0.02409   0.00000  Uiso   1.00
C399   C     0.22329   0.82007   0.44852   0.00000  Uiso   1.00
C400   C     0.07657   0.85438   0.03119   0.00000  Uiso   1.00
C401   C     0.25676   0.81229   0.46880   0.00000  Uiso   1.00
C402   C     0.20277   0.97871   0.25991   0.00000  Uiso   1.00
C403   C     0.13056   0.68796   0.24009   0.00000  Uiso   1.00
C404   C     0.20278   0.68799   0.25987   0.00000  Uiso   1.00
F405   F     0.03028   0.86634   0.05871   0.00000  Uiso   1.00
F406   F     0.30306   0.80033   0.44129   0.00000  Uiso   1.00
F407   F     0.15065   0.87414   0.11238   0.00000  Uiso   1.00
F408   F     0.18267   0.79251   0.38763   0.00000  Uiso   1.00
H409   H     0.28637   0.80390   0.10207   0.00000  Uiso   1.00
H410   H     0.10265   0.96242   0.23212   0.00000  Uiso   1.00
H411   H     0.31303   0.78807   0.19647   0.00000  Uiso   1.00
H412   H     0.02031   0.87860   0.30353   0.00000  Uiso   1.00
H413   H     0.06387   0.78799   0.19654   0.00000  Uiso   1.00
H414   H     0.26947   0.87868   0.30347   0.00000  Uiso   1.00
H415   H     0.04697   0.86279   0.39793   0.00000  Uiso   1.00
H416   H     0.02145   0.87141   0.48228   0.00000  Uiso   1.00
H417   H     0.31190   0.79527   0.01771   0.00000  Uiso   1.00
H418   H     0.09550   0.84735   0.08899   0.00000  Uiso   1.00
H419   H     0.23783   0.81930   0.41101   0.00000  Uiso   1.00
H420   H     0.23066   0.96248   0.26795   0.00000  Uiso   1.00
H421   H     0.10267   0.70418   0.23205   0.00000  Uiso   1.00
H422   H     0.23069   0.70425   0.26788   0.00000  Uiso   1.00
N423   N     0.04759   0.83334   0.25001   0.00000  Uiso   1.00
N424   N     0.28574   0.83332   0.24999   0.00000  Uiso   1.00
O425   O     0.12846   0.89442   0.25001   0.00000  Uiso   1.00
O426   O     0.20488   0.77225   0.25000   0.00000  Uiso   1.00
O427   O     0.20490   0.89441   0.25000   0.00000  Uiso   1.00
O428   O     0.12843   0.77226   0.25000   0.00000  Uiso   1.00
O429   O     0.10661   0.83334   0.31613   0.00000  Uiso   1.00
O430   O     0.22672   0.83333   0.18388   0.00000  Uiso   1.00
O431   O     0.18305   0.83333   0.31612   0.00000  Uiso   1.00
O432   O     0.15028   0.83334   0.18388   0.00000  Uiso   1.00
Zn433  Zn    0.11562   0.83334   0.25000   0.00000  Uiso   1.00
Zn434  Zn    0.21771   0.83333   0.25000   0.00000  Uiso   1.00
C435   C     0.50000   0.91336   0.25003   0.00000  Uiso   1.00
C436   C     0.46389   0.97867   0.24013   0.00000  Uiso   1.00
C437   C     0.50001   0.70915   0.24997   0.00000  Uiso   1.00
C438   C     0.49999   0.95752   0.25003   0.00000  Uiso   1.00
C439   C     0.65481   0.80817   0.22026   0.00000  Uiso   1.00
C440   C     0.34519   0.85849   0.27974   0.00000  Uiso   1.00
C441   C     0.36940   0.80816   0.22029   0.00000  Uiso   1.00
C442   C     0.63060   0.85851   0.27971   0.00000  Uiso   1.00
C443   C     0.46923   0.83284   0.33798   0.00000  Uiso   1.00
C444   C     0.53077   0.83383   0.16202   0.00000  Uiso   1.00
C445   C     0.44968   0.83401   0.38862   0.00000  Uiso   1.00
C446   C     0.50000   0.75330   0.24997   0.00000  Uiso   1.00
C447   C     0.55032   0.83265   0.11138   0.00000  Uiso   1.00
C448   C     0.39052   0.85817   0.46233   0.00000  Uiso   1.00
C449   C     0.60949   0.80850   0.03766   0.00000  Uiso   1.00
C450   C     0.40446   0.85251   0.41455   0.00000  Uiso   1.00
C451   C     0.59555   0.81417   0.08544   0.00000  Uiso   1.00
C452   C     0.47994   0.82021   0.41058   0.00000  Uiso   1.00
C453   C     0.52005   0.84644   0.08942   0.00000  Uiso   1.00
C454   C     0.47079   0.83255   0.45637   0.00000  Uiso   1.00
C455   C     0.52921   0.83411   0.04363   0.00000  Uiso   1.00
C456   C     0.42360   0.84877   0.48344   0.00000  Uiso   1.00
C457   C     0.44337   0.84659   0.05148   0.00000  Uiso   1.00
C458   C     0.57641   0.81789   0.01656   0.00000  Uiso   1.00
C459   C     0.50686   0.82929   0.47591   0.00000  Uiso   1.00
C460   C     0.49314   0.83737   0.02409   0.00000  Uiso   1.00
C461   C     0.55663   0.82007   0.44852   0.00000  Uiso   1.00
C462   C     0.40991   0.85438   0.03119   0.00000  Uiso   1.00
C463   C     0.59009   0.81229   0.46880   0.00000  Uiso   1.00
C464   C     0.53610   0.97871   0.25991   0.00000  Uiso   1.00
C465   C     0.46390   0.68796   0.24009   0.00000  Uiso   1.00
C466   C     0.53611   0.68799   0.25987   0.00000  Uiso   1.00
F467   F     0.36361   0.86634   0.05871   0.00000  Uiso   1.00
F468   F     0.63640   0.80033   0.44129   0.00000  Uiso   1.00
F469   F     0.48398   0.87414   0.11238   0.00000  Uiso   1.00
F470   F     0.51601   0.79251   0.38763   0.00000  Uiso   1.00
H471   H     0.61971   0.80390   0.10207   0.00000  Uiso   1.00
H472   H     0.43598   0.96242   0.23212   0.00000  Uiso   1.00
H473   H     0.64636   0.78807   0.19647   0.00000  Uiso   1.00
H474   H     0.35364   0.87860   0.30353   0.00000  Uiso   1.00
H475   H     0.39720   0.78799   0.19654   0.00000  Uiso   1.00
H476   H     0.60280   0.87868   0.30347   0.00000  Uiso   1.00
H477   H     0.38030   0.86279   0.39793   0.00000  Uiso   1.00
H478   H     0.35478   0.87141   0.48228   0.00000  Uiso   1.00
H479   H     0.64523   0.79527   0.01771   0.00000  Uiso   1.00
H480   H     0.42884   0.84735   0.08899   0.00000  Uiso   1.00
H481   H     0.57116   0.81930   0.41101   0.00000  Uiso   1.00
H482   H     0.56400   0.96248   0.26795   0.00000  Uiso   1.00
H483   H     0.43600   0.70418   0.23205   0.00000  Uiso   1.00
H484   H     0.56402   0.70425   0.26788   0.00000  Uiso   1.00
N485   N     0.38093   0.83334   0.25001   0.00000  Uiso   1.00
N486   N     0.61907   0.83332   0.24999   0.00000  Uiso   1.00
O487   O     0.46179   0.89442   0.25001   0.00000  Uiso   1.00
O488   O     0.53821   0.77225   0.25000   0.00000  Uiso   1.00
O489   O     0.53823   0.89441   0.25000   0.00000  Uiso   1.00
O490   O     0.46177   0.77226   0.25000   0.00000  Uiso   1.00
O491   O     0.43994   0.83334   0.31613   0.00000  Uiso   1.00
O492   O     0.56006   0.83333   0.18388   0.00000  Uiso   1.00
O493   O     0.51639   0.83333   0.31612   0.00000  Uiso   1.00
O494   O     0.48361   0.83334   0.18388   0.00000  Uiso   1.00
Zn495  Zn    0.44896   0.83334   0.25000   0.00000  Uiso   1.00
Zn496  Zn    0.55104   0.83333   0.25000   0.00000  Uiso   1.00
C497   C     0.83333   0.91336   0.25003   0.00000  Uiso   1.00
C498   C     0.79722   0.97867   0.24013   0.00000  Uiso   1.00
C499   C     0.83334   0.70915   0.24997   0.00000  Uiso   1.00
C500   C     0.83333   0.95752   0.25003   0.00000  Uiso   1.00
C501   C     0.98815   0.80817   0.22026   0.00000  Uiso   1.00
C502   C     0.67852   0.85849   0.27974   0.00000  Uiso   1.00
C503   C     0.70273   0.80816   0.22029   0.00000  Uiso   1.00
C504   C     0.96393   0.85851   0.27971   0.00000  Uiso   1.00
C505   C     0.80256   0.83284   0.33798   0.00000  Uiso   1.00
C506   C     0.86410   0.83383   0.16202   0.00000  Uiso   1.00
C507   C     0.78301   0.83401   0.38862   0.00000  Uiso   1.00
C508   C     0.83333   0.75330   0.24997   0.00000  Uiso   1.00
C509   C     0.88366   0.83265   0.11138   0.00000  Uiso   1.00
C510   C     0.72385   0.85817   0.46233   0.00000  Uiso   1.00
C511   C     0.94282   0.80850   0.03766   0.00000  Uiso   1.00
C512   C     0.73779   0.85251   0.41455   0.00000  Uiso   1.00
C513   C     0.92888   0.81417   0.08544   0.00000  Uiso   1.00
C514   C     0.81328   0.82021   0.41058   0.00000  Uiso   1.00
C515   C     0.85339   0.84644   0.08942   0.00000  Uiso   1.00
C516   C     0.80412   0.83255   0.45637   0.00000  Uiso   1.00
C517   C     0.86254   0.83411   0.04363   0.00000  Uiso   1.00
C518   C     0.75693   0.84877   0.48344   0.00000  Uiso   1.00
C519   C     0.77671   0.84659   0.05148   0.00000  Uiso   1.00
C520   C     0.90974   0.81789   0.01656   0.00000  Uiso   1.00
C521   C     0.84019   0.82929   0.47591   0.00000  Uiso   1.00
C522   C     0.82648   0.83737   0.02409   0.00000  Uiso   1.00
C523   C     0.88996   0.82007   0.44852   0.00000  Uiso   1.00
C524   C     0.74324   0.85438   0.03119   0.00000  Uiso   1.00
C525   C     0.92343   0.81229   0.46880   0.00000  Uiso   1.00
C526   C     0.86944   0.97871   0.25991   0.00000  Uiso   1.00
C527   C     0.79723   0.68796   0.24009   0.00000  Uiso   1.00
C528   C     0.86945   0.68799   0.25987   0.00000  Uiso   1.00
F529   F     0.69694   0.86634   0.05871   0.00000  Uiso   1.00
F530   F     0.96973   0.80033   0.44129   0.00000  Uiso   1.00
F531   F     0.81731   0.87414   0.11238   0.00000  Uiso   1.00
F532   F     0.84934   0.79251   0.38763   0.00000  Uiso   1.00
H533   H     0.95304   0.80390   0.10207   0.00000  Uiso   1.00
H534   H     0.76931   0.96242   0.23212   0.00000  Uiso   1.00
H535   H     0.97970   0.78807   0.19647   0.00000  Uiso   1.00
H536   H     0.68697   0.87860   0.30353   0.00000  Uiso   1.00
H537   H     0.73053   0.78799   0.19654   0.00000  Uiso   1.00
H538   H     0.93613   0.87868   0.30347   0.00000  Uiso   1.00
H539   H     0.71364   0.86279   0.39793   0.00000  Uiso   1.00
H540   H     0.68811   0.87141   0.48228   0.00000  Uiso   1.00
H541   H     0.97856   0.79527   0.01771   0.00000  Uiso   1.00
H542   H     0.76217   0.84735   0.08899   0.00000  Uiso   1.00
H543   H     0.90449   0.81930   0.41101   0.00000  Uiso   1.00
H544   H     0.89733   0.96248   0.26795   0.00000  Uiso   1.00
H545   H     0.76934   0.70418   0.23205   0.00000  Uiso   1.00
H546   H     0.89735   0.70425   0.26788   0.00000  Uiso   1.00
N547   N     0.71426   0.83334   0.25001   0.00000  Uiso   1.00
N548   N     0.95241   0.83332   0.24999   0.00000  Uiso   1.00
O549   O     0.79512   0.89442   0.25001   0.00000  Uiso   1.00
O550   O     0.87154   0.77225   0.25000   0.00000  Uiso   1.00
O551   O     0.87157   0.89441   0.25000   0.00000  Uiso   1.00
O552   O     0.79510   0.77226   0.25000   0.00000  Uiso   1.00
O553   O     0.77328   0.83334   0.31613   0.00000  Uiso   1.00
O554   O     0.89339   0.83333   0.18388   0.00000  Uiso   1.00
O555   O     0.84972   0.83333   0.31612   0.00000  Uiso   1.00
O556   O     0.81695   0.83334   0.18388   0.00000  Uiso   1.00
Zn557  Zn    0.78229   0.83334   0.25000   0.00000  Uiso   1.00
Zn558  Zn    0.88438   0.83333   0.25000   0.00000  Uiso   1.00
C559   C     0.16667   0.24670   0.75003   0.00000  Uiso   1.00
C560   C     0.13055   0.31201   0.74013   0.00000  Uiso   1.00
C561   C     0.16667   0.04248   0.74997   0.00000  Uiso   1.00
C562   C     0.16666   0.29085   0.75003   0.00000  Uiso   1.00
C563   C     0.32148   0.14151   0.72026   0.00000  Uiso   1.00
C564   C     0.01185   0.19183   0.77974   0.00000  Uiso   1.00
C565   C     0.03607   0.14149   0.72029   0.00000  Uiso   1.00
C566   C     0.29727   0.19184   0.77971   0.00000  Uiso   1.00
C567   C     0.13590   0.16617   0.83798   0.00000  Uiso   1.00
C568   C     0.19744   0.16716   0.66202   0.00000  Uiso   1.00
C569   C     0.11634   0.16735   0.88862   0.00000  Uiso   1.00
C570   C     0.16667   0.08664   0.74997   0.00000  Uiso   1.00
C571   C     0.21699   0.16599   0.61138   0.00000  Uiso   1.00
C572   C     0.05719   0.19151   0.96233   0.00000  Uiso   1.00
C573   C     0.27615   0.14184   0.53766   0.00000  Uiso   1.00
C574   C     0.07113   0.18584   0.91455   0.00000  Uiso   1.00
C575   C     0.26221   0.14750   0.58544   0.00000  Uiso   1.00
C576   C     0.14661   0.15355   0.91058   0.00000  Uiso   1.00
C577   C     0.18672   0.17978   0.58942   0.00000  Uiso   1.00
C578   C     0.13745   0.16588   0.95637   0.00000  Uiso   1.00
C579   C     0.19588   0.16744   0.54363   0.00000  Uiso   1.00
C580   C     0.09026   0.18211   0.98344   0.00000  Uiso   1.00
C581   C     0.11004   0.17992   0.55148   0.00000  Uiso   1.00
C582   C     0.24307   0.15123   0.51656   0.00000  Uiso   1.00
C583   C     0.17352   0.16262   0.97591   0.00000  Uiso   1.00
C584   C     0.15981   0.17070   0.52409   0.00000  Uiso   1.00
C585   C     0.22329   0.15340   0.94852   0.00000  Uiso   1.00
C586   C     0.07657   0.18771   0.53119   0.00000  Uiso   1.00
C587   C     0.25676   0.14562   0.96880   0.00000  Uiso   1.00
C588   C     0.20277   0.31204   0.75991   0.00000  Uiso   1.00
C589   C     0.13056   0.02129   0.74009   0.00000  Uiso   1.00
C590   C     0.20278   0.02133   0.75987   0.00000  Uiso   1.00
F591   F     0.03028   0.19967   0.55871   0.00000  Uiso   1.00
F592   F     0.30306   0.13366   0.94129   0.00000  Uiso   1.00
F593   F     0.15065   0.20747   0.61238   0.00000  Uiso   1.00
F594   F     0.18267   0.12584   0.88763   0.00000  Uiso   1.00
H595   H     0.28637   0.13723   0.60207   0.00000  Uiso   1.00
H596   H     0.10265   0.29575   0.73212   0.00000  Uiso   1.00
H597   H     0.31303   0.12140   0.69647   0.00000  Uiso   1.00
H598   H     0.02031   0.21193   0.80353   0.00000  Uiso   1.00
H599   H     0.06387   0.12132   0.69654   0.00000  Uiso   1.00
H600   H     0.26947   0.21201   0.80347   0.00000  Uiso   1.00
H601   H     0.04697   0.19612   0.89793   0.00000  Uiso   1.00
H602   H     0.02145   0.20474   0.98228   0.00000  Uiso   1.00
H603   H     0.31190   0.12861   0.51771   0.00000  Uiso   1.00
H604   H     0.09550   0.18068   0.58899   0.00000  Uiso   1.00
H605   H     0.23783   0.15263   0.91101   0.00000  Uiso   1.00
H606   H     0.23066   0.29582   0.76795   0.00000  Uiso   1.00
H607   H     0.10267   0.03752   0.73205   0.00000  Uiso   1.00
H608   H     0.23069   0.03758   0.76788   0.00000  Uiso   1.00
N609   N     0.04759   0.16668   0.75001   0.00000  Uiso   1.00
N610   N     0.28574   0.16666   0.74999   0.00000  Uiso   1.00
O611   O     0.12846   0.22775   0.75001   0.00000  Uiso   1.00
O612   O     0.20488   0.10558   0.75000   0.00000  Uiso   1.00
O613   O     0.20490   0.22774   0.75000   0.00000  Uiso   1.00
O614   O     0.12843   0.10559   0.75000   0.00000  Uiso   1.00
O615   O     0.10661   0.16667   0.81613   0.00000  Uiso   1.00
O616   O     0.22672   0.16666   0.68388   0.00000  Uiso   1.00
O617   O     0.18305   0.16666   0.81612   0.00000  Uiso   1.00
O618   O     0.15028   0.16667   0.68388   0.00000  Uiso   1.00
Zn619  Zn    0.11562   0.16667   0.75000   0.00000  Uiso   1.00
Zn620  Zn    0.21771   0.16666   0.75000   0.00000  Uiso   1.00
C621   C     0.50000   0.24670   0.75003   0.00000  Uiso   1.00
C622   C     0.46389   0.31201   0.74013   0.00000  Uiso   1.00
C623   C     0.50001   0.04248   0.74997   0.00000  Uiso   1.00
C624   C     0.49999   0.29085   0.75003   0.00000  Uiso   1.00
C625   C     0.65481   0.14151   0.72026   0.00000  Uiso   1.00
C626   C     0.34519   0.19183   0.77974   0.00000  Uiso   1.00
C627   C     0.36940   0.14149   0.72029   0.00000  Uiso   1.00
C628   C     0.63060   0.19184   0.77971   0.00000  Uiso   1.00
C629   C     0.46923   0.16617   0.83798   0.00000  Uiso   1.00
C630   C     0.53077   0.16716   0.66202   0.00000  Uiso   1.00
C631   C     0.44968   0.16735   0.88862   0.00000  Uiso   1.00
C632   C     0.50000   0.08664   0.74997   0.00000  Uiso   1.00
C633   C     0.55032   0.16599   0.61138   0.00000  Uiso   1.00
C634   C     0.39052   0.19151   0.96233   0.00000  Uiso   1.00
C635   C     0.60949   0.14184   0.53766   0.00000  Uiso   1.00
C636   C     0.40446   0.18584   0.91455   0.00000  Uiso   1.00
C637   C     0.59555   0.14750   0.58544   0.00000  Uiso   1.00
C638   C     0.47994   0.15355   0.91058   0.00000  Uiso   1.00
C639   C     0.52005   0.17978   0.58942   0.00000  Uiso   1.00
C640   C     0.47079   0.16588   0.95637   0.00000  Uiso   1.00
C641   C     0.52921   0.16744   0.54363   0.00000  Uiso   1.00
C642   C     0.42360   0.18211   0.98344   0.00000  Uiso   1.00
C643   C     0.44337   0.17992   0.55148   0.00000  Uiso   1.00
C644   C     0.57641   0.15123   0.51656   0.00000  Uiso   1.00
C645   C     0.50686   0.16262   0.97591   0.00000  Uiso   1.00
C646   C     0.49314   0.17070   0.52409   0.00000  Uiso   1.00
C647   C     0.55663   0.15340   0.94852   0.00000  Uiso   1.00
C648   C     0.40991   0.18771   0.53119   0.00000  Uiso   1.00
C649   C     0.59009   0.14562   0.96880   0.00000  Uiso   1.00
C650   C     0.53610   0.31204   0.75991   0.00000  Uiso   1.00
C651   C     0.46390   0.02129   0.74009   0.00000  Uiso   1.00
C652   C     0.53611   0.02133   0.75987   0.00000  Uiso   1.00
F653   F     0.36361   0.19967   0.55871   0.00000  Uiso   1.00
F654   F     0.63640   0.13366   0.94129   0.00000  Uiso   1.00
F655   F     0.48398   0.20747   0.61238   0.00000  Uiso   1.00
F656   F     0.51601   0.12584   0.88763   0.00000  Uiso   1.00
H657   H     0.61971   0.13723   0.60207   0.00000  Uiso   1.00
H658   H     0.43598   0.29575   0.73212   0.00000  Uiso   1.00
H659   H     0.64636   0.12140   0.69647   0.00000  Uiso   1.00
H660   H     0.35364   0.21193   0.80353   0.00000  Uiso   1.00
H661   H     0.39720   0.12132   0.69654   0.00000  Uiso   1.00
H662   H     0.60280   0.21201   0.80347   0.00000  Uiso   1.00
H663   H     0.38030   0.19612   0.89793   0.00000  Uiso   1.00
H664   H     0.35478   0.20474   0.98228   0.00000  Uiso   1.00
H665   H     0.64523   0.12861   0.51771   0.00000  Uiso   1.00
H666   H     0.42884   0.18068   0.58899   0.00000  Uiso   1.00
H667   H     0.57116   0.15263   0.91101   0.00000  Uiso   1.00
H668   H     0.56400   0.29582   0.76795   0.00000  Uiso   1.00
H669   H     0.43600   0.03752   0.73205   0.00000  Uiso   1.00
H670   H     0.56402   0.03758   0.76788   0.00000  Uiso   1.00
N671   N     0.38093   0.16668   0.75001   0.00000  Uiso   1.00
N672   N     0.61907   0.16666   0.74999   0.00000  Uiso   1.00
O673   O     0.46179   0.22775   0.75001   0.00000  Uiso   1.00
O674   O     0.53821   0.10558   0.75000   0.00000  Uiso   1.00
O675   O     0.53823   0.22774   0.75000   0.00000  Uiso   1.00
O676   O     0.46177   0.10559   0.75000   0.00000  Uiso   1.00
O677   O     0.43994   0.16667   0.81613   0.00000  Uiso   1.00
O678   O     0.56006   0.16666   0.68388   0.00000  Uiso   1.00
O679   O     0.51639   0.16666   0.81612   0.00000  Uiso   1.00
O680   O     0.48361   0.16667   0.68388   0.00000  Uiso   1.00
Zn681  Zn    0.44896   0.16667   0.75000   0.00000  Uiso   1.00
Zn682  Zn    0.55104   0.16666   0.75000   0.00000  Uiso   1.00
C683   C     0.83333   0.24670   0.75003   0.00000  Uiso   1.00
C684   C     0.79722   0.31201   0.74013   0.00000  Uiso   1.00
C685   C     0.83334   0.04248   0.74997   0.00000  Uiso   1.00
C686   C     0.83333   0.29085   0.75003   0.00000  Uiso   1.00
C687   C     0.98815   0.14151   0.72026   0.00000  Uiso   1.00
C688   C     0.67852   0.19183   0.77974   0.00000  Uiso   1.00
C689   C     0.70273   0.14149   0.72029   0.00000  Uiso   1.00
C690   C     0.96393   0.19184   0.77971   0.00000  Uiso   1.00
C691   C     0.80256   0.16617   0.83798   0.00000  Uiso   1.00
C692   C     0.86410   0.16716   0.66202   0.00000  Uiso   1.00
C693   C     0.78301   0.16735   0.88862   0.00000  Uiso   1.00
C694   C     0.83333   0.08664   0.74997   0.00000  Uiso   1.00
C695   C     0.88366   0.16599   0.61138   0.00000  Uiso   1.00
C696   C     0.72385   0.19151   0.96233   0.00000  Uiso   1.00
C697   C     0.94282   0.14184   0.53766   0.00000  Uiso   1.00
C698   C     0.73779   0.18584   0.91455   0.00000  Uiso   1.00
C699   C     0.92888   0.14750   0.58544   0.00000  Uiso   1.00
C700   C     0.81328   0.15355   0.91058   0.00000  Uiso   1.00
C701   C     0.85339   0.17978   0.58942   0.00000  Uiso   1.00
C702   C     0.80412   0.16588   0.95637   0.00000  Uiso   1.00
C703   C     0.86254   0.16744   0.54363   0.00000  Uiso   1.00
C704   C     0.75693   0.18211   0.98344   0.00000  Uiso   1.00
C705   C     0.77671   0.17992   0.55148   0.00000  Uiso   1.00
C706   C     0.90974   0.15123   0.51656   0.00000  Uiso   1.00
C707   C     0.84019   0.16262   0.97591   0.00000  Uiso   1.00
C708   C     0.82648   0.17070   0.52409   0.00000  Uiso   1.00
C709   C     0.88996   0.15340   0.94852   0.00000  Uiso   1.00
C710   C     0.74324   0.18771   0.53119   0.00000  Uiso   1.00
C711   C     0.92343   0.14562   0.96880   0.00000  Uiso   1.00
C712   C     0.86944   0.31204   0.75991   0.00000  Uiso   1.00
C713   C     0.79723   0.02129   0.74009   0.00000  Uiso   1.00
C714   C     0.86945   0.02133   0.75987   0.00000  Uiso   1.00
F715   F     0.69694   0.19967   0.55871   0.00000  Uiso   1.00
F716   F     0.96973   0.13366   0.94129   0.00000  Uiso   1.00
F717   F     0.81731   0.20747   0.61238   0.00000  Uiso   1.00
F718   F     0.84934   0.12584   0.88763   0.00000  Uiso   1.00
H719   H     0.95304   0.13723   0.60207   0.00000  Uiso   1.00
H720   H     0.76931   0.29575   0.73212   0.00000  Uiso   1.00
H721   H     0.97970   0.12140   0.69647   0.00000  Uiso   1.00
H722   H     0.68697   0.21193   0.80353   0.00000  Uiso   1.00
H723   H     0.73053   0.12132   0.69654   0.00000  Uiso   1.00
H724   H     0.93613   0.21201   0.80347   0.00000  Uiso   1.00
H725   H     0.71364   0.19612   0.89793   0.00000  Uiso   1.00
H726   H     0.68811   0.20474   0.98228   0.00000  Uiso   1.00
H727   H     0.97856   0.12861   0.51771   0.00000  Uiso   1.00
H728   H     0.76217   0.18068   0.58899   0.00000  Uiso   1.00
H729   H     0.90449   0.15263   0.91101   0.00000  Uiso   1.00
H730   H     0.89733   0.29582   0.76795   0.00000  Uiso   1.00
H731   H     0.76934   0.03752   0.73205   0.00000  Uiso   1.00
H732   H     0.89735   0.03758   0.76788   0.00000  Uiso   1.00
N733   N     0.71426   0.16668   0.75001   0.00000  Uiso   1.00
N734   N     0.95241   0.16666   0.74999   0.00000  Uiso   1.00
O735   O     0.79512   0.22775   0.75001   0.00000  Uiso   1.00
O736   O     0.87154   0.10558   0.75000   0.00000  Uiso   1.00
O737   O     0.87157   0.22774   0.75000   0.00000  Uiso   1.00
O738   O     0.79510   0.10559   0.75000   0.00000  Uiso   1.00
O739   O     0.77328   0.16667   0.81613   0.00000  Uiso   1.00
O740   O     0.89339   0.16666   0.68388   0.00000  Uiso   1.00
O741   O     0.84972   0.16666   0.81612   0.00000  Uiso   1.00
O742   O     0.81695   0.16667   0.68388   0.00000  Uiso   1.00
Zn743  Zn    0.78229   0.16667   0.75000   0.00000  Uiso   1.00
Zn744  Zn    0.88438   0.16666   0.75000   0.00000  Uiso   1.00
C745   C     0.16667   0.58003   0.75003   0.00000  Uiso   1.00
C746   C     0.13055   0.64534   0.74013   0.00000  Uiso   1.00
C747   C     0.16667   0.37582   0.74997   0.00000  Uiso   1.00
C748   C     0.16666   0.62418   0.75003   0.00000  Uiso   1.00
C749   C     0.32148   0.47484   0.72026   0.00000  Uiso   1.00
C750   C     0.01185   0.52516   0.77974   0.00000  Uiso   1.00
C751   C     0.03607   0.47483   0.72029   0.00000  Uiso   1.00
C752   C     0.29727   0.52517   0.77971   0.00000  Uiso   1.00
C753   C     0.13590   0.49950   0.83798   0.00000  Uiso   1.00
C754   C     0.19744   0.50050   0.66202   0.00000  Uiso   1.00
C755   C     0.11634   0.50068   0.88862   0.00000  Uiso   1.00
C756   C     0.16667   0.41997   0.74997   0.00000  Uiso   1.00
C757   C     0.21699   0.49932   0.61138   0.00000  Uiso   1.00
C758   C     0.05719   0.52484   0.96233   0.00000  Uiso   1.00
C759   C     0.27615   0.47517   0.53766   0.00000  Uiso   1.00
C760   C     0.07113   0.51918   0.91455   0.00000  Uiso   1.00
C761   C     0.26221   0.48083   0.58544   0.00000  Uiso   1.00
C762   C     0.14661   0.48688   0.91058   0.00000  Uiso   1.00
C763   C     0.18672   0.51311   0.58942   0.00000  Uiso   1.00
C764   C     0.13745   0.49921   0.95637   0.00000  Uiso   1.00
C765   C     0.19588   0.50078   0.54363   0.00000  Uiso   1.00
C766   C     0.09026   0.51544   0.98344   0.00000  Uiso   1.00
C767   C     0.11004   0.51326   0.55148   0.00000  Uiso   1.00
C768   C     0.24307   0.48456   0.51656   0.00000  Uiso   1.00
C769   C     0.17352   0.49595   0.97591   0.00000  Uiso   1.00
C770   C     0.15981   0.50403   0.52409   0.00000  Uiso   1.00
C771   C     0.22329   0.48673   0.94852   0.00000  Uiso   1.00
C772   C     0.07657   0.52104   0.53119   0.00000  Uiso   1.00
C773   C     0.25676   0.47895   0.96880   0.00000  Uiso   1.00
C774   C     0.20277   0.64537   0.75991   0.00000  Uiso   1.00
C775   C     0.13056   0.35463   0.74009   0.00000  Uiso   1.00
C776   C     0.20278   0.35466   0.75987   0.00000  Uiso   1.00
F777   F     0.03028   0.53301   0.55871   0.00000  Uiso   1.00
F778   F     0.30306   0.46700   0.94129   0.00000  Uiso   1.00
F779   F     0.15065   0.54081   0.61238   0.00000  Uiso   1.00
F780   F     0.18267   0.45918   0.88763   0.00000  Uiso   1.00
H781   H     0.28637   0.47057   0.60207   0.00000  Uiso   1.00
H782   H     0.10265   0.62909   0.73212   0.00000  Uiso   1.00
H783   H     0.31303   0.45473   0.69647   0.00000  Uiso   1.00
H784   H     0.02031   0.54527   0.80353   0.00000  Uiso   1.00
H785   H     0.06387   0.45466   0.69654   0.00000  Uiso   1.00
H786   H     0.26947   0.54534   0.80347   0.00000  Uiso   1.00
H787   H     0.04697   0.52946   0.89793   0.00000  Uiso   1.00
H788   H     0.02145   0.53808   0.98228   0.00000  Uiso   1.00
H789   H     0.31190   0.46194   0.51771   0.00000  Uiso   1.00
H790   H     0.09550   0.51402   0.58899   0.00000  Uiso   1.00
H791   H     0.23783   0.48597   0.91101   0.00000  Uiso   1.00
H792   H     0.23066   0.62915   0.76795   0.00000  Uiso   1.00
H793   H     0.10267   0.37085   0.73205   0.00000  Uiso   1.00
H794   H     0.23069   0.37091   0.76788   0.00000  Uiso   1.00
N795   N     0.04759   0.50001   0.75001   0.00000  Uiso   1.00
N796   N     0.28574   0.49999   0.74999   0.00000  Uiso   1.00
O797   O     0.12846   0.56108   0.75001   0.00000  Uiso   1.00
O798   O     0.20488   0.43892   0.75000   0.00000  Uiso   1.00
O799   O     0.20490   0.56107   0.75000   0.00000  Uiso   1.00
O800   O     0.12843   0.43893   0.75000   0.00000  Uiso   1.00
O801   O     0.10661   0.50001   0.81613   0.00000  Uiso   1.00
O802   O     0.22672   0.49999   0.68388   0.00000  Uiso   1.00
O803   O     0.18305   0.50000   0.81612   0.00000  Uiso   1.00
O804   O     0.15028   0.50000   0.68388   0.00000  Uiso   1.00
Zn805  Zn    0.11562   0.50001   0.75000   0.00000  Uiso   1.00
Zn806  Zn    0.21771   0.49999   0.75000   0.00000  Uiso   1.00
C807   C     0.50000   0.58003   0.75003   0.00000  Uiso   1.00
C808   C     0.46389   0.64534   0.74013   0.00000  Uiso   1.00
C809   C     0.50001   0.37582   0.74997   0.00000  Uiso   1.00
C810   C     0.49999   0.62418   0.75003   0.00000  Uiso   1.00
C811   C     0.65481   0.47484   0.72026   0.00000  Uiso   1.00
C812   C     0.34519   0.52516   0.77974   0.00000  Uiso   1.00
C813   C     0.36940   0.47483   0.72029   0.00000  Uiso   1.00
C814   C     0.63060   0.52517   0.77971   0.00000  Uiso   1.00
C815   C     0.46923   0.49950   0.83798   0.00000  Uiso   1.00
C816   C     0.53077   0.50050   0.66202   0.00000  Uiso   1.00
C817   C     0.44968   0.50068   0.88862   0.00000  Uiso   1.00
C818   C     0.50000   0.41997   0.74997   0.00000  Uiso   1.00
C819   C     0.55032   0.49932   0.61138   0.00000  Uiso   1.00
C820   C     0.39052   0.52484   0.96233   0.00000  Uiso   1.00
C821   C     0.60949   0.47517   0.53766   0.00000  Uiso   1.00
C822   C     0.40446   0.51918   0.91455   0.00000  Uiso   1.00
C823   C     0.59555   0.48083   0.58544   0.00000  Uiso   1.00
C824   C     0.47994   0.48688   0.91058   0.00000  Uiso   1.00
C825   C     0.52005   0.51311   0.58942   0.00000  Uiso   1.00
C826   C     0.47079   0.49921   0.95637   0.00000  Uiso   1.00
C827   C     0.52921   0.50078   0.54363   0.00000  Uiso   1.00
C828   C     0.42360   0.51544   0.98344   0.00000  Uiso   1.00
C829   C     0.44337   0.51326   0.55148   0.00000  Uiso   1.00
C830   C     0.57641   0.48456   0.51656   0.00000  Uiso   1.00
C831   C     0.50686   0.49595   0.97591   0.00000  Uiso   1.00
C832   C     0.49314   0.50403   0.52409   0.00000  Uiso   1.00
C833   C     0.55663   0.48673   0.94852   0.00000  Uiso   1.00
C834   C     0.40991   0.52104   0.53119   0.00000  Uiso   1.00
C835   C     0.59009   0.47895   0.96880   0.00000  Uiso   1.00
C836   C     0.53610   0.64537   0.75991   0.00000  Uiso   1.00
C837   C     0.46390   0.35463   0.74009   0.00000  Uiso   1.00
C838   C     0.53611   0.35466   0.75987   0.00000  Uiso   1.00
F839   F     0.36361   0.53301   0.55871   0.00000  Uiso   1.00
F840   F     0.63640   0.46700   0.94129   0.00000  Uiso   1.00
F841   F     0.48398   0.54081   0.61238   0.00000  Uiso   1.00
F842   F     0.51601   0.45918   0.88763   0.00000  Uiso   1.00
H843   H     0.61971   0.47057   0.60207   0.00000  Uiso   1.00
H844   H     0.43598   0.62909   0.73212   0.00000  Uiso   1.00
H845   H     0.64636   0.45473   0.69647   0.00000  Uiso   1.00
H846   H     0.35364   0.54527   0.80353   0.00000  Uiso   1.00
H847   H     0.39720   0.45466   0.69654   0.00000  Uiso   1.00
H848   H     0.60280   0.54534   0.80347   0.00000  Uiso   1.00
H849   H     0.38030   0.52946   0.89793   0.00000  Uiso   1.00
H850   H     0.35478   0.53808   0.98228   0.00000  Uiso   1.00
H851   H     0.64523   0.46194   0.51771   0.00000  Uiso   1.00
H852   H     0.42884   0.51402   0.58899   0.00000  Uiso   1.00
H853   H     0.57116   0.48597   0.91101   0.00000  Uiso   1.00
H854   H     0.56400   0.62915   0.76795   0.00000  Uiso   1.00
H855   H     0.43600   0.37085   0.73205   0.00000  Uiso   1.00
H856   H     0.56402   0.37091   0.76788   0.00000  Uiso   1.00
N857   N     0.38093   0.50001   0.75001   0.00000  Uiso   1.00
N858   N     0.61907   0.49999   0.74999   0.00000  Uiso   1.00
O859   O     0.46179   0.56108   0.75001   0.00000  Uiso   1.00
O860   O     0.53821   0.43892   0.75000   0.00000  Uiso   1.00
O861   O     0.53823   0.56107   0.75000   0.00000  Uiso   1.00
O862   O     0.46177   0.43893   0.75000   0.00000  Uiso   1.00
O863   O     0.43994   0.50001   0.81613   0.00000  Uiso   1.00
O864   O     0.56006   0.49999   0.68388   0.00000  Uiso   1.00
O865   O     0.51639   0.50000   0.81612   0.00000  Uiso   1.00
O866   O     0.48361   0.50000   0.68388   0.00000  Uiso   1.00
Zn867  Zn    0.44896   0.50001   0.75000   0.00000  Uiso   1.00
Zn868  Zn    0.55104   0.49999   0.75000   0.00000  Uiso   1.00
C869   C     0.83333   0.58003   0.75003   0.00000  Uiso   1.00
C870   C     0.79722   0.64534   0.74013   0.00000  Uiso   1.00
C871   C     0.83334   0.37582   0.74997   0.00000  Uiso   1.00
C872   C     0.83333   0.62418   0.75003   0.00000  Uiso   1.00
C873   C     0.98815   0.47484   0.72026   0.00000  Uiso   1.00
C874   C     0.67852   0.52516   0.77974   0.00000  Uiso   1.00
C875   C     0.70273   0.47483   0.72029   0.00000  Uiso   1.00
C876   C     0.96393   0.52517   0.77971   0.00000  Uiso   1.00
C877   C     0.80256   0.49950   0.83798   0.00000  Uiso   1.00
C878   C     0.86410   0.50050   0.66202   0.00000  Uiso   1.00
C879   C     0.78301   0.50068   0.88862   0.00000  Uiso   1.00
C880   C     0.83333   0.41997   0.74997   0.00000  Uiso   1.00
C881   C     0.88366   0.49932   0.61138   0.00000  Uiso   1.00
C882   C     0.72385   0.52484   0.96233   0.00000  Uiso   1.00
C883   C     0.94282   0.47517   0.53766   0.00000  Uiso   1.00
C884   C     0.73779   0.51918   0.91455   0.00000  Uiso   1.00
C885   C     0.92888   0.48083   0.58544   0.00000  Uiso   1.00
C886   C     0.81328   0.48688   0.91058   0.00000  Uiso   1.00
C887   C     0.85339   0.51311   0.58942   0.00000  Uiso   1.00
C888   C     0.80412   0.49921   0.95637   0.00000  Uiso   1.00
C889   C     0.86254   0.50078   0.54363   0.00000  Uiso   1.00
C890   C     0.75693   0.51544   0.98344   0.00000  Uiso   1.00
C891   C     0.77671   0.51326   0.55148   0.00000  Uiso   1.00
C892   C     0.90974   0.48456   0.51656   0.00000  Uiso   1.00
C893   C     0.84019   0.49595   0.97591   0.00000  Uiso   1.00
C894   C     0.82648   0.50403   0.52409   0.00000  Uiso   1.00
C895   C     0.88996   0.48673   0.94852   0.00000  Uiso   1.00
C896   C     0.74324   0.52104   0.53119   0.00000  Uiso   1.00
C897   C     0.92343   0.47895   0.96880   0.00000  Uiso   1.00
C898   C     0.86944   0.64537   0.75991   0.00000  Uiso   1.00
C899   C     0.79723   0.35463   0.74009   0.00000  Uiso   1.00
C900   C     0.86945   0.35466   0.75987   0.00000  Uiso   1.00
F901   F     0.69694   0.53301   0.55871   0.00000  Uiso   1.00
F902   F     0.96973   0.46700   0.94129   0.00000  Uiso   1.00
F903   F     0.81731   0.54081   0.61238   0.00000  Uiso   1.00
F904   F     0.84934   0.45918   0.88763   0.00000  Uiso   1.00
H905   H     0.95304   0.47057   0.60207   0.00000  Uiso   1.00
H906   H     0.76931   0.62909   0.73212   0.00000  Uiso   1.00
H907   H     0.97970   0.45473   0.69647   0.00000  Uiso   1.00
H908   H     0.68697   0.54527   0.80353   0.00000  Uiso   1.00
H909   H     0.73053   0.45466   0.69654   0.00000  Uiso   1.00
H910   H     0.93613   0.54534   0.80347   0.00000  Uiso   1.00
H911   H     0.71364   0.52946   0.89793   0.00000  Uiso   1.00
H912   H     0.68811   0.53808   0.98228   0.00000  Uiso   1.00
H913   H     0.97856   0.46194   0.51771   0.00000  Uiso   1.00
H914   H     0.76217   0.51402   0.58899   0.00000  Uiso   1.00
H915   H     0.90449   0.48597   0.91101   0.00000  Uiso   1.00
H916   H     0.89733   0.62915   0.76795   0.00000  Uiso   1.00
H917   H     0.76934   0.37085   0.73205   0.00000  Uiso   1.00
H918   H     0.89735   0.37091   0.76788   0.00000  Uiso   1.00
N919   N     0.71426   0.50001   0.75001   0.00000  Uiso   1.00
N920   N     0.95241   0.49999   0.74999   0.00000  Uiso   1.00
O921   O     0.79512   0.56108   0.75001   0.00000  Uiso   1.00
O922   O     0.87154   0.43892   0.75000   0.00000  Uiso   1.00
O923   O     0.87157   0.56107   0.75000   0.00000  Uiso   1.00
O924   O     0.79510   0.43893   0.75000   0.00000  Uiso   1.00
O925   O     0.77328   0.50001   0.81613   0.00000  Uiso   1.00
O926   O     0.89339   0.49999   0.68388   0.00000  Uiso   1.00
O927   O     0.84972   0.50000   0.81612   0.00000  Uiso   1.00
O928   O     0.81695   0.50000   0.68388   0.00000  Uiso   1.00
Zn929  Zn    0.78229   0.50001   0.75000   0.00000  Uiso   1.00
Zn930  Zn    0.88438   0.49999   0.75000   0.00000  Uiso   1.00
C931   C     0.16667   0.91336   0.75003   0.00000  Uiso   1.00
C932   C     0.13055   0.97867   0.74013   0.00000  Uiso   1.00
C933   C     0.16667   0.70915   0.74997   0.00000  Uiso   1.00
C934   C     0.16666   0.95752   0.75003   0.00000  Uiso   1.00
C935   C     0.32148   0.80817   0.72026   0.00000  Uiso   1.00
C936   C     0.01185   0.85849   0.77974   0.00000  Uiso   1.00
C937   C     0.03607   0.80816   0.72029   0.00000  Uiso   1.00
C938   C     0.29727   0.85851   0.77971   0.00000  Uiso   1.00
C939   C     0.13590   0.83284   0.83798   0.00000  Uiso   1.00
C940   C     0.19744   0.83383   0.66202   0.00000  Uiso   1.00
C941   C     0.11634   0.83401   0.88862   0.00000  Uiso   1.00
C942   C     0.16667   0.75330   0.74997   0.00000  Uiso   1.00
C943   C     0.21699   0.83265   0.61138   0.00000  Uiso   1.00
C944   C     0.05719   0.85817   0.96233   0.00000  Uiso   1.00
C945   C     0.27615   0.80850   0.53766   0.00000  Uiso   1.00
C946   C     0.07113   0.85251   0.91455   0.00000  Uiso   1.00
C947   C     0.26221   0.81417   0.58544   0.00000  Uiso   1.00
C948   C     0.14661   0.82021   0.91058   0.00000  Uiso   1.00
C949   C     0.18672   0.84644   0.58942   0.00000  Uiso   1.00
C950   C     0.13745   0.83255   0.95637   0.00000  Uiso   1.00
C951   C     0.19588   0.83411   0.54363   0.00000  Uiso   1.00
C952   C     0.09026   0.84877   0.98344   0.00000  Uiso   1.00
C953   C     0.11004   0.84659   0.55148   0.00000  Uiso   1.00
C954   C     0.24307   0.81789   0.51656   0.00000  Uiso   1.00
C955   C     0.17352   0.82929   0.97591   0.00000  Uiso   1.00
C956   C     0.15981   0.83737   0.52409   0.00000  Uiso   1.00
C957   C     0.22329   0.82007   0.94852   0.00000  Uiso   1.00
C958   C     0.07657   0.85438   0.53119   0.00000  Uiso   1.00
C959   C     0.25676   0.81229   0.96880   0.00000  Uiso   1.00
C960   C     0.20277   0.97871   0.75991   0.00000  Uiso   1.00
C961   C     0.13056   0.68796   0.74009   0.00000  Uiso   1.00
C962   C     0.20278   0.68799   0.75987   0.00000  Uiso   1.00
F963   F     0.03028   0.86634   0.55871   0.00000  Uiso   1.00
F964   F     0.30306   0.80033   0.94129   0.00000  Uiso   1.00
F965   F     0.15065   0.87414   0.61238   0.00000  Uiso   1.00
F966   F     0.18267   0.79251   0.88763   0.00000  Uiso   1.00
H967   H     0.28637   0.80390   0.60207   0.00000  Uiso   1.00
H968   H     0.10265   0.96242   0.73212   0.00000  Uiso   1.00
H969   H     0.31303   0.78807   0.69647   0.00000  Uiso   1.00
H970   H     0.02031   0.87860   0.80353   0.00000  Uiso   1.00
H971   H     0.06387   0.78799   0.69654   0.00000  Uiso   1.00
H972   H     0.26947   0.87868   0.80347   0.00000  Uiso   1.00
H973   H     0.04697   0.86279   0.89793   0.00000  Uiso   1.00
H974   H     0.02145   0.87141   0.98228   0.00000  Uiso   1.00
H975   H     0.31190   0.79527   0.51771   0.00000  Uiso   1.00
H976   H     0.09550   0.84735   0.58899   0.00000  Uiso   1.00
H977   H     0.23783   0.81930   0.91101   0.00000  Uiso   1.00
H978   H     0.23066   0.96248   0.76795   0.00000  Uiso   1.00
H979   H     0.10267   0.70418   0.73205   0.00000  Uiso   1.00
H980   H     0.23069   0.70425   0.76788   0.00000  Uiso   1.00
N981   N     0.04759   0.83334   0.75001   0.00000  Uiso   1.00
N982   N     0.28574   0.83332   0.74999   0.00000  Uiso   1.00
O983   O     0.12846   0.89442   0.75001   0.00000  Uiso   1.00
O984   O     0.20488   0.77225   0.75000   0.00000  Uiso   1.00
O985   O     0.20490   0.89441   0.75000   0.00000  Uiso   1.00
O986   O     0.12843   0.77226   0.75000   0.00000  Uiso   1.00
O987   O     0.10661   0.83334   0.81613   0.00000  Uiso   1.00
O988   O     0.22672   0.83333   0.68388   0.00000  Uiso   1.00
O989   O     0.18305   0.83333   0.81612   0.00000  Uiso   1.00
O990   O     0.15028   0.83334   0.68388   0.00000  Uiso   1.00
Zn991  Zn    0.11562   0.83334   0.75000   0.00000  Uiso   1.00
Zn992  Zn    0.21771   0.83333   0.75000   0.00000  Uiso   1.00
C993   C     0.50000   0.91336   0.75003   0.00000  Uiso   1.00
C994   C     0.46389   0.97867   0.74013   0.00000  Uiso   1.00
C995   C     0.50001   0.70915   0.74997   0.00000  Uiso   1.00
C996   C     0.49999   0.95752   0.75003   0.00000  Uiso   1.00
C997   C     0.65481   0.80817   0.72026   0.00000  Uiso   1.00
C998   C     0.34519   0.85849   0.77974   0.00000  Uiso   1.00
C999   C     0.36940   0.80816   0.72029   0.00000  Uiso   1.00
C1000  C     0.63060   0.85851   0.77971   0.00000  Uiso   1.00
C1001  C     0.46923   0.83284   0.83798   0.00000  Uiso   1.00
C1002  C     0.53077   0.83383   0.66202   0.00000  Uiso   1.00
C1003  C     0.44968   0.83401   0.88862   0.00000  Uiso   1.00
C1004  C     0.50000   0.75330   0.74997   0.00000  Uiso   1.00
C1005  C     0.55032   0.83265   0.61138   0.00000  Uiso   1.00
C1006  C     0.39052   0.85817   0.96233   0.00000  Uiso   1.00
C1007  C     0.60949   0.80850   0.53766   0.00000  Uiso   1.00
C1008  C     0.40446   0.85251   0.91455   0.00000  Uiso   1.00
C1009  C     0.59555   0.81417   0.58544   0.00000  Uiso   1.00
C1010  C     0.47994   0.82021   0.91058   0.00000  Uiso   1.00
C1011  C     0.52005   0.84644   0.58942   0.00000  Uiso   1.00
C1012  C     0.47079   0.83255   0.95637   0.00000  Uiso   1.00
C1013  C     0.52921   0.83411   0.54363   0.00000  Uiso   1.00
C1014  C     0.42360   0.84877   0.98344   0.00000  Uiso   1.00
C1015  C     0.44337   0.84659   0.55148   0.00000  Uiso   1.00
C1016  C     0.57641   0.81789   0.51656   0.00000  Uiso   1.00
C1017  C     0.50686   0.82929   0.97591   0.00000  Uiso   1.00
C1018  C     0.49314   0.83737   0.52409   0.00000  Uiso   1.00
C1019  C     0.55663   0.82007   0.94852   0.00000  Uiso   1.00
C1020  C     0.40991   0.85438   0.53119   0.00000  Uiso   1.00
C1021  C     0.59009   0.81229   0.96880   0.00000  Uiso   1.00
C1022  C     0.53610   0.97871   0.75991   0.00000  Uiso   1.00
C1023  C     0.46390   0.68796   0.74009   0.00000  Uiso   1.00
C1024  C     0.53611   0.68799   0.75987   0.00000  Uiso   1.00
F1025  F     0.36361   0.86634   0.55871   0.00000  Uiso   1.00
F1026  F     0.63640   0.80033   0.94129   0.00000  Uiso   1.00
F1027  F     0.48398   0.87414   0.61238   0.00000  Uiso   1.00
F1028  F     0.51601   0.79251   0.88763   0.00000  Uiso   1.00
H1029  H     0.61971   0.80390   0.60207   0.00000  Uiso   1.00
H1030  H     0.43598   0.96242   0.73212   0.00000  Uiso   1.00
H1031  H     0.64636   0.78807   0.69647   0.00000  Uiso   1.00
H1032  H     0.35364   0.87860   0.80353   0.00000  Uiso   1.00
H1033  H     0.39720   0.78799   0.69654   0.00000  Uiso   1.00
H1034  H     0.60280   0.87868   0.80347   0.00000  Uiso   1.00
H1035  H     0.38030   0.86279   0.89793   0.00000  Uiso   1.00
H1036  H     0.35478   0.87141   0.98228   0.00000  Uiso   1.00
H1037  H     0.64523   0.79527   0.51771   0.00000  Uiso   1.00
H1038  H     0.42884   0.84735   0.58899   0.00000  Uiso   1.00
H1039  H     0.57116   0.81930   0.91101   0.00000  Uiso   1.00
H1040  H     0.56400   0.96248   0.76795   0.00000  Uiso   1.00
H1041  H     0.43600   0.70418   0.73205   0.00000  Uiso   1.00
H1042  H     0.56402   0.70425   0.76788   0.00000  Uiso   1.00
N1043  N     0.38093   0.83334   0.75001   0.00000  Uiso   1.00
N1044  N     0.61907   0.83332   0.74999   0.00000  Uiso   1.00
O1045  O     0.46179   0.89442   0.75001   0.00000  Uiso   1.00
O1046  O     0.53821   0.77225   0.75000   0.00000  Uiso   1.00
O1047  O     0.53823   0.89441   0.75000   0.00000  Uiso   1.00
O1048  O     0.46177   0.77226   0.75000   0.00000  Uiso   1.00
O1049  O     0.43994   0.83334   0.81613   0.00000  Uiso   1.00
O1050  O     0.56006   0.83333   0.68388   0.00000  Uiso   1.00
O1051  O     0.51639   0.83333   0.81612   0.00000  Uiso   1.00
O1052  O     0.48361   0.83334   0.68388   0.00000  Uiso   1.00
Zn1053 Zn    0.44896   0.83334   0.75000   0.00000  Uiso   1.00
Zn1054 Zn    0.55104   0.83333   0.75000   0.00000  Uiso   1.00
C1055  C     0.83333   0.91336   0.75003   0.00000  Uiso   1.00
C1056  C     0.79722   0.97867   0.74013   0.00000  Uiso   1.00
C1057  C     0.83334   0.70915   0.74997   0.00000  Uiso   1.00
C1058  C     0.83333   0.95752   0.75003   0.00000  Uiso   1.00
C1059  C     0.98815   0.80817   0.72026   0.00000  Uiso   1.00
C1060  C     0.67852   0.85849   0.77974   0.00000  Uiso   1.00
C1061  C     0.70273   0.80816   0.72029   0.00000  Uiso   1.00
C1062  C     0.96393   0.85851   0.77971   0.00000  Uiso   1.00
C1063  C     0.80256   0.83284   0.83798   0.00000  Uiso   1.00
C1064  C     0.86410   0.83383   0.66202   0.00000  Uiso   1.00
C1065  C     0.78301   0.83401   0.88862   0.00000  Uiso   1.00
C1066  C     0.83333   0.75330   0.74997   0.00000  Uiso   1.00
C1067  C     0.88366   0.83265   0.61138   0.00000  Uiso   1.00
C1068  C     0.72385   0.85817   0.96233   0.00000  Uiso   1.00
C1069  C     0.94282   0.80850   0.53766   0.00000  Uiso   1.00
C1070  C     0.73779   0.85251   0.91455   0.00000  Uiso   1.00
C1071  C     0.92888   0.81417   0.58544   0.00000  Uiso   1.00
C1072  C     0.81328   0.82021   0.91058   0.00000  Uiso   1.00
C1073  C     0.85339   0.84644   0.58942   0.00000  Uiso   1.00
C1074  C     0.80412   0.83255   0.95637   0.00000  Uiso   1.00
C1075  C     0.86254   0.83411   0.54363   0.00000  Uiso   1.00
C1076  C     0.75693   0.84877   0.98344   0.00000  Uiso   1.00
C1077  C     0.77671   0.84659   0.55148   0.00000  Uiso   1.00
C1078  C     0.90974   0.81789   0.51656   0.00000  Uiso   1.00
C1079  C     0.84019   0.82929   0.97591   0.00000  Uiso   1.00
C1080  C     0.82648   0.83737   0.52409   0.00000  Uiso   1.00
C1081  C     0.88996   0.82007   0.94852   0.00000  Uiso   1.00
C1082  C     0.74324   0.85438   0.53119   0.00000  Uiso   1.00
C1083  C     0.92343   0.81229   0.96880   0.00000  Uiso   1.00
C1084  C     0.86944   0.97871   0.75991   0.00000  Uiso   1.00
C1085  C     0.79723   0.68796   0.74009   0.00000  Uiso   1.00
C1086  C     0.86945   0.68799   0.75987   0.00000  Uiso   1.00
F1087  F     0.69694   0.86634   0.55871   0.00000  Uiso   1.00
F1088  F     0.96973   0.80033   0.94129   0.00000  Uiso   1.00
F1089  F     0.81731   0.87414   0.61238   0.00000  Uiso   1.00
F1090  F     0.84934   0.79251   0.88763   0.00000  Uiso   1.00
H1091  H     0.95304   0.80390   0.60207   0.00000  Uiso   1.00
H1092  H     0.76931   0.96242   0.73212   0.00000  Uiso   1.00
H1093  H     0.97970   0.78807   0.69647   0.00000  Uiso   1.00
H1094  H     0.68697   0.87860   0.80353   0.00000  Uiso   1.00
H1095  H     0.73053   0.78799   0.69654   0.00000  Uiso   1.00
H1096  H     0.93613   0.87868   0.80347   0.00000  Uiso   1.00
H1097  H     0.71364   0.86279   0.89793   0.00000  Uiso   1.00
H1098  H     0.68811   0.87141   0.98228   0.00000  Uiso   1.00
H1099  H     0.97856   0.79527   0.51771   0.00000  Uiso   1.00
H1100  H     0.76217   0.84735   0.58899   0.00000  Uiso   1.00
H1101  H     0.90449   0.81930   0.91101   0.00000  Uiso   1.00
H1102  H     0.89733   0.96248   0.76795   0.00000  Uiso   1.00
H1103  H     0.76934   0.70418   0.73205   0.00000  Uiso   1.00
H1104  H     0.89735   0.70425   0.76788   0.00000  Uiso   1.00
N1105  N     0.71426   0.83334   0.75001   0.00000  Uiso   1.00
N1106  N     0.95241   0.83332   0.74999   0.00000  Uiso   1.00
O1107  O     0.79512   0.89442   0.75001   0.00000  Uiso   1.00
O1108  O     0.87154   0.77225   0.75000   0.00000  Uiso   1.00
O1109  O     0.87157   0.89441   0.75000   0.00000  Uiso   1.00
O1110  O     0.79510   0.77226   0.75000   0.00000  Uiso   1.00
O1111  O     0.77328   0.83334   0.81613   0.00000  Uiso   1.00
O1112  O     0.89339   0.83333   0.68388   0.00000  Uiso   1.00
O1113  O     0.84972   0.83333   0.81612   0.00000  Uiso   1.00
O1114  O     0.81695   0.83334   0.68388   0.00000  Uiso   1.00
Zn1115 Zn    0.78229   0.83334   0.75000   0.00000  Uiso   1.00
Zn1116 Zn    0.88438   0.83333   0.75000   0.00000  Uiso   1.00
loop_
_geom_bond_atom_site_label_1
_geom_bond_atom_site_label_2
_geom_bond_distance
_geom_bond_site_symmetry_2
_ccdc_geom_bond_type
C1     C4      1.419   .     S
C1     O53     1.284   .     A
C1     O55     1.284   .     A
C2     C4      1.397   .     A
C2     H38     1.084   .     S
C2     C217    1.370   .     S
C3     C31     1.397   .     A
C3     C32     1.397   .     A
C3     C12     1.419   .     S
C4     C30     1.397   .     A
C5     N52     1.366   .     A
C5     H39     1.082   .     S
C5     C69     1.417   .     S
C6     N51     1.366   .     A
C6     H40     1.082   .     S
C6     C132    1.417   1_455 S
C7     H41     1.082   .     S
C7     N51     1.367   .     A
C7     C129    1.417   1_455 S
C8     N52     1.367   .     A
C8     H42     1.082   .     S
C8     C68     1.417   .     S
C9     O59     1.293   .     A
C9     C11     1.454   .     S
C9     O57     1.292   .     A
C10    O60     1.293   .     A
C10    O58     1.292   .     A
C10    C13     1.454   .     S
C11    C16     1.398   .     A
C11    C18     1.392   .     A
C12    O56     1.284   .     A
C12    O54     1.284   .     A
C13    C17     1.398   .     A
C13    C19     1.392   .     A
C14    C22     1.406   .     A
C14    C16     1.392   .     A
C14    H44     1.083   .     S
C15    C24     1.406   .     A
C15    H45     1.083   .     S
C15    C17     1.392   .     A
C16    H43     1.083   .     S
C17    H37     1.083   .     S
C18    C20     1.400   .     A
C18    F36     1.359   .     S
C19    F35     1.360   .     S
C19    C21     1.400   .     A
C20    C22     1.420   .     A
C20    C25     1.421   .     A
C21    C26     1.421   .     A
C21    C24     1.420   .     A
C22    C586    1.392   .     S
C23    H46     1.077   .     S
C23    C28     1.387   .     A
C23    C26     1.417   .     A
C24    C587    1.392   1_554 S
C25    C27     1.417   .     A
C25    C584    1.417   .     S
C26    C583    1.417   1_554 S
C27    C29     1.387   .     A
C27    H47     1.077   .     S
C28    F33     1.358   .     S
C28    C580    1.392   1_554 S
C29    F34     1.358   .     S
C29    C582    1.392   .     S
C30    H48     1.084   .     S
C30    C218    1.370   .     S
C31    H49     1.084   .     S
C31    C374    1.370   1_545 S
C32    H50     1.084   .     S
C32    C402    1.370   1_545 S
N51    Zn61    2.011   .     S
N52    Zn62    2.011   .     S
O53    Zn61    2.000   .     S
O54    Zn62    2.000   .     S
O55    Zn62    2.000   .     S
O56    Zn61    2.000   .     S
O57    Zn61    1.970   .     S
O58    Zn62    1.970   .     S
O59    Zn62    1.911   .     S
O60    Zn61    1.911   .     S
C63    C66     1.419   .     S
C63    O115    1.284   .     A
C63    O117    1.284   .     A
C64    C66     1.397   .     A
C64    H100    1.084   .     S
C64    C279    1.370   .     S
C65    C93     1.397   .     A
C65    C94     1.397   .     A
C65    C74     1.419   .     S
C66    C92     1.397   .     A
C67    N114    1.366   .     A
C67    H101    1.082   .     S
C67    C131    1.417   .     S
C68    N113    1.366   .     A
C68    H102    1.082   .     S
C69    H103    1.082   .     S
C69    N113    1.367   .     A
C70    N114    1.367   .     A
C70    H104    1.082   .     S
C70    C130    1.417   .     S
C71    O121    1.293   .     A
C71    C73     1.454   .     S
C71    O119    1.292   .     A
C72    O122    1.293   .     A
C72    O120    1.292   .     A
C72    C75     1.454   .     S
C73    C78     1.398   .     A
C73    C80     1.392   .     A
C74    O118    1.284   .     A
C74    O116    1.284   .     A
C75    C79     1.398   .     A
C75    C81     1.392   .     A
C76    C84     1.406   .     A
C76    C78     1.392   .     A
C76    H106    1.083   .     S
C77    C86     1.406   .     A
C77    H107    1.083   .     S
C77    C79     1.392   .     A
C78    H105    1.083   .     S
C79    H99     1.083   .     S
C80    C82     1.400   .     A
C80    F98     1.359   .     S
C81    F97     1.360   .     S
C81    C83     1.400   .     A
C82    C84     1.420   .     A
C82    C87     1.421   .     A
C83    C88     1.421   .     A
C83    C86     1.420   .     A
C84    C648    1.392   .     S
C85    H108    1.077   .     S
C85    C90     1.387   .     A
C85    C88     1.417   .     A
C86    C649    1.392   1_554 S
C87    C89     1.417   .     A
C87    C646    1.417   .     S
C88    C645    1.417   1_554 S
C89    C91     1.387   .     A
C89    H109    1.077   .     S
C90    F95     1.358   .     S
C90    C642    1.392   1_554 S
C91    F96     1.358   .     S
C91    C644    1.392   .     S
C92    H110    1.084   .     S
C92    C280    1.370   .     S
C93    H111    1.084   .     S
C93    C436    1.370   1_545 S
C94    H112    1.084   .     S
C94    C464    1.370   1_545 S
N113   Zn123   2.011   .     S
N114   Zn124   2.011   .     S
O115   Zn123   2.000   .     S
O116   Zn124   2.000   .     S
O117   Zn124   2.000   .     S
O118   Zn123   2.000   .     S
O119   Zn123   1.970   .     S
O120   Zn124   1.970   .     S
O121   Zn124   1.911   .     S
O122   Zn123   1.911   .     S
C125   C128    1.419   .     S
C125   O177    1.284   .     A
C125   O179    1.284   .     A
C126   C128    1.397   .     A
C126   H162    1.084   .     S
C126   C341    1.370   .     S
C127   C155    1.397   .     A
C127   C156    1.397   .     A
C127   C136    1.419   .     S
C128   C154    1.397   .     A
C129   N176    1.366   .     A
C129   H163    1.082   .     S
C129   C7      1.417   1_655 S
C130   N175    1.366   .     A
C130   H164    1.082   .     S
C131   H165    1.082   .     S
C131   N175    1.367   .     A
C132   N176    1.367   .     A
C132   H166    1.082   .     S
C132   C6      1.417   1_655 S
C133   O183    1.293   .     A
C133   C135    1.454   .     S
C133   O181    1.292   .     A
C134   O184    1.293   .     A
C134   O182    1.292   .     A
C134   C137    1.454   .     S
C135   C140    1.398   .     A
C135   C142    1.392   .     A
C136   O180    1.284   .     A
C136   O178    1.284   .     A
C137   C141    1.398   .     A
C137   C143    1.392   .     A
C138   C146    1.406   .     A
C138   C140    1.392   .     A
C138   H168    1.083   .     S
C139   C148    1.406   .     A
C139   H169    1.083   .     S
C139   C141    1.392   .     A
C140   H167    1.083   .     S
C141   H161    1.083   .     S
C142   C144    1.400   .     A
C142   F160    1.359   .     S
C143   F159    1.360   .     S
C143   C145    1.400   .     A
C144   C146    1.420   .     A
C144   C149    1.421   .     A
C145   C150    1.421   .     A
C145   C148    1.420   .     A
C146   C710    1.392   .     S
C147   H170    1.077   .     S
C147   C152    1.387   .     A
C147   C150    1.417   .     A
C148   C711    1.392   1_554 S
C149   C151    1.417   .     A
C149   C708    1.417   .     S
C150   C707    1.417   1_554 S
C151   C153    1.387   .     A
C151   H171    1.077   .     S
C152   F157    1.358   .     S
C152   C704    1.392   1_554 S
C153   F158    1.358   .     S
C153   C706    1.392   .     S
C154   H172    1.084   .     S
C154   C342    1.370   .     S
C155   H173    1.084   .     S
C155   C498    1.370   1_545 S
C156   H174    1.084   .     S
C156   C526    1.370   1_545 S
N175   Zn185   2.011   .     S
N176   Zn186   2.011   .     S
O177   Zn185   2.000   .     S
O178   Zn186   2.000   .     S
O179   Zn186   2.000   .     S
O180   Zn185   2.000   .     S
O181   Zn185   1.970   .     S
O182   Zn186   1.970   .     S
O183   Zn186   1.911   .     S
O184   Zn185   1.911   .     S
C187   C190    1.419   .     S
C187   O239    1.284   .     A
C187   O241    1.284   .     A
C188   C190    1.397   .     A
C188   H224    1.084   .     S
C188   C403    1.370   .     S
C189   C217    1.397   .     A
C189   C218    1.397   .     A
C189   C198    1.419   .     S
C190   C216    1.397   .     A
C191   N238    1.366   .     A
C191   H225    1.082   .     S
C191   C255    1.417   .     S
C192   N237    1.366   .     A
C192   H226    1.082   .     S
C192   C318    1.417   1_455 S
C193   H227    1.082   .     S
C193   N237    1.367   .     A
C193   C315    1.417   1_455 S
C194   N238    1.367   .     A
C194   H228    1.082   .     S
C194   C254    1.417   .     S
C195   O245    1.293   .     A
C195   C197    1.454   .     S
C195   O243    1.292   .     A
C196   O246    1.293   .     A
C196   O244    1.292   .     A
C196   C199    1.454   .     S
C197   C202    1.398   .     A
C197   C204    1.392   .     A
C198   O242    1.284   .     A
C198   O240    1.284   .     A
C199   C203    1.398   .     A
C199   C205    1.392   .     A
C200   C208    1.406   .     A
C200   C202    1.392   .     A
C200   H230    1.083   .     S
C201   C210    1.406   .     A
C201   H231    1.083   .     S
C201   C203    1.392   .     A
C202   H229    1.083   .     S
C203   H223    1.083   .     S
C204   C206    1.400   .     A
C204   F222    1.359   .     S
C205   F221    1.360   .     S
C205   C207    1.400   .     A
C206   C208    1.420   .     A
C206   C211    1.421   .     A
C207   C212    1.421   .     A
C207   C210    1.420   .     A
C208   C772    1.392   .     S
C209   H232    1.077   .     S
C209   C214    1.387   .     A
C209   C212    1.417   .     A
C210   C773    1.392   1_554 S
C211   C213    1.417   .     A
C211   C770    1.417   .     S
C212   C769    1.417   1_554 S
C213   C215    1.387   .     A
C213   H233    1.077   .     S
C214   F219    1.358   .     S
C214   C766    1.392   1_554 S
C215   F220    1.358   .     S
C215   C768    1.392   .     S
C216   H234    1.084   .     S
C216   C404    1.370   .     S
C217   H235    1.084   .     S
C218   H236    1.084   .     S
N237   Zn247   2.011   .     S
N238   Zn248   2.011   .     S
O239   Zn247   2.000   .     S
O240   Zn248   2.000   .     S
O241   Zn248   2.000   .     S
O242   Zn247   2.000   .     S
O243   Zn247   1.970   .     S
O244   Zn248   1.970   .     S
O245   Zn248   1.911   .     S
O246   Zn247   1.911   .     S
C249   C252    1.419   .     S
C249   O301    1.284   .     A
C249   O303    1.284   .     A
C250   C252    1.397   .     A
C250   H286    1.084   .     S
C250   C465    1.370   .     S
C251   C279    1.397   .     A
C251   C280    1.397   .     A
C251   C260    1.419   .     S
C252   C278    1.397   .     A
C253   N300    1.366   .     A
C253   H287    1.082   .     S
C253   C317    1.417   .     S
C254   N299    1.366   .     A
C254   H288    1.082   .     S
C255   H289    1.082   .     S
C255   N299    1.367   .     A
C256   N300    1.367   .     A
C256   H290    1.082   .     S
C256   C316    1.417   .     S
C257   O307    1.293   .     A
C257   C259    1.454   .     S
C257   O305    1.292   .     A
C258   O308    1.293   .     A
C258   O306    1.292   .     A
C258   C261    1.454   .     S
C259   C264    1.398   .     A
C259   C266    1.392   .     A
C260   O304    1.284   .     A
C260   O302    1.284   .     A
C261   C265    1.398   .     A
C261   C267    1.392   .     A
C262   C270    1.406   .     A
C262   C264    1.392   .     A
C262   H292    1.083   .     S
C263   C272    1.406   .     A
C263   H293    1.083   .     S
C263   C265    1.392   .     A
C264   H291    1.083   .     S
C265   H285    1.083   .     S
C266   C268    1.400   .     A
C266   F284    1.359   .     S
C267   F283    1.360   .     S
C267   C269    1.400   .     A
C268   C270    1.420   .     A
C268   C273    1.421   .     A
C269   C274    1.421   .     A
C269   C272    1.420   .     A
C270   C834    1.392   .     S
C271   H294    1.077   .     S
C271   C276    1.387   .     A
C271   C274    1.417   .     A
C272   C835    1.392   1_554 S
C273   C275    1.417   .     A
C273   C832    1.417   .     S
C274   C831    1.417   1_554 S
C275   C277    1.387   .     A
C275   H295    1.077   .     S
C276   F281    1.358   .     S
C276   C828    1.392   1_554 S
C277   F282    1.358   .     S
C277   C830    1.392   .     S
C278   H296    1.084   .     S
C278   C466    1.370   .     S
C279   H297    1.084   .     S
C280   H298    1.084   .     S
N299   Zn309   2.011   .     S
N300   Zn310   2.011   .     S
O301   Zn309   2.000   .     S
O302   Zn310   2.000   .     S
O303   Zn310   2.000   .     S
O304   Zn309   2.000   .     S
O305   Zn309   1.970   .     S
O306   Zn310   1.970   .     S
O307   Zn310   1.911   .     S
O308   Zn309   1.911   .     S
C311   C314    1.419   .     S
C311   O363    1.284   .     A
C311   O365    1.284   .     A
C312   C314    1.397   .     A
C312   H348    1.084   .     S
C312   C527    1.370   .     S
C313   C341    1.397   .     A
C313   C342    1.397   .     A
C313   C322    1.419   .     S
C314   C340    1.397   .     A
C315   N362    1.366   .     A
C315   H349    1.082   .     S
C315   C193    1.417   1_655 S
C316   N361    1.366   .     A
C316   H350    1.082   .     S
C317   H351    1.082   .     S
C317   N361    1.367   .     A
C318   N362    1.367   .     A
C318   H352    1.082   .     S
C318   C192    1.417   1_655 S
C319   O369    1.293   .     A
C319   C321    1.454   .     S
C319   O367    1.292   .     A
C320   O370    1.293   .     A
C320   O368    1.292   .     A
C320   C323    1.454   .     S
C321   C326    1.398   .     A
C321   C328    1.392   .     A
C322   O366    1.284   .     A
C322   O364    1.284   .     A
C323   C327    1.398   .     A
C323   C329    1.392   .     A
C324   C332    1.406   .     A
C324   C326    1.392   .     A
C324   H354    1.083   .     S
C325   C334    1.406   .     A
C325   H355    1.083   .     S
C325   C327    1.392   .     A
C326   H353    1.083   .     S
C327   H347    1.083   .     S
C328   C330    1.400   .     A
C328   F346    1.359   .     S
C329   F345    1.360   .     S
C329   C331    1.400   .     A
C330   C332    1.420   .     A
C330   C335    1.421   .     A
C331   C336    1.421   .     A
C331   C334    1.420   .     A
C332   C896    1.392   .     S
C333   H356    1.077   .     S
C333   C338    1.387   .     A
C333   C336    1.417   .     A
C334   C897    1.392   1_554 S
C335   C337    1.417   .     A
C335   C894    1.417   .     S
C336   C893    1.417   1_554 S
C337   C339    1.387   .     A
C337   H357    1.077   .     S
C338   F343    1.358   .     S
C338   C890    1.392   1_554 S
C339   F344    1.358   .     S
C339   C892    1.392   .     S
C340   H358    1.084   .     S
C340   C528    1.370   .     S
C341   H359    1.084   .     S
C342   H360    1.084   .     S
N361   Zn371   2.011   .     S
N362   Zn372   2.011   .     S
O363   Zn371   2.000   .     S
O364   Zn372   2.000   .     S
O365   Zn372   2.000   .     S
O366   Zn371   2.000   .     S
O367   Zn371   1.970   .     S
O368   Zn372   1.970   .     S
O369   Zn372   1.911   .     S
O370   Zn371   1.911   .     S
C373   C376    1.419   .     S
C373   O425    1.284   .     A
C373   O427    1.284   .     A
C374   C376    1.397   .     A
C374   H410    1.084   .     S
C374   C31     1.370   1_565 S
C375   C403    1.397   .     A
C375   C404    1.397   .     A
C375   C384    1.419   .     S
C376   C402    1.397   .     A
C377   N424    1.366   .     A
C377   H411    1.082   .     S
C377   C441    1.417   .     S
C378   N423    1.366   .     A
C378   H412    1.082   .     S
C378   C504    1.417   1_455 S
C379   H413    1.082   .     S
C379   N423    1.367   .     A
C379   C501    1.417   1_455 S
C380   N424    1.367   .     A
C380   H414    1.082   .     S
C380   C440    1.417   .     S
C381   O431    1.293   .     A
C381   C383    1.454   .     S
C381   O429    1.292   .     A
C382   O432    1.293   .     A
C382   O430    1.292   .     A
C382   C385    1.454   .     S
C383   C388    1.398   .     A
C383   C390    1.392   .     A
C384   O428    1.284   .     A
C384   O426    1.284   .     A
C385   C389    1.398   .     A
C385   C391    1.392   .     A
C386   C394    1.406   .     A
C386   C388    1.392   .     A
C386   H416    1.083   .     S
C387   C396    1.406   .     A
C387   H417    1.083   .     S
C387   C389    1.392   .     A
C388   H415    1.083   .     S
C389   H409    1.083   .     S
C390   C392    1.400   .     A
C390   F408    1.359   .     S
C391   F407    1.360   .     S
C391   C393    1.400   .     A
C392   C394    1.420   .     A
C392   C397    1.421   .     A
C393   C398    1.421   .     A
C393   C396    1.420   .     A
C394   C958    1.392   .     S
C395   H418    1.077   .     S
C395   C400    1.387   .     A
C395   C398    1.417   .     A
C396   C959    1.392   1_554 S
C397   C399    1.417   .     A
C397   C956    1.417   .     S
C398   C955    1.417   1_554 S
C399   C401    1.387   .     A
C399   H419    1.077   .     S
C400   F405    1.358   .     S
C400   C952    1.392   1_554 S
C401   F406    1.358   .     S
C401   C954    1.392   .     S
C402   H420    1.084   .     S
C402   C32     1.370   1_565 S
C403   H421    1.084   .     S
C404   H422    1.084   .     S
N423   Zn433   2.011   .     S
N424   Zn434   2.011   .     S
O425   Zn433   2.000   .     S
O426   Zn434   2.000   .     S
O427   Zn434   2.000   .     S
O428   Zn433   2.000   .     S
O429   Zn433   1.970   .     S
O430   Zn434   1.970   .     S
O431   Zn434   1.911   .     S
O432   Zn433   1.911   .     S
C435   C438    1.419   .     S
C435   O487    1.284   .     A
C435   O489    1.284   .     A
C436   C438    1.397   .     A
C436   H472    1.084   .     S
C436   C93     1.370   1_565 S
C437   C465    1.397   .     A
C437   C466    1.397   .     A
C437   C446    1.419   .     S
C438   C464    1.397   .     A
C439   N486    1.366   .     A
C439   H473    1.082   .     S
C439   C503    1.417   .     S
C440   N485    1.366   .     A
C440   H474    1.082   .     S
C441   H475    1.082   .     S
C441   N485    1.367   .     A
C442   N486    1.367   .     A
C442   H476    1.082   .     S
C442   C502    1.417   .     S
C443   O493    1.293   .     A
C443   C445    1.454   .     S
C443   O491    1.292   .     A
C444   O494    1.293   .     A
C444   O492    1.292   .     A
C444   C447    1.454   .     S
C445   C450    1.398   .     A
C445   C452    1.392   .     A
C446   O490    1.284   .     A
C446   O488    1.284   .     A
C447   C451    1.398   .     A
C447   C453    1.392   .     A
C448   C456    1.406   .     A
C448   C450    1.392   .     A
C448   H478    1.083   .     S
C449   C458    1.406   .     A
C449   H479    1.083   .     S
C449   C451    1.392   .     A
C450   H477    1.083   .     S
C451   H471    1.083   .     S
C452   C454    1.400   .     A
C452   F470    1.359   .     S
C453   F469    1.360   .     S
C453   C455    1.400   .     A
C454   C456    1.420   .     A
C454   C459    1.421   .     A
C455   C460    1.421   .     A
C455   C458    1.420   .     A
C456   C1020   1.392   .     S
C457   H480    1.077   .     S
C457   C462    1.387   .     A
C457   C460    1.417   .     A
C458   C1021   1.392   1_554 S
C459   C461    1.417   .     A
C459   C1018   1.417   .     S
C460   C1017   1.417   1_554 S
C461   C463    1.387   .     A
C461   H481    1.077   .     S
C462   F467    1.358   .     S
C462   C1014   1.392   1_554 S
C463   F468    1.358   .     S
C463   C1016   1.392   .     S
C464   H482    1.084   .     S
C464   C94     1.370   1_565 S
C465   H483    1.084   .     S
C466   H484    1.084   .     S
N485   Zn495   2.011   .     S
N486   Zn496   2.011   .     S
O487   Zn495   2.000   .     S
O488   Zn496   2.000   .     S
O489   Zn496   2.000   .     S
O490   Zn495   2.000   .     S
O491   Zn495   1.970   .     S
O492   Zn496   1.970   .     S
O493   Zn496   1.911   .     S
O494   Zn495   1.911   .     S
C497   C500    1.419   .     S
C497   O549    1.284   .     A
C497   O551    1.284   .     A
C498   C500    1.397   .     A
C498   H534    1.084   .     S
C498   C155    1.370   1_565 S
C499   C527    1.397   .     A
C499   C528    1.397   .     A
C499   C508    1.419   .     S
C500   C526    1.397   .     A
C501   N548    1.366   .     A
C501   H535    1.082   .     S
C501   C379    1.417   1_655 S
C502   N547    1.366   .     A
C502   H536    1.082   .     S
C503   H537    1.082   .     S
C503   N547    1.367   .     A
C504   N548    1.367   .     A
C504   H538    1.082   .     S
C504   C378    1.417   1_655 S
C505   O555    1.293   .     A
C505   C507    1.454   .     S
C505   O553    1.292   .     A
C506   O556    1.293   .     A
C506   O554    1.292   .     A
C506   C509    1.454   .     S
C507   C512    1.398   .     A
C507   C514    1.392   .     A
C508   O552    1.284   .     A
C508   O550    1.284   .     A
C509   C513    1.398   .     A
C509   C515    1.392   .     A
C510   C518    1.406   .     A
C510   C512    1.392   .     A
C510   H540    1.083   .     S
C511   C520    1.406   .     A
C511   H541    1.083   .     S
C511   C513    1.392   .     A
C512   H539    1.083   .     S
C513   H533    1.083   .     S
C514   C516    1.400   .     A
C514   F532    1.359   .     S
C515   F531    1.360   .     S
C515   C517    1.400   .     A
C516   C518    1.420   .     A
C516   C521    1.421   .     A
C517   C522    1.421   .     A
C517   C520    1.420   .     A
C518   C1082   1.392   .     S
C519   H542    1.077   .     S
C519   C524    1.387   .     A
C519   C522    1.417   .     A
C520   C1083   1.392   1_554 S
C521   C523    1.417   .     A
C521   C1080   1.417   .     S
C522   C1079   1.417   1_554 S
C523   C525    1.387   .     A
C523   H543    1.077   .     S
C524   F529    1.358   .     S
C524   C1076   1.392   1_554 S
C525   F530    1.358   .     S
C525   C1078   1.392   .     S
C526   H544    1.084   .     S
C526   C156    1.370   1_565 S
C527   H545    1.084   .     S
C528   H546    1.084   .     S
N547   Zn557   2.011   .     S
N548   Zn558   2.011   .     S
O549   Zn557   2.000   .     S
O550   Zn558   2.000   .     S
O551   Zn558   2.000   .     S
O552   Zn557   2.000   .     S
O553   Zn557   1.970   .     S
O554   Zn558   1.970   .     S
O555   Zn558   1.911   .     S
O556   Zn557   1.911   .     S
C559   C562    1.419   .     S
C559   O611    1.284   .     A
C559   O613    1.284   .     A
C560   C562    1.397   .     A
C560   H596    1.084   .     S
C560   C775    1.370   .     S
C561   C589    1.397   .     A
C561   C590    1.397   .     A
C561   C570    1.419   .     S
C562   C588    1.397   .     A
C563   N610    1.366   .     A
C563   H597    1.082   .     S
C563   C627    1.417   .     S
C564   N609    1.366   .     A
C564   H598    1.082   .     S
C564   C690    1.417   1_455 S
C565   H599    1.082   .     S
C565   N609    1.367   .     A
C565   C687    1.417   1_455 S
C566   N610    1.367   .     A
C566   H600    1.082   .     S
C566   C626    1.417   .     S
C567   O617    1.293   .     A
C567   C569    1.454   .     S
C567   O615    1.292   .     A
C568   O618    1.293   .     A
C568   O616    1.292   .     A
C568   C571    1.454   .     S
C569   C574    1.398   .     A
C569   C576    1.392   .     A
C570   O614    1.284   .     A
C570   O612    1.284   .     A
C571   C575    1.398   .     A
C571   C577    1.392   .     A
C572   C580    1.406   .     A
C572   C574    1.392   .     A
C572   H602    1.083   .     S
C573   C582    1.406   .     A
C573   H603    1.083   .     S
C573   C575    1.392   .     A
C574   H601    1.083   .     S
C575   H595    1.083   .     S
C576   C578    1.400   .     A
C576   F594    1.359   .     S
C577   F593    1.360   .     S
C577   C579    1.400   .     A
C578   C580    1.420   .     A
C578   C583    1.421   .     A
C579   C584    1.421   .     A
C579   C582    1.420   .     A
C580   C28     1.392   1_556 S
C581   H604    1.077   .     S
C581   C586    1.387   .     A
C581   C584    1.417   .     A
C583   C585    1.417   .     A
C583   C26     1.417   1_556 S
C585   C587    1.387   .     A
C585   H605    1.077   .     S
C586   F591    1.358   .     S
C587   F592    1.358   .     S
C587   C24     1.392   1_556 S
C588   H606    1.084   .     S
C588   C776    1.370   .     S
C589   H607    1.084   .     S
C589   C932    1.370   1_545 S
C590   H608    1.084   .     S
C590   C960    1.370   1_545 S
N609   Zn619   2.011   .     S
N610   Zn620   2.011   .     S
O611   Zn619   2.000   .     S
O612   Zn620   2.000   .     S
O613   Zn620   2.000   .     S
O614   Zn619   2.000   .     S
O615   Zn619   1.970   .     S
O616   Zn620   1.970   .     S
O617   Zn620   1.911   .     S
O618   Zn619   1.911   .     S
C621   C624    1.419   .     S
C621   O673    1.284   .     A
C621   O675    1.284   .     A
C622   C624    1.397   .     A
C622   H658    1.084   .     S
C622   C837    1.370   .     S
C623   C651    1.397   .     A
C623   C652    1.397   .     A
C623   C632    1.419   .     S
C624   C650    1.397   .     A
C625   N672    1.366   .     A
C625   H659    1.082   .     S
C625   C689    1.417   .     S
C626   N671    1.366   .     A
C626   H660    1.082   .     S
C627   H661    1.082   .     S
C627   N671    1.367   .     A
C628   N672    1.367   .     A
C628   H662    1.082   .     S
C628   C688    1.417   .     S
C629   O679    1.293   .     A
C629   C631    1.454   .     S
C629   O677    1.292   .     A
C630   O680    1.293   .     A
C630   O678    1.292   .     A
C630   C633    1.454   .     S
C631   C636    1.398   .     A
C631   C638    1.392   .     A
C632   O676    1.284   .     A
C632   O674    1.284   .     A
C633   C637    1.398   .     A
C633   C639    1.392   .     A
C634   C642    1.406   .     A
C634   C636    1.392   .     A
C634   H664    1.083   .     S
C635   C644    1.406   .     A
C635   H665    1.083   .     S
C635   C637    1.392   .     A
C636   H663    1.083   .     S
C637   H657    1.083   .     S
C638   C640    1.400   .     A
C638   F656    1.359   .     S
C639   F655    1.360   .     S
C639   C641    1.400   .     A
C640   C642    1.420   .     A
C640   C645    1.421   .     A
C641   C646    1.421   .     A
C641   C644    1.420   .     A
C642   C90     1.392   1_556 S
C643   H666    1.077   .     S
C643   C648    1.387   .     A
C643   C646    1.417   .     A
C645   C647    1.417   .     A
C645   C88     1.417   1_556 S
C647   C649    1.387   .     A
C647   H667    1.077   .     S
C648   F653    1.358   .     S
C649   F654    1.358   .     S
C649   C86     1.392   1_556 S
C650   H668    1.084   .     S
C650   C838    1.370   .     S
C651   H669    1.084   .     S
C651   C994    1.370   1_545 S
C652   H670    1.084   .     S
C652   C1022   1.370   1_545 S
N671   Zn681   2.011   .     S
N672   Zn682   2.011   .     S
O673   Zn681   2.000   .     S
O674   Zn682   2.000   .     S
O675   Zn682   2.000   .     S
O676   Zn681   2.000   .     S
O677   Zn681   1.970   .     S
O678   Zn682   1.970   .     S
O679   Zn682   1.911   .     S
O680   Zn681   1.911   .     S
C683   C686    1.419   .     S
C683   O735    1.284   .     A
C683   O737    1.284   .     A
C684   C686    1.397   .     A
C684   H720    1.084   .     S
C684   C899    1.370   .     S
C685   C713    1.397   .     A
C685   C714    1.397   .     A
C685   C694    1.419   .     S
C686   C712    1.397   .     A
C687   N734    1.366   .     A
C687   H721    1.082   .     S
C687   C565    1.417   1_655 S
C688   N733    1.366   .     A
C688   H722    1.082   .     S
C689   H723    1.082   .     S
C689   N733    1.367   .     A
C690   N734    1.367   .     A
C690   H724    1.082   .     S
C690   C564    1.417   1_655 S
C691   O741    1.293   .     A
C691   C693    1.454   .     S
C691   O739    1.292   .     A
C692   O742    1.293   .     A
C692   O740    1.292   .     A
C692   C695    1.454   .     S
C693   C698    1.398   .     A
C693   C700    1.392   .     A
C694   O738    1.284   .     A
C694   O736    1.284   .     A
C695   C699    1.398   .     A
C695   C701    1.392   .     A
C696   C704    1.406   .     A
C696   C698    1.392   .     A
C696   H726    1.083   .     S
C697   C706    1.406   .     A
C697   H727    1.083   .     S
C697   C699    1.392   .     A
C698   H725    1.083   .     S
C699   H719    1.083   .     S
C700   C702    1.400   .     A
C700   F718    1.359   .     S
C701   F717    1.360   .     S
C701   C703    1.400   .     A
C702   C704    1.420   .     A
C702   C707    1.421   .     A
C703   C708    1.421   .     A
C703   C706    1.420   .     A
C704   C152    1.392   1_556 S
C705   H728    1.077   .     S
C705   C710    1.387   .     A
C705   C708    1.417   .     A
C707   C709    1.417   .     A
C707   C150    1.417   1_556 S
C709   C711    1.387   .     A
C709   H729    1.077   .     S
C710   F715    1.358   .     S
C711   F716    1.358   .     S
C711   C148    1.392   1_556 S
C712   H730    1.084   .     S
C712   C900    1.370   .     S
C713   H731    1.084   .     S
C713   C1056   1.370   1_545 S
C714   H732    1.084   .     S
C714   C1084   1.370   1_545 S
N733   Zn743   2.011   .     S
N734   Zn744   2.011   .     S
O735   Zn743   2.000   .     S
O736   Zn744   2.000   .     S
O737   Zn744   2.000   .     S
O738   Zn743   2.000   .     S
O739   Zn743   1.970   .     S
O740   Zn744   1.970   .     S
O741   Zn744   1.911   .     S
O742   Zn743   1.911   .     S
C745   C748    1.419   .     S
C745   O797    1.284   .     A
C745   O799    1.284   .     A
C746   C748    1.397   .     A
C746   H782    1.084   .     S
C746   C961    1.370   .     S
C747   C775    1.397   .     A
C747   C776    1.397   .     A
C747   C756    1.419   .     S
C748   C774    1.397   .     A
C749   N796    1.366   .     A
C749   H783    1.082   .     S
C749   C813    1.417   .     S
C750   N795    1.366   .     A
C750   H784    1.082   .     S
C750   C876    1.417   1_455 S
C751   H785    1.082   .     S
C751   N795    1.367   .     A
C751   C873    1.417   1_455 S
C752   N796    1.367   .     A
C752   H786    1.082   .     S
C752   C812    1.417   .     S
C753   O803    1.293   .     A
C753   C755    1.454   .     S
C753   O801    1.292   .     A
C754   O804    1.293   .     A
C754   O802    1.292   .     A
C754   C757    1.454   .     S
C755   C760    1.398   .     A
C755   C762    1.392   .     A
C756   O800    1.284   .     A
C756   O798    1.284   .     A
C757   C761    1.398   .     A
C757   C763    1.392   .     A
C758   C766    1.406   .     A
C758   C760    1.392   .     A
C758   H788    1.083   .     S
C759   C768    1.406   .     A
C759   H789    1.083   .     S
C759   C761    1.392   .     A
C760   H787    1.083   .     S
C761   H781    1.083   .     S
C762   C764    1.400   .     A
C762   F780    1.359   .     S
C763   F779    1.360   .     S
C763   C765    1.400   .     A
C764   C766    1.420   .     A
C764   C769    1.421   .     A
C765   C770    1.421   .     A
C765   C768    1.420   .     A
C766   C214    1.392   1_556 S
C767   H790    1.077   .     S
C767   C772    1.387   .     A
C767   C770    1.417   .     A
C769   C771    1.417   .     A
C769   C212    1.417   1_556 S
C771   C773    1.387   .     A
C771   H791    1.077   .     S
C772   F777    1.358   .     S
C773   F778    1.358   .     S
C773   C210    1.392   1_556 S
C774   H792    1.084   .     S
C774   C962    1.370   .     S
C775   H793    1.084   .     S
C776   H794    1.084   .     S
N795   Zn805   2.011   .     S
N796   Zn806   2.011   .     S
O797   Zn805   2.000   .     S
O798   Zn806   2.000   .     S
O799   Zn806   2.000   .     S
O800   Zn805   2.000   .     S
O801   Zn805   1.970   .     S
O802   Zn806   1.970   .     S
O803   Zn806   1.911   .     S
O804   Zn805   1.911   .     S
C807   C810    1.419   .     S
C807   O859    1.284   .     A
C807   O861    1.284   .     A
C808   C810    1.397   .     A
C808   H844    1.084   .     S
C808   C1023   1.370   .     S
C809   C837    1.397   .     A
C809   C838    1.397   .     A
C809   C818    1.419   .     S
C810   C836    1.397   .     A
C811   N858    1.366   .     A
C811   H845    1.082   .     S
C811   C875    1.417   .     S
C812   N857    1.366   .     A
C812   H846    1.082   .     S
C813   H847    1.082   .     S
C813   N857    1.367   .     A
C814   N858    1.367   .     A
C814   H848    1.082   .     S
C814   C874    1.417   .     S
C815   O865    1.293   .     A
C815   C817    1.454   .     S
C815   O863    1.292   .     A
C816   O866    1.293   .     A
C816   O864    1.292   .     A
C816   C819    1.454   .     S
C817   C822    1.398   .     A
C817   C824    1.392   .     A
C818   O862    1.284   .     A
C818   O860    1.284   .     A
C819   C823    1.398   .     A
C819   C825    1.392   .     A
C820   C828    1.406   .     A
C820   C822    1.392   .     A
C820   H850    1.083   .     S
C821   C830    1.406   .     A
C821   H851    1.083   .     S
C821   C823    1.392   .     A
C822   H849    1.083   .     S
C823   H843    1.083   .     S
C824   C826    1.400   .     A
C824   F842    1.359   .     S
C825   F841    1.360   .     S
C825   C827    1.400   .     A
C826   C828    1.420   .     A
C826   C831    1.421   .     A
C827   C832    1.421   .     A
C827   C830    1.420   .     A
C828   C276    1.392   1_556 S
C829   H852    1.077   .     S
C829   C834    1.387   .     A
C829   C832    1.417   .     A
C831   C833    1.417   .     A
C831   C274    1.417   1_556 S
C833   C835    1.387   .     A
C833   H853    1.077   .     S
C834   F839    1.358   .     S
C835   F840    1.358   .     S
C835   C272    1.392   1_556 S
C836   H854    1.084   .     S
C836   C1024   1.370   .     S
C837   H855    1.084   .     S
C838   H856    1.084   .     S
N857   Zn867   2.011   .     S
N858   Zn868   2.011   .     S
O859   Zn867   2.000   .     S
O860   Zn868   2.000   .     S
O861   Zn868   2.000   .     S
O862   Zn867   2.000   .     S
O863   Zn867   1.970   .     S
O864   Zn868   1.970   .     S
O865   Zn868   1.911   .     S
O866   Zn867   1.911   .     S
C869   C872    1.419   .     S
C869   O921    1.284   .     A
C869   O923    1.284   .     A
C870   C872    1.397   .     A
C870   H906    1.084   .     S
C870   C1085   1.370   .     S
C871   C899    1.397   .     A
C871   C900    1.397   .     A
C871   C880    1.419   .     S
C872   C898    1.397   .     A
C873   N920    1.366   .     A
C873   H907    1.082   .     S
C873   C751    1.417   1_655 S
C874   N919    1.366   .     A
C874   H908    1.082   .     S
C875   H909    1.082   .     S
C875   N919    1.367   .     A
C876   N920    1.367   .     A
C876   H910    1.082   .     S
C876   C750    1.417   1_655 S
C877   O927    1.293   .     A
C877   C879    1.454   .     S
C877   O925    1.292   .     A
C878   O928    1.293   .     A
C878   O926    1.292   .     A
C878   C881    1.454   .     S
C879   C884    1.398   .     A
C879   C886    1.392   .     A
C880   O924    1.284   .     A
C880   O922    1.284   .     A
C881   C885    1.398   .     A
C881   C887    1.392   .     A
C882   C890    1.406   .     A
C882   C884    1.392   .     A
C882   H912    1.083   .     S
C883   C892    1.406   .     A
C883   H913    1.083   .     S
C883   C885    1.392   .     A
C884   H911    1.083   .     S
C885   H905    1.083   .     S
C886   C888    1.400   .     A
C886   F904    1.359   .     S
C887   F903    1.360   .     S
C887   C889    1.400   .     A
C888   C890    1.420   .     A
C888   C893    1.421   .     A
C889   C894    1.421   .     A
C889   C892    1.420   .     A
C890   C338    1.392   1_556 S
C891   H914    1.077   .     S
C891   C896    1.387   .     A
C891   C894    1.417   .     A
C893   C895    1.417   .     A
C893   C336    1.417   1_556 S
C895   C897    1.387   .     A
C895   H915    1.077   .     S
C896   F901    1.358   .     S
C897   F902    1.358   .     S
C897   C334    1.392   1_556 S
C898   H916    1.084   .     S
C898   C1086   1.370   .     S
C899   H917    1.084   .     S
C900   H918    1.084   .     S
N919   Zn929   2.011   .     S
N920   Zn930   2.011   .     S
O921   Zn929   2.000   .     S
O922   Zn930   2.000   .     S
O923   Zn930   2.000   .     S
O924   Zn929   2.000   .     S
O925   Zn929   1.970   .     S
O926   Zn930   1.970   .     S
O927   Zn930   1.911   .     S
O928   Zn929   1.911   .     S
C931   C934    1.419   .     S
C931   O983    1.284   .     A
C931   O985    1.284   .     A
C932   C934    1.397   .     A
C932   H968    1.084   .     S
C932   C589    1.370   1_565 S
C933   C961    1.397   .     A
C933   C962    1.397   .     A
C933   C942    1.419   .     S
C934   C960    1.397   .     A
C935   N982    1.366   .     A
C935   H969    1.082   .     S
C935   C999    1.417   .     S
C936   N981    1.366   .     A
C936   H970    1.082   .     S
C936   C1062   1.417   1_455 S
C937   H971    1.082   .     S
C937   N981    1.367   .     A
C937   C1059   1.417   1_455 S
C938   N982    1.367   .     A
C938   H972    1.082   .     S
C938   C998    1.417   .     S
C939   O989    1.293   .     A
C939   C941    1.454   .     S
C939   O987    1.292   .     A
C940   O990    1.293   .     A
C940   O988    1.292   .     A
C940   C943    1.454   .     S
C941   C946    1.398   .     A
C941   C948    1.392   .     A
C942   O986    1.284   .     A
C942   O984    1.284   .     A
C943   C947    1.398   .     A
C943   C949    1.392   .     A
C944   C952    1.406   .     A
C944   C946    1.392   .     A
C944   H974    1.083   .     S
C945   C954    1.406   .     A
C945   H975    1.083   .     S
C945   C947    1.392   .     A
C946   H973    1.083   .     S
C947   H967    1.083   .     S
C948   C950    1.400   .     A
C948   F966    1.359   .     S
C949   F965    1.360   .     S
C949   C951    1.400   .     A
C950   C952    1.420   .     A
C950   C955    1.421   .     A
C951   C956    1.421   .     A
C951   C954    1.420   .     A
C952   C400    1.392   1_556 S
C953   H976    1.077   .     S
C953   C958    1.387   .     A
C953   C956    1.417   .     A
C955   C957    1.417   .     A
C955   C398    1.417   1_556 S
C957   C959    1.387   .     A
C957   H977    1.077   .     S
C958   F963    1.358   .     S
C959   F964    1.358   .     S
C959   C396    1.392   1_556 S
C960   H978    1.084   .     S
C960   C590    1.370   1_565 S
C961   H979    1.084   .     S
C962   H980    1.084   .     S
N981   Zn991   2.011   .     S
N982   Zn992   2.011   .     S
O983   Zn991   2.000   .     S
O984   Zn992   2.000   .     S
O985   Zn992   2.000   .     S
O986   Zn991   2.000   .     S
O987   Zn991   1.970   .     S
O988   Zn992   1.970   .     S
O989   Zn992   1.911   .     S
O990   Zn991   1.911   .     S
C993   C996    1.419   .     S
C993   O1045   1.284   .     A
C993   O1047   1.284   .     A
C994   C996    1.397   .     A
C994   H1030   1.084   .     S
C994   C651    1.370   1_565 S
C995   C1023   1.397   .     A
C995   C1024   1.397   .     A
C995   C1004   1.419   .     S
C996   C1022   1.397   .     A
C997   N1044   1.366   .     A
C997   H1031   1.082   .     S
C997   C1061   1.417   .     S
C998   N1043   1.366   .     A
C998   H1032   1.082   .     S
C999   H1033   1.082   .     S
C999   N1043   1.367   .     A
C1000  N1044   1.367   .     A
C1000  H1034   1.082   .     S
C1000  C1060   1.417   .     S
C1001  O1051   1.293   .     A
C1001  C1003   1.454   .     S
C1001  O1049   1.292   .     A
C1002  O1052   1.293   .     A
C1002  O1050   1.292   .     A
C1002  C1005   1.454   .     S
C1003  C1008   1.398   .     A
C1003  C1010   1.392   .     A
C1004  O1048   1.284   .     A
C1004  O1046   1.284   .     A
C1005  C1009   1.398   .     A
C1005  C1011   1.392   .     A
C1006  C1014   1.406   .     A
C1006  C1008   1.392   .     A
C1006  H1036   1.083   .     S
C1007  C1016   1.406   .     A
C1007  H1037   1.083   .     S
C1007  C1009   1.392   .     A
C1008  H1035   1.083   .     S
C1009  H1029   1.083   .     S
C1010  C1012   1.400   .     A
C1010  F1028   1.359   .     S
C1011  F1027   1.360   .     S
C1011  C1013   1.400   .     A
C1012  C1014   1.420   .     A
C1012  C1017   1.421   .     A
C1013  C1018   1.421   .     A
C1013  C1016   1.420   .     A
C1014  C462    1.392   1_556 S
C1015  H1038   1.077   .     S
C1015  C1020   1.387   .     A
C1015  C1018   1.417   .     A
C1017  C1019   1.417   .     A
C1017  C460    1.417   1_556 S
C1019  C1021   1.387   .     A
C1019  H1039   1.077   .     S
C1020  F1025   1.358   .     S
C1021  F1026   1.358   .     S
C1021  C458    1.392   1_556 S
C1022  H1040   1.084   .     S
C1022  C652    1.370   1_565 S
C1023  H1041   1.084   .     S
C1024  H1042   1.084   .     S
N1043  Zn1053  2.011   .     S
N1044  Zn1054  2.011   .     S
O1045  Zn1053  2.000   .     S
O1046  Zn1054  2.000   .     S
O1047  Zn1054  2.000   .     S
O1048  Zn1053  2.000   .     S
O1049  Zn1053  1.970   .     S
O1050  Zn1054  1.970   .     S
O1051  Zn1054  1.911   .     S
O1052  Zn1053  1.911   .     S
C1055  C1058   1.419   .     S
C1055  O1107   1.284   .     A
C1055  O1109   1.284   .     A
C1056  C1058   1.397   .     A
C1056  H1092   1.084   .     S
C1056  C713    1.370   1_565 S
C1057  C1085   1.397   .     A
C1057  C1086   1.397   .     A
C1057  C1066   1.419   .     S
C1058  C1084   1.397   .     A
C1059  N1106   1.366   .     A
C1059  H1093   1.082   .     S
C1059  C937    1.417   1_655 S
C1060  N1105   1.366   .     A
C1060  H1094   1.082   .     S
C1061  H1095   1.082   .     S
C1061  N1105   1.367   .     A
C1062  N1106   1.367   .     A
C1062  H1096   1.082   .     S
C1062  C936    1.417   1_655 S
C1063  O1113   1.293   .     A
C1063  C1065   1.454   .     S
C1063  O1111   1.292   .     A
C1064  O1114   1.293   .     A
C1064  O1112   1.292   .     A
C1064  C1067   1.454   .     S
C1065  C1070   1.398   .     A
C1065  C1072   1.392   .     A
C1066  O1110   1.284   .     A
C1066  O1108   1.284   .     A
C1067  C1071   1.398   .     A
C1067  C1073   1.392   .     A
C1068  C1076   1.406   .     A
C1068  C1070   1.392   .     A
C1068  H1098   1.083   .     S
C1069  C1078   1.406   .     A
C1069  H1099   1.083   .     S
C1069  C1071   1.392   .     A
C1070  H1097   1.083   .     S
C1071  H1091   1.083   .     S
C1072  C1074   1.400   .     A
C1072  F1090   1.359   .     S
C1073  F1089   1.360   .     S
C1073  C1075   1.400   .     A
C1074  C1076   1.420   .     A
C1074  C1079   1.421   .     A
C1075  C1080   1.421   .     A
C1075  C1078   1.420   .     A
C1076  C524    1.392   1_556 S
C1077  H1100   1.077   .     S
C1077  C1082   1.387   .     A
C1077  C1080   1.417   .     A
C1079  C1081   1.417   .     A
C1079  C522    1.417   1_556 S
C1081  C1083   1.387   .     A
C1081  H1101   1.077   .     S
C1082  F1087   1.358   .     S
C1083  F1088   1.358   .     S
C1083  C520    1.392   1_556 S
C1084  H1102   1.084   .     S
C1084  C714    1.370   1_565 S
C1085  H1103   1.084   .     S
C1086  H1104   1.084   .     S
N1105  Zn1115  2.011   .     S
N1106  Zn1116  2.011   .     S
O1107  Zn1115  2.000   .     S
O1108  Zn1116  2.000   .     S
O1109  Zn1116  2.000   .     S
O1110  Zn1115  2.000   .     S
O1111  Zn1115  1.970   .     S
O1112  Zn1116  1.970   .     S
O1113  Zn1116  1.911   .     S
O1114  Zn1115  1.911   .     S
