data_str_m2_o1_o2_pcu_sym.139
_audit_creation_date              2020-01-03
_audit_creation_method            'Materials Studio'
_symmetry_space_group_name_H-M    'P1'
_symmetry_Int_Tables_number       1
_symmetry_cell_setting            triclinic
loop_
_symmetry_equiv_pos_as_xyz
  x,y,z
_cell_length_a                    32.5258
_cell_length_b                    28.7421
_cell_length_c                    30.1728
_cell_angle_alpha                 90.0001
_cell_angle_beta                  91.4969
_cell_angle_gamma                 90.0001
loop_
_atom_site_label
_atom_site_type_symbol
_atom_site_fract_x
_atom_site_fract_y
_atom_site_fract_z
_atom_site_U_iso_or_equiv
_atom_site_adp_type
_atom_site_occupancy
C1     C     0.08742   0.16675   0.25038   0.00000  Uiso   1.00
C2     C     0.24591   0.16675   0.24962   0.00000  Uiso   1.00
C3     C     0.16672   0.16659   0.16506   0.00000  Uiso   1.00
C4     C     0.16662   0.16659   0.33494   0.00000  Uiso   1.00
C5     C     0.14230   0.02516   0.22035   0.00000  Uiso   1.00
C6     C     0.18844   0.30856   0.28187   0.00000  Uiso   1.00
C7     C     0.19104   0.02516   0.27964   0.00000  Uiso   1.00
C8     C     0.14489   0.30856   0.21813   0.00000  Uiso   1.00
C9     C     0.02122   0.12507   0.25118   0.00000  Uiso   1.00
C10    C     0.31202   0.20945   0.24988   0.00000  Uiso   1.00
C11    C     0.31211   0.12507   0.24883   0.00000  Uiso   1.00
C12    C     0.02131   0.20945   0.25011   0.00000  Uiso   1.00
C13    C     0.18953   0.19865   0.04753   0.00000  Uiso   1.00
C14    C     0.19021   0.13131   0.45250   0.00000  Uiso   1.00
C15    C     0.14381   0.19865   0.45248   0.00000  Uiso   1.00
C16    C     0.14312   0.13131   0.04750   0.00000  Uiso   1.00
C17    C     0.18951   0.19897   0.09393   0.00000  Uiso   1.00
C18    C     0.18925   0.13213   0.40638   0.00000  Uiso   1.00
C19    C     0.14382   0.19897   0.40607   0.00000  Uiso   1.00
C20    C     0.14408   0.13213   0.09362   0.00000  Uiso   1.00
C21    C     0.16668   0.16607   0.11682   0.00000  Uiso   1.00
C22    C     0.16665   0.16607   0.38318   0.00000  Uiso   1.00
C23    C     0.16628   0.16482   0.02429   0.00000  Uiso   1.00
C24    C     0.16705   0.16482   0.47571   0.00000  Uiso   1.00
C25    C     0.29056   0.16712   0.24925   0.00000  Uiso   1.00
C26    C     0.04278   0.16712   0.25075   0.00000  Uiso   1.00
Cu27   Cu    0.16667   0.21355   0.25000   0.00000  Uiso   1.00
Cu28   Cu    0.16667   0.11978   0.25000   0.00000  Uiso   1.00
H29    H     0.20784   0.22431   0.11220   0.00000  Uiso   1.00
H30    H     0.20697   0.10660   0.38857   0.00000  Uiso   1.00
H31    H     0.12549   0.22431   0.38780   0.00000  Uiso   1.00
H32    H     0.12637   0.10660   0.11143   0.00000  Uiso   1.00
H33    H     0.03702   0.09214   0.25331   0.00000  Uiso   1.00
H34    H     0.29600   0.24249   0.25000   0.00000  Uiso   1.00
H35    H     0.29631   0.09213   0.24670   0.00000  Uiso   1.00
H36    H     0.03734   0.24249   0.24999   0.00000  Uiso   1.00
N37    N     0.16667   0.28402   0.25000   0.00000  Uiso   1.00
N38    N     0.16667   0.04931   0.25000   0.00000  Uiso   1.00
O39    O     0.10655   0.20625   0.25000   0.00000  Uiso   1.00
O40    O     0.22679   0.12709   0.25001   0.00000  Uiso   1.00
O41    O     0.22679   0.20625   0.25001   0.00000  Uiso   1.00
O42    O     0.10655   0.12709   0.25000   0.00000  Uiso   1.00
O43    O     0.16666   0.20626   0.18573   0.00000  Uiso   1.00
O44    O     0.16667   0.12707   0.31427   0.00000  Uiso   1.00
O45    O     0.16667   0.20626   0.31427   0.00000  Uiso   1.00
O46    O     0.16666   0.12707   0.18573   0.00000  Uiso   1.00
O47    O     0.11773   0.05041   0.19081   0.00000  Uiso   1.00
C48    C     0.07622   0.03610   0.19248   0.00000  Uiso   1.00
H49    H     0.05648   0.06600   0.18266   0.00000  Uiso   1.00
H50    H     0.06716   0.02443   0.22608   0.00000  Uiso   1.00
H51    H     0.06951   0.00833   0.16785   0.00000  Uiso   1.00
O52    O     0.20908   0.28431   0.31517   0.00000  Uiso   1.00
C53    C     0.19073   0.29388   0.35619   0.00000  Uiso   1.00
H54    H     0.20226   0.26813   0.38089   0.00000  Uiso   1.00
H55    H     0.15659   0.29091   0.35405   0.00000  Uiso   1.00
H56    H     0.19946   0.32872   0.36911   0.00000  Uiso   1.00
O57    O     0.21560   0.05041   0.30919   0.00000  Uiso   1.00
C58    C     0.25711   0.03610   0.30753   0.00000  Uiso   1.00
H59    H     0.27685   0.06600   0.31734   0.00000  Uiso   1.00
H60    H     0.26617   0.02442   0.27393   0.00000  Uiso   1.00
H61    H     0.26382   0.00834   0.33216   0.00000  Uiso   1.00
O62    O     0.12425   0.28431   0.18483   0.00000  Uiso   1.00
C63    C     0.14260   0.29388   0.14381   0.00000  Uiso   1.00
H64    H     0.13107   0.26812   0.11911   0.00000  Uiso   1.00
H65    H     0.17674   0.29092   0.14594   0.00000  Uiso   1.00
H66    H     0.13386   0.32872   0.13089   0.00000  Uiso   1.00
O67    O     0.21218   0.23059   0.02414   0.00000  Uiso   1.00
H68    H     0.22644   0.25189   0.04535   0.00000  Uiso   1.00
O69    O     0.21413   0.09748   0.47309   0.00000  Uiso   1.00
H70    H     0.21490   0.10234   0.00553   0.00000  Uiso   1.00
O71    O     0.12115   0.23059   0.47586   0.00000  Uiso   1.00
H72    H     0.10689   0.25188   0.45465   0.00000  Uiso   1.00
O73    O     0.11921   0.09748   0.02691   0.00000  Uiso   1.00
H74    H     0.11844   0.10233   0.49447   0.00000  Uiso   1.00
C75    C     0.42075   0.16675   0.25038   0.00000  Uiso   1.00
C76    C     0.57925   0.16675   0.24962   0.00000  Uiso   1.00
C77    C     0.50005   0.16659   0.16506   0.00000  Uiso   1.00
C78    C     0.49995   0.16659   0.33494   0.00000  Uiso   1.00
C79    C     0.47563   0.02516   0.22035   0.00000  Uiso   1.00
C80    C     0.52177   0.30856   0.28187   0.00000  Uiso   1.00
C81    C     0.52437   0.02516   0.27964   0.00000  Uiso   1.00
C82    C     0.47823   0.30856   0.21813   0.00000  Uiso   1.00
C83    C     0.35455   0.12507   0.25118   0.00000  Uiso   1.00
C84    C     0.64535   0.20945   0.24988   0.00000  Uiso   1.00
C85    C     0.64545   0.12507   0.24883   0.00000  Uiso   1.00
C86    C     0.35465   0.20945   0.25011   0.00000  Uiso   1.00
C87    C     0.52286   0.19865   0.04753   0.00000  Uiso   1.00
C88    C     0.52355   0.13131   0.45250   0.00000  Uiso   1.00
C89    C     0.47714   0.19865   0.45248   0.00000  Uiso   1.00
C90    C     0.47646   0.13131   0.04750   0.00000  Uiso   1.00
C91    C     0.52285   0.19897   0.09393   0.00000  Uiso   1.00
C92    C     0.52259   0.13213   0.40638   0.00000  Uiso   1.00
C93    C     0.47715   0.19897   0.40607   0.00000  Uiso   1.00
C94    C     0.47742   0.13213   0.09362   0.00000  Uiso   1.00
C95    C     0.50002   0.16607   0.11682   0.00000  Uiso   1.00
C96    C     0.49999   0.16607   0.38318   0.00000  Uiso   1.00
C97    C     0.49962   0.16482   0.02429   0.00000  Uiso   1.00
C98    C     0.50038   0.16482   0.47571   0.00000  Uiso   1.00
C99    C     0.62389   0.16712   0.24925   0.00000  Uiso   1.00
C100   C     0.37611   0.16712   0.25075   0.00000  Uiso   1.00
Cu101  Cu    0.50000   0.21355   0.25000   0.00000  Uiso   1.00
Cu102  Cu    0.50000   0.11978   0.25000   0.00000  Uiso   1.00
H103   H     0.54118   0.22431   0.11220   0.00000  Uiso   1.00
H104   H     0.54030   0.10660   0.38857   0.00000  Uiso   1.00
H105   H     0.45882   0.22431   0.38780   0.00000  Uiso   1.00
H106   H     0.45970   0.10660   0.11143   0.00000  Uiso   1.00
H107   H     0.37036   0.09214   0.25331   0.00000  Uiso   1.00
H108   H     0.62933   0.24249   0.25000   0.00000  Uiso   1.00
H109   H     0.62964   0.09213   0.24670   0.00000  Uiso   1.00
H110   H     0.37067   0.24249   0.24999   0.00000  Uiso   1.00
N111   N     0.50000   0.28402   0.25000   0.00000  Uiso   1.00
N112   N     0.50000   0.04931   0.25000   0.00000  Uiso   1.00
O113   O     0.43988   0.20625   0.25000   0.00000  Uiso   1.00
O114   O     0.56012   0.12709   0.25001   0.00000  Uiso   1.00
O115   O     0.56012   0.20625   0.25001   0.00000  Uiso   1.00
O116   O     0.43988   0.12709   0.25000   0.00000  Uiso   1.00
O117   O     0.50000   0.20626   0.18573   0.00000  Uiso   1.00
O118   O     0.50000   0.12707   0.31427   0.00000  Uiso   1.00
O119   O     0.50000   0.20626   0.31427   0.00000  Uiso   1.00
O120   O     0.50000   0.12707   0.18573   0.00000  Uiso   1.00
O121   O     0.45106   0.05041   0.19081   0.00000  Uiso   1.00
C122   C     0.40955   0.03610   0.19248   0.00000  Uiso   1.00
H123   H     0.38981   0.06600   0.18266   0.00000  Uiso   1.00
H124   H     0.40050   0.02443   0.22608   0.00000  Uiso   1.00
H125   H     0.40285   0.00833   0.16785   0.00000  Uiso   1.00
O126   O     0.54241   0.28431   0.31517   0.00000  Uiso   1.00
C127   C     0.52407   0.29388   0.35619   0.00000  Uiso   1.00
H128   H     0.53560   0.26813   0.38089   0.00000  Uiso   1.00
H129   H     0.48992   0.29091   0.35405   0.00000  Uiso   1.00
H130   H     0.53279   0.32872   0.36911   0.00000  Uiso   1.00
O131   O     0.54894   0.05041   0.30919   0.00000  Uiso   1.00
C132   C     0.59045   0.03610   0.30753   0.00000  Uiso   1.00
H133   H     0.61019   0.06600   0.31734   0.00000  Uiso   1.00
H134   H     0.59951   0.02442   0.27393   0.00000  Uiso   1.00
H135   H     0.59715   0.00834   0.33216   0.00000  Uiso   1.00
O136   O     0.45759   0.28431   0.18483   0.00000  Uiso   1.00
C137   C     0.47593   0.29388   0.14381   0.00000  Uiso   1.00
H138   H     0.46440   0.26812   0.11911   0.00000  Uiso   1.00
H139   H     0.51007   0.29092   0.14594   0.00000  Uiso   1.00
H140   H     0.46720   0.32872   0.13089   0.00000  Uiso   1.00
O141   O     0.54552   0.23059   0.02414   0.00000  Uiso   1.00
H142   H     0.55978   0.25189   0.04535   0.00000  Uiso   1.00
O143   O     0.54746   0.09748   0.47309   0.00000  Uiso   1.00
H144   H     0.54823   0.10234   0.00553   0.00000  Uiso   1.00
O145   O     0.45448   0.23059   0.47586   0.00000  Uiso   1.00
H146   H     0.44022   0.25188   0.45465   0.00000  Uiso   1.00
O147   O     0.45255   0.09748   0.02691   0.00000  Uiso   1.00
H148   H     0.45177   0.10233   0.49447   0.00000  Uiso   1.00
C149   C     0.75409   0.16675   0.25038   0.00000  Uiso   1.00
C150   C     0.91258   0.16675   0.24962   0.00000  Uiso   1.00
C151   C     0.83338   0.16659   0.16506   0.00000  Uiso   1.00
C152   C     0.83328   0.16659   0.33494   0.00000  Uiso   1.00
C153   C     0.80896   0.02516   0.22035   0.00000  Uiso   1.00
C154   C     0.85511   0.30856   0.28187   0.00000  Uiso   1.00
C155   C     0.85770   0.02516   0.27964   0.00000  Uiso   1.00
C156   C     0.81156   0.30856   0.21813   0.00000  Uiso   1.00
C157   C     0.68789   0.12507   0.25118   0.00000  Uiso   1.00
C158   C     0.97869   0.20945   0.24988   0.00000  Uiso   1.00
C159   C     0.97878   0.12507   0.24883   0.00000  Uiso   1.00
C160   C     0.68798   0.20945   0.25011   0.00000  Uiso   1.00
C161   C     0.85619   0.19865   0.04753   0.00000  Uiso   1.00
C162   C     0.85688   0.13131   0.45250   0.00000  Uiso   1.00
C163   C     0.81047   0.19865   0.45248   0.00000  Uiso   1.00
C164   C     0.80979   0.13131   0.04750   0.00000  Uiso   1.00
C165   C     0.85618   0.19897   0.09393   0.00000  Uiso   1.00
C166   C     0.85592   0.13213   0.40638   0.00000  Uiso   1.00
C167   C     0.81048   0.19897   0.40607   0.00000  Uiso   1.00
C168   C     0.81075   0.13213   0.09362   0.00000  Uiso   1.00
C169   C     0.83335   0.16607   0.11682   0.00000  Uiso   1.00
C170   C     0.83332   0.16607   0.38318   0.00000  Uiso   1.00
C171   C     0.83295   0.16482   0.02429   0.00000  Uiso   1.00
C172   C     0.83372   0.16482   0.47571   0.00000  Uiso   1.00
C173   C     0.95722   0.16712   0.24925   0.00000  Uiso   1.00
C174   C     0.70944   0.16712   0.25075   0.00000  Uiso   1.00
Cu175  Cu    0.83333   0.21355   0.25000   0.00000  Uiso   1.00
Cu176  Cu    0.83333   0.11978   0.25000   0.00000  Uiso   1.00
H177   H     0.87451   0.22431   0.11220   0.00000  Uiso   1.00
H178   H     0.87363   0.10660   0.38857   0.00000  Uiso   1.00
H179   H     0.79215   0.22431   0.38780   0.00000  Uiso   1.00
H180   H     0.79304   0.10660   0.11143   0.00000  Uiso   1.00
H181   H     0.70369   0.09214   0.25331   0.00000  Uiso   1.00
H182   H     0.96266   0.24249   0.25000   0.00000  Uiso   1.00
H183   H     0.96298   0.09213   0.24670   0.00000  Uiso   1.00
H184   H     0.70400   0.24249   0.24999   0.00000  Uiso   1.00
N185   N     0.83333   0.28402   0.25000   0.00000  Uiso   1.00
N186   N     0.83333   0.04931   0.25000   0.00000  Uiso   1.00
O187   O     0.77321   0.20625   0.25000   0.00000  Uiso   1.00
O188   O     0.89345   0.12709   0.25001   0.00000  Uiso   1.00
O189   O     0.89345   0.20625   0.25001   0.00000  Uiso   1.00
O190   O     0.77321   0.12709   0.25000   0.00000  Uiso   1.00
O191   O     0.83333   0.20626   0.18573   0.00000  Uiso   1.00
O192   O     0.83334   0.12707   0.31427   0.00000  Uiso   1.00
O193   O     0.83334   0.20626   0.31427   0.00000  Uiso   1.00
O194   O     0.83333   0.12707   0.18573   0.00000  Uiso   1.00
O195   O     0.78440   0.05041   0.19081   0.00000  Uiso   1.00
C196   C     0.74289   0.03610   0.19248   0.00000  Uiso   1.00
H197   H     0.72314   0.06600   0.18266   0.00000  Uiso   1.00
H198   H     0.73383   0.02443   0.22608   0.00000  Uiso   1.00
H199   H     0.73618   0.00833   0.16785   0.00000  Uiso   1.00
O200   O     0.87575   0.28431   0.31517   0.00000  Uiso   1.00
C201   C     0.85740   0.29388   0.35619   0.00000  Uiso   1.00
H202   H     0.86893   0.26813   0.38089   0.00000  Uiso   1.00
H203   H     0.82326   0.29091   0.35405   0.00000  Uiso   1.00
H204   H     0.86613   0.32872   0.36911   0.00000  Uiso   1.00
O205   O     0.88227   0.05041   0.30919   0.00000  Uiso   1.00
C206   C     0.92378   0.03610   0.30753   0.00000  Uiso   1.00
H207   H     0.94352   0.06600   0.31734   0.00000  Uiso   1.00
H208   H     0.93284   0.02442   0.27393   0.00000  Uiso   1.00
H209   H     0.93048   0.00834   0.33216   0.00000  Uiso   1.00
O210   O     0.79092   0.28431   0.18483   0.00000  Uiso   1.00
C211   C     0.80926   0.29388   0.14381   0.00000  Uiso   1.00
H212   H     0.79774   0.26812   0.11911   0.00000  Uiso   1.00
H213   H     0.84341   0.29092   0.14594   0.00000  Uiso   1.00
H214   H     0.80053   0.32872   0.13089   0.00000  Uiso   1.00
O215   O     0.87885   0.23059   0.02414   0.00000  Uiso   1.00
H216   H     0.89311   0.25189   0.04535   0.00000  Uiso   1.00
O217   O     0.88079   0.09748   0.47309   0.00000  Uiso   1.00
H218   H     0.88157   0.10234   0.00553   0.00000  Uiso   1.00
O219   O     0.78781   0.23059   0.47586   0.00000  Uiso   1.00
H220   H     0.77355   0.25188   0.45465   0.00000  Uiso   1.00
O221   O     0.78588   0.09748   0.02691   0.00000  Uiso   1.00
H222   H     0.78510   0.10233   0.49447   0.00000  Uiso   1.00
C223   C     0.08742   0.50009   0.25038   0.00000  Uiso   1.00
C224   C     0.24591   0.50009   0.24962   0.00000  Uiso   1.00
C225   C     0.16672   0.49992   0.16506   0.00000  Uiso   1.00
C226   C     0.16662   0.49992   0.33494   0.00000  Uiso   1.00
C227   C     0.14230   0.35849   0.22035   0.00000  Uiso   1.00
C228   C     0.18844   0.64189   0.28187   0.00000  Uiso   1.00
C229   C     0.19104   0.35849   0.27964   0.00000  Uiso   1.00
C230   C     0.14489   0.64189   0.21813   0.00000  Uiso   1.00
C231   C     0.02122   0.45840   0.25118   0.00000  Uiso   1.00
C232   C     0.31202   0.54279   0.24988   0.00000  Uiso   1.00
C233   C     0.31211   0.45840   0.24883   0.00000  Uiso   1.00
C234   C     0.02131   0.54279   0.25011   0.00000  Uiso   1.00
C235   C     0.18953   0.53199   0.04753   0.00000  Uiso   1.00
C236   C     0.19021   0.46465   0.45250   0.00000  Uiso   1.00
C237   C     0.14381   0.53199   0.45248   0.00000  Uiso   1.00
C238   C     0.14312   0.46464   0.04750   0.00000  Uiso   1.00
C239   C     0.18951   0.53231   0.09393   0.00000  Uiso   1.00
C240   C     0.18925   0.46546   0.40638   0.00000  Uiso   1.00
C241   C     0.14382   0.53231   0.40607   0.00000  Uiso   1.00
C242   C     0.14408   0.46546   0.09362   0.00000  Uiso   1.00
C243   C     0.16668   0.49940   0.11682   0.00000  Uiso   1.00
C244   C     0.16665   0.49940   0.38318   0.00000  Uiso   1.00
C245   C     0.16628   0.49815   0.02429   0.00000  Uiso   1.00
C246   C     0.16705   0.49815   0.47571   0.00000  Uiso   1.00
C247   C     0.29056   0.50046   0.24925   0.00000  Uiso   1.00
C248   C     0.04278   0.50046   0.25075   0.00000  Uiso   1.00
Cu249  Cu    0.16667   0.54689   0.25000   0.00000  Uiso   1.00
Cu250  Cu    0.16667   0.45311   0.25000   0.00000  Uiso   1.00
H251   H     0.20784   0.55765   0.11220   0.00000  Uiso   1.00
H252   H     0.20697   0.43994   0.38857   0.00000  Uiso   1.00
H253   H     0.12549   0.55764   0.38780   0.00000  Uiso   1.00
H254   H     0.12637   0.43993   0.11143   0.00000  Uiso   1.00
H255   H     0.03702   0.42547   0.25331   0.00000  Uiso   1.00
H256   H     0.29600   0.57583   0.25000   0.00000  Uiso   1.00
H257   H     0.29631   0.42547   0.24670   0.00000  Uiso   1.00
H258   H     0.03734   0.57583   0.24999   0.00000  Uiso   1.00
N259   N     0.16667   0.61736   0.25000   0.00000  Uiso   1.00
N260   N     0.16667   0.38264   0.25000   0.00000  Uiso   1.00
O261   O     0.10655   0.53958   0.25000   0.00000  Uiso   1.00
O262   O     0.22679   0.46042   0.25001   0.00000  Uiso   1.00
O263   O     0.22679   0.53958   0.25001   0.00000  Uiso   1.00
O264   O     0.10655   0.46042   0.25000   0.00000  Uiso   1.00
O265   O     0.16666   0.53959   0.18573   0.00000  Uiso   1.00
O266   O     0.16667   0.46041   0.31427   0.00000  Uiso   1.00
O267   O     0.16667   0.53959   0.31427   0.00000  Uiso   1.00
O268   O     0.16666   0.46041   0.18573   0.00000  Uiso   1.00
O269   O     0.11773   0.38374   0.19081   0.00000  Uiso   1.00
C270   C     0.07622   0.36943   0.19248   0.00000  Uiso   1.00
H271   H     0.05648   0.39933   0.18266   0.00000  Uiso   1.00
H272   H     0.06716   0.35776   0.22608   0.00000  Uiso   1.00
H273   H     0.06951   0.34167   0.16785   0.00000  Uiso   1.00
O274   O     0.20908   0.61765   0.31517   0.00000  Uiso   1.00
C275   C     0.19073   0.62721   0.35619   0.00000  Uiso   1.00
H276   H     0.20226   0.60146   0.38089   0.00000  Uiso   1.00
H277   H     0.15659   0.62424   0.35405   0.00000  Uiso   1.00
H278   H     0.19946   0.66205   0.36911   0.00000  Uiso   1.00
O279   O     0.21560   0.38374   0.30919   0.00000  Uiso   1.00
C280   C     0.25711   0.36943   0.30753   0.00000  Uiso   1.00
H281   H     0.27685   0.39933   0.31734   0.00000  Uiso   1.00
H282   H     0.26617   0.35775   0.27393   0.00000  Uiso   1.00
H283   H     0.26382   0.34167   0.33216   0.00000  Uiso   1.00
O284   O     0.12425   0.61765   0.18483   0.00000  Uiso   1.00
C285   C     0.14260   0.62721   0.14381   0.00000  Uiso   1.00
H286   H     0.13107   0.60146   0.11911   0.00000  Uiso   1.00
H287   H     0.17674   0.62425   0.14594   0.00000  Uiso   1.00
H288   H     0.13386   0.66205   0.13089   0.00000  Uiso   1.00
O289   O     0.21218   0.56392   0.02414   0.00000  Uiso   1.00
H290   H     0.22644   0.58522   0.04535   0.00000  Uiso   1.00
O291   O     0.21413   0.43082   0.47309   0.00000  Uiso   1.00
H292   H     0.21490   0.43567   0.00553   0.00000  Uiso   1.00
O293   O     0.12115   0.56392   0.47586   0.00000  Uiso   1.00
H294   H     0.10689   0.58522   0.45465   0.00000  Uiso   1.00
O295   O     0.11921   0.43081   0.02691   0.00000  Uiso   1.00
H296   H     0.11844   0.43566   0.49447   0.00000  Uiso   1.00
C297   C     0.42075   0.50009   0.25038   0.00000  Uiso   1.00
C298   C     0.57925   0.50009   0.24962   0.00000  Uiso   1.00
C299   C     0.50005   0.49992   0.16506   0.00000  Uiso   1.00
C300   C     0.49995   0.49992   0.33494   0.00000  Uiso   1.00
C301   C     0.47563   0.35849   0.22035   0.00000  Uiso   1.00
C302   C     0.52177   0.64189   0.28187   0.00000  Uiso   1.00
C303   C     0.52437   0.35849   0.27964   0.00000  Uiso   1.00
C304   C     0.47823   0.64189   0.21813   0.00000  Uiso   1.00
C305   C     0.35455   0.45840   0.25118   0.00000  Uiso   1.00
C306   C     0.64535   0.54279   0.24988   0.00000  Uiso   1.00
C307   C     0.64545   0.45840   0.24883   0.00000  Uiso   1.00
C308   C     0.35465   0.54279   0.25011   0.00000  Uiso   1.00
C309   C     0.52286   0.53199   0.04753   0.00000  Uiso   1.00
C310   C     0.52355   0.46465   0.45250   0.00000  Uiso   1.00
C311   C     0.47714   0.53199   0.45248   0.00000  Uiso   1.00
C312   C     0.47646   0.46464   0.04750   0.00000  Uiso   1.00
C313   C     0.52285   0.53231   0.09393   0.00000  Uiso   1.00
C314   C     0.52259   0.46546   0.40638   0.00000  Uiso   1.00
C315   C     0.47715   0.53231   0.40607   0.00000  Uiso   1.00
C316   C     0.47742   0.46546   0.09362   0.00000  Uiso   1.00
C317   C     0.50002   0.49940   0.11682   0.00000  Uiso   1.00
C318   C     0.49999   0.49940   0.38318   0.00000  Uiso   1.00
C319   C     0.49962   0.49815   0.02429   0.00000  Uiso   1.00
C320   C     0.50038   0.49815   0.47571   0.00000  Uiso   1.00
C321   C     0.62389   0.50046   0.24925   0.00000  Uiso   1.00
C322   C     0.37611   0.50046   0.25075   0.00000  Uiso   1.00
Cu323  Cu    0.50000   0.54689   0.25000   0.00000  Uiso   1.00
Cu324  Cu    0.50000   0.45311   0.25000   0.00000  Uiso   1.00
H325   H     0.54118   0.55765   0.11220   0.00000  Uiso   1.00
H326   H     0.54030   0.43994   0.38857   0.00000  Uiso   1.00
H327   H     0.45882   0.55764   0.38780   0.00000  Uiso   1.00
H328   H     0.45970   0.43993   0.11143   0.00000  Uiso   1.00
H329   H     0.37036   0.42547   0.25331   0.00000  Uiso   1.00
H330   H     0.62933   0.57583   0.25000   0.00000  Uiso   1.00
H331   H     0.62964   0.42547   0.24670   0.00000  Uiso   1.00
H332   H     0.37067   0.57583   0.24999   0.00000  Uiso   1.00
N333   N     0.50000   0.61736   0.25000   0.00000  Uiso   1.00
N334   N     0.50000   0.38264   0.25000   0.00000  Uiso   1.00
O335   O     0.43988   0.53958   0.25000   0.00000  Uiso   1.00
O336   O     0.56012   0.46042   0.25001   0.00000  Uiso   1.00
O337   O     0.56012   0.53958   0.25001   0.00000  Uiso   1.00
O338   O     0.43988   0.46042   0.25000   0.00000  Uiso   1.00
O339   O     0.50000   0.53959   0.18573   0.00000  Uiso   1.00
O340   O     0.50000   0.46041   0.31427   0.00000  Uiso   1.00
O341   O     0.50000   0.53959   0.31427   0.00000  Uiso   1.00
O342   O     0.50000   0.46041   0.18573   0.00000  Uiso   1.00
O343   O     0.45106   0.38374   0.19081   0.00000  Uiso   1.00
C344   C     0.40955   0.36943   0.19248   0.00000  Uiso   1.00
H345   H     0.38981   0.39933   0.18266   0.00000  Uiso   1.00
H346   H     0.40050   0.35776   0.22608   0.00000  Uiso   1.00
H347   H     0.40285   0.34167   0.16785   0.00000  Uiso   1.00
O348   O     0.54241   0.61765   0.31517   0.00000  Uiso   1.00
C349   C     0.52407   0.62721   0.35619   0.00000  Uiso   1.00
H350   H     0.53560   0.60146   0.38089   0.00000  Uiso   1.00
H351   H     0.48992   0.62424   0.35405   0.00000  Uiso   1.00
H352   H     0.53279   0.66205   0.36911   0.00000  Uiso   1.00
O353   O     0.54894   0.38374   0.30919   0.00000  Uiso   1.00
C354   C     0.59045   0.36943   0.30753   0.00000  Uiso   1.00
H355   H     0.61019   0.39933   0.31734   0.00000  Uiso   1.00
H356   H     0.59951   0.35775   0.27393   0.00000  Uiso   1.00
H357   H     0.59715   0.34167   0.33216   0.00000  Uiso   1.00
O358   O     0.45759   0.61765   0.18483   0.00000  Uiso   1.00
C359   C     0.47593   0.62721   0.14381   0.00000  Uiso   1.00
H360   H     0.46440   0.60146   0.11911   0.00000  Uiso   1.00
H361   H     0.51007   0.62425   0.14594   0.00000  Uiso   1.00
H362   H     0.46720   0.66205   0.13089   0.00000  Uiso   1.00
O363   O     0.54552   0.56392   0.02414   0.00000  Uiso   1.00
H364   H     0.55978   0.58522   0.04535   0.00000  Uiso   1.00
O365   O     0.54746   0.43082   0.47309   0.00000  Uiso   1.00
H366   H     0.54823   0.43567   0.00553   0.00000  Uiso   1.00
O367   O     0.45448   0.56392   0.47586   0.00000  Uiso   1.00
H368   H     0.44022   0.58522   0.45465   0.00000  Uiso   1.00
O369   O     0.45255   0.43081   0.02691   0.00000  Uiso   1.00
H370   H     0.45177   0.43566   0.49447   0.00000  Uiso   1.00
C371   C     0.75409   0.50009   0.25038   0.00000  Uiso   1.00
C372   C     0.91258   0.50009   0.24962   0.00000  Uiso   1.00
C373   C     0.83338   0.49992   0.16506   0.00000  Uiso   1.00
C374   C     0.83328   0.49992   0.33494   0.00000  Uiso   1.00
C375   C     0.80896   0.35849   0.22035   0.00000  Uiso   1.00
C376   C     0.85511   0.64189   0.28187   0.00000  Uiso   1.00
C377   C     0.85770   0.35849   0.27964   0.00000  Uiso   1.00
C378   C     0.81156   0.64189   0.21813   0.00000  Uiso   1.00
C379   C     0.68789   0.45840   0.25118   0.00000  Uiso   1.00
C380   C     0.97869   0.54279   0.24988   0.00000  Uiso   1.00
C381   C     0.97878   0.45840   0.24883   0.00000  Uiso   1.00
C382   C     0.68798   0.54279   0.25011   0.00000  Uiso   1.00
C383   C     0.85619   0.53199   0.04753   0.00000  Uiso   1.00
C384   C     0.85688   0.46465   0.45250   0.00000  Uiso   1.00
C385   C     0.81047   0.53199   0.45248   0.00000  Uiso   1.00
C386   C     0.80979   0.46464   0.04750   0.00000  Uiso   1.00
C387   C     0.85618   0.53231   0.09393   0.00000  Uiso   1.00
C388   C     0.85592   0.46546   0.40638   0.00000  Uiso   1.00
C389   C     0.81048   0.53231   0.40607   0.00000  Uiso   1.00
C390   C     0.81075   0.46546   0.09362   0.00000  Uiso   1.00
C391   C     0.83335   0.49940   0.11682   0.00000  Uiso   1.00
C392   C     0.83332   0.49940   0.38318   0.00000  Uiso   1.00
C393   C     0.83295   0.49815   0.02429   0.00000  Uiso   1.00
C394   C     0.83372   0.49815   0.47571   0.00000  Uiso   1.00
C395   C     0.95722   0.50046   0.24925   0.00000  Uiso   1.00
C396   C     0.70944   0.50046   0.25075   0.00000  Uiso   1.00
Cu397  Cu    0.83333   0.54689   0.25000   0.00000  Uiso   1.00
Cu398  Cu    0.83333   0.45311   0.25000   0.00000  Uiso   1.00
H399   H     0.87451   0.55765   0.11220   0.00000  Uiso   1.00
H400   H     0.87363   0.43994   0.38857   0.00000  Uiso   1.00
H401   H     0.79215   0.55764   0.38780   0.00000  Uiso   1.00
H402   H     0.79304   0.43993   0.11143   0.00000  Uiso   1.00
H403   H     0.70369   0.42547   0.25331   0.00000  Uiso   1.00
H404   H     0.96266   0.57583   0.25000   0.00000  Uiso   1.00
H405   H     0.96298   0.42547   0.24670   0.00000  Uiso   1.00
H406   H     0.70400   0.57583   0.24999   0.00000  Uiso   1.00
N407   N     0.83333   0.61736   0.25000   0.00000  Uiso   1.00
N408   N     0.83333   0.38264   0.25000   0.00000  Uiso   1.00
O409   O     0.77321   0.53958   0.25000   0.00000  Uiso   1.00
O410   O     0.89345   0.46042   0.25001   0.00000  Uiso   1.00
O411   O     0.89345   0.53958   0.25001   0.00000  Uiso   1.00
O412   O     0.77321   0.46042   0.25000   0.00000  Uiso   1.00
O413   O     0.83333   0.53959   0.18573   0.00000  Uiso   1.00
O414   O     0.83334   0.46041   0.31427   0.00000  Uiso   1.00
O415   O     0.83334   0.53959   0.31427   0.00000  Uiso   1.00
O416   O     0.83333   0.46041   0.18573   0.00000  Uiso   1.00
O417   O     0.78440   0.38374   0.19081   0.00000  Uiso   1.00
C418   C     0.74289   0.36943   0.19248   0.00000  Uiso   1.00
H419   H     0.72314   0.39933   0.18266   0.00000  Uiso   1.00
H420   H     0.73383   0.35776   0.22608   0.00000  Uiso   1.00
H421   H     0.73618   0.34167   0.16785   0.00000  Uiso   1.00
O422   O     0.87575   0.61765   0.31517   0.00000  Uiso   1.00
C423   C     0.85740   0.62721   0.35619   0.00000  Uiso   1.00
H424   H     0.86893   0.60146   0.38089   0.00000  Uiso   1.00
H425   H     0.82326   0.62424   0.35405   0.00000  Uiso   1.00
H426   H     0.86613   0.66205   0.36911   0.00000  Uiso   1.00
O427   O     0.88227   0.38374   0.30919   0.00000  Uiso   1.00
C428   C     0.92378   0.36943   0.30753   0.00000  Uiso   1.00
H429   H     0.94352   0.39933   0.31734   0.00000  Uiso   1.00
H430   H     0.93284   0.35775   0.27393   0.00000  Uiso   1.00
H431   H     0.93048   0.34167   0.33216   0.00000  Uiso   1.00
O432   O     0.79092   0.61765   0.18483   0.00000  Uiso   1.00
C433   C     0.80926   0.62721   0.14381   0.00000  Uiso   1.00
H434   H     0.79774   0.60146   0.11911   0.00000  Uiso   1.00
H435   H     0.84341   0.62425   0.14594   0.00000  Uiso   1.00
H436   H     0.80053   0.66205   0.13089   0.00000  Uiso   1.00
O437   O     0.87885   0.56392   0.02414   0.00000  Uiso   1.00
H438   H     0.89311   0.58522   0.04535   0.00000  Uiso   1.00
O439   O     0.88079   0.43082   0.47309   0.00000  Uiso   1.00
H440   H     0.88157   0.43567   0.00553   0.00000  Uiso   1.00
O441   O     0.78781   0.56392   0.47586   0.00000  Uiso   1.00
H442   H     0.77355   0.58522   0.45465   0.00000  Uiso   1.00
O443   O     0.78588   0.43081   0.02691   0.00000  Uiso   1.00
H444   H     0.78510   0.43566   0.49447   0.00000  Uiso   1.00
C445   C     0.08742   0.83342   0.25038   0.00000  Uiso   1.00
C446   C     0.24591   0.83342   0.24962   0.00000  Uiso   1.00
C447   C     0.16672   0.83326   0.16506   0.00000  Uiso   1.00
C448   C     0.16662   0.83326   0.33494   0.00000  Uiso   1.00
C449   C     0.14230   0.69182   0.22035   0.00000  Uiso   1.00
C450   C     0.18844   0.97522   0.28187   0.00000  Uiso   1.00
C451   C     0.19104   0.69182   0.27964   0.00000  Uiso   1.00
C452   C     0.14489   0.97522   0.21813   0.00000  Uiso   1.00
C453   C     0.02122   0.79173   0.25118   0.00000  Uiso   1.00
C454   C     0.31202   0.87612   0.24988   0.00000  Uiso   1.00
C455   C     0.31211   0.79173   0.24883   0.00000  Uiso   1.00
C456   C     0.02131   0.87612   0.25011   0.00000  Uiso   1.00
C457   C     0.18953   0.86532   0.04753   0.00000  Uiso   1.00
C458   C     0.19021   0.79798   0.45250   0.00000  Uiso   1.00
C459   C     0.14381   0.86532   0.45248   0.00000  Uiso   1.00
C460   C     0.14312   0.79798   0.04750   0.00000  Uiso   1.00
C461   C     0.18951   0.86564   0.09393   0.00000  Uiso   1.00
C462   C     0.18925   0.79880   0.40638   0.00000  Uiso   1.00
C463   C     0.14382   0.86564   0.40607   0.00000  Uiso   1.00
C464   C     0.14408   0.79880   0.09362   0.00000  Uiso   1.00
C465   C     0.16668   0.83273   0.11682   0.00000  Uiso   1.00
C466   C     0.16665   0.83273   0.38318   0.00000  Uiso   1.00
C467   C     0.16628   0.83149   0.02429   0.00000  Uiso   1.00
C468   C     0.16705   0.83149   0.47571   0.00000  Uiso   1.00
C469   C     0.29056   0.83379   0.24925   0.00000  Uiso   1.00
C470   C     0.04278   0.83379   0.25075   0.00000  Uiso   1.00
Cu471  Cu    0.16667   0.88022   0.25000   0.00000  Uiso   1.00
Cu472  Cu    0.16667   0.78645   0.25000   0.00000  Uiso   1.00
H473   H     0.20784   0.89098   0.11220   0.00000  Uiso   1.00
H474   H     0.20697   0.77327   0.38857   0.00000  Uiso   1.00
H475   H     0.12549   0.89098   0.38780   0.00000  Uiso   1.00
H476   H     0.12637   0.77327   0.11143   0.00000  Uiso   1.00
H477   H     0.03702   0.75880   0.25331   0.00000  Uiso   1.00
H478   H     0.29600   0.90916   0.25000   0.00000  Uiso   1.00
H479   H     0.29631   0.75880   0.24670   0.00000  Uiso   1.00
H480   H     0.03734   0.90916   0.24999   0.00000  Uiso   1.00
N481   N     0.16667   0.95069   0.25000   0.00000  Uiso   1.00
N482   N     0.16667   0.71598   0.25000   0.00000  Uiso   1.00
O483   O     0.10655   0.87291   0.25000   0.00000  Uiso   1.00
O484   O     0.22679   0.79375   0.25001   0.00000  Uiso   1.00
O485   O     0.22679   0.87291   0.25001   0.00000  Uiso   1.00
O486   O     0.10655   0.79375   0.25000   0.00000  Uiso   1.00
O487   O     0.16666   0.87293   0.18573   0.00000  Uiso   1.00
O488   O     0.16667   0.79374   0.31427   0.00000  Uiso   1.00
O489   O     0.16667   0.87293   0.31427   0.00000  Uiso   1.00
O490   O     0.16666   0.79374   0.18573   0.00000  Uiso   1.00
O491   O     0.11773   0.71707   0.19081   0.00000  Uiso   1.00
C492   C     0.07622   0.70276   0.19248   0.00000  Uiso   1.00
H493   H     0.05648   0.73267   0.18266   0.00000  Uiso   1.00
H494   H     0.06716   0.69109   0.22608   0.00000  Uiso   1.00
H495   H     0.06951   0.67500   0.16785   0.00000  Uiso   1.00
O496   O     0.20908   0.95098   0.31517   0.00000  Uiso   1.00
C497   C     0.19073   0.96055   0.35619   0.00000  Uiso   1.00
H498   H     0.20226   0.93480   0.38089   0.00000  Uiso   1.00
H499   H     0.15659   0.95757   0.35405   0.00000  Uiso   1.00
H500   H     0.19946   0.99538   0.36911   0.00000  Uiso   1.00
O501   O     0.21560   0.71707   0.30919   0.00000  Uiso   1.00
C502   C     0.25711   0.70276   0.30753   0.00000  Uiso   1.00
H503   H     0.27685   0.73267   0.31734   0.00000  Uiso   1.00
H504   H     0.26617   0.69109   0.27393   0.00000  Uiso   1.00
H505   H     0.26382   0.67500   0.33216   0.00000  Uiso   1.00
O506   O     0.12425   0.95098   0.18483   0.00000  Uiso   1.00
C507   C     0.14260   0.96055   0.14381   0.00000  Uiso   1.00
H508   H     0.13107   0.93479   0.11911   0.00000  Uiso   1.00
H509   H     0.17674   0.95758   0.14594   0.00000  Uiso   1.00
H510   H     0.13386   0.99538   0.13089   0.00000  Uiso   1.00
O511   O     0.21218   0.89726   0.02414   0.00000  Uiso   1.00
H512   H     0.22644   0.91856   0.04535   0.00000  Uiso   1.00
O513   O     0.21413   0.76415   0.47309   0.00000  Uiso   1.00
H514   H     0.21490   0.76900   0.00553   0.00000  Uiso   1.00
O515   O     0.12115   0.89725   0.47586   0.00000  Uiso   1.00
H516   H     0.10689   0.91855   0.45465   0.00000  Uiso   1.00
O517   O     0.11921   0.76414   0.02691   0.00000  Uiso   1.00
H518   H     0.11844   0.76900   0.49447   0.00000  Uiso   1.00
C519   C     0.42075   0.83342   0.25038   0.00000  Uiso   1.00
C520   C     0.57925   0.83342   0.24962   0.00000  Uiso   1.00
C521   C     0.50005   0.83326   0.16506   0.00000  Uiso   1.00
C522   C     0.49995   0.83326   0.33494   0.00000  Uiso   1.00
C523   C     0.47563   0.69182   0.22035   0.00000  Uiso   1.00
C524   C     0.52177   0.97522   0.28187   0.00000  Uiso   1.00
C525   C     0.52437   0.69182   0.27964   0.00000  Uiso   1.00
C526   C     0.47823   0.97522   0.21813   0.00000  Uiso   1.00
C527   C     0.35455   0.79173   0.25118   0.00000  Uiso   1.00
C528   C     0.64535   0.87612   0.24988   0.00000  Uiso   1.00
C529   C     0.64545   0.79173   0.24883   0.00000  Uiso   1.00
C530   C     0.35465   0.87612   0.25011   0.00000  Uiso   1.00
C531   C     0.52286   0.86532   0.04753   0.00000  Uiso   1.00
C532   C     0.52355   0.79798   0.45250   0.00000  Uiso   1.00
C533   C     0.47714   0.86532   0.45248   0.00000  Uiso   1.00
C534   C     0.47646   0.79798   0.04750   0.00000  Uiso   1.00
C535   C     0.52285   0.86564   0.09393   0.00000  Uiso   1.00
C536   C     0.52259   0.79880   0.40638   0.00000  Uiso   1.00
C537   C     0.47715   0.86564   0.40607   0.00000  Uiso   1.00
C538   C     0.47742   0.79880   0.09362   0.00000  Uiso   1.00
C539   C     0.50002   0.83273   0.11682   0.00000  Uiso   1.00
C540   C     0.49999   0.83273   0.38318   0.00000  Uiso   1.00
C541   C     0.49962   0.83149   0.02429   0.00000  Uiso   1.00
C542   C     0.50038   0.83149   0.47571   0.00000  Uiso   1.00
C543   C     0.62389   0.83379   0.24925   0.00000  Uiso   1.00
C544   C     0.37611   0.83379   0.25075   0.00000  Uiso   1.00
Cu545  Cu    0.50000   0.88022   0.25000   0.00000  Uiso   1.00
Cu546  Cu    0.50000   0.78645   0.25000   0.00000  Uiso   1.00
H547   H     0.54118   0.89098   0.11220   0.00000  Uiso   1.00
H548   H     0.54030   0.77327   0.38857   0.00000  Uiso   1.00
H549   H     0.45882   0.89098   0.38780   0.00000  Uiso   1.00
H550   H     0.45970   0.77327   0.11143   0.00000  Uiso   1.00
H551   H     0.37036   0.75880   0.25331   0.00000  Uiso   1.00
H552   H     0.62933   0.90916   0.25000   0.00000  Uiso   1.00
H553   H     0.62964   0.75880   0.24670   0.00000  Uiso   1.00
H554   H     0.37067   0.90916   0.24999   0.00000  Uiso   1.00
N555   N     0.50000   0.95069   0.25000   0.00000  Uiso   1.00
N556   N     0.50000   0.71598   0.25000   0.00000  Uiso   1.00
O557   O     0.43988   0.87291   0.25000   0.00000  Uiso   1.00
O558   O     0.56012   0.79375   0.25001   0.00000  Uiso   1.00
O559   O     0.56012   0.87291   0.25001   0.00000  Uiso   1.00
O560   O     0.43988   0.79375   0.25000   0.00000  Uiso   1.00
O561   O     0.50000   0.87293   0.18573   0.00000  Uiso   1.00
O562   O     0.50000   0.79374   0.31427   0.00000  Uiso   1.00
O563   O     0.50000   0.87293   0.31427   0.00000  Uiso   1.00
O564   O     0.50000   0.79374   0.18573   0.00000  Uiso   1.00
O565   O     0.45106   0.71707   0.19081   0.00000  Uiso   1.00
C566   C     0.40955   0.70276   0.19248   0.00000  Uiso   1.00
H567   H     0.38981   0.73267   0.18266   0.00000  Uiso   1.00
H568   H     0.40050   0.69109   0.22608   0.00000  Uiso   1.00
H569   H     0.40285   0.67500   0.16785   0.00000  Uiso   1.00
O570   O     0.54241   0.95098   0.31517   0.00000  Uiso   1.00
C571   C     0.52407   0.96055   0.35619   0.00000  Uiso   1.00
H572   H     0.53560   0.93480   0.38089   0.00000  Uiso   1.00
H573   H     0.48992   0.95757   0.35405   0.00000  Uiso   1.00
H574   H     0.53279   0.99538   0.36911   0.00000  Uiso   1.00
O575   O     0.54894   0.71707   0.30919   0.00000  Uiso   1.00
C576   C     0.59045   0.70276   0.30753   0.00000  Uiso   1.00
H577   H     0.61019   0.73267   0.31734   0.00000  Uiso   1.00
H578   H     0.59951   0.69109   0.27393   0.00000  Uiso   1.00
H579   H     0.59715   0.67500   0.33216   0.00000  Uiso   1.00
O580   O     0.45759   0.95098   0.18483   0.00000  Uiso   1.00
C581   C     0.47593   0.96055   0.14381   0.00000  Uiso   1.00
H582   H     0.46440   0.93479   0.11911   0.00000  Uiso   1.00
H583   H     0.51007   0.95758   0.14594   0.00000  Uiso   1.00
H584   H     0.46720   0.99538   0.13089   0.00000  Uiso   1.00
O585   O     0.54552   0.89726   0.02414   0.00000  Uiso   1.00
H586   H     0.55978   0.91856   0.04535   0.00000  Uiso   1.00
O587   O     0.54746   0.76415   0.47309   0.00000  Uiso   1.00
H588   H     0.54823   0.76900   0.00553   0.00000  Uiso   1.00
O589   O     0.45448   0.89725   0.47586   0.00000  Uiso   1.00
H590   H     0.44022   0.91855   0.45465   0.00000  Uiso   1.00
O591   O     0.45255   0.76414   0.02691   0.00000  Uiso   1.00
H592   H     0.45177   0.76900   0.49447   0.00000  Uiso   1.00
C593   C     0.75409   0.83342   0.25038   0.00000  Uiso   1.00
C594   C     0.91258   0.83342   0.24962   0.00000  Uiso   1.00
C595   C     0.83338   0.83326   0.16506   0.00000  Uiso   1.00
C596   C     0.83328   0.83326   0.33494   0.00000  Uiso   1.00
C597   C     0.80896   0.69182   0.22035   0.00000  Uiso   1.00
C598   C     0.85511   0.97522   0.28187   0.00000  Uiso   1.00
C599   C     0.85770   0.69182   0.27964   0.00000  Uiso   1.00
C600   C     0.81156   0.97522   0.21813   0.00000  Uiso   1.00
C601   C     0.68789   0.79173   0.25118   0.00000  Uiso   1.00
C602   C     0.97869   0.87612   0.24988   0.00000  Uiso   1.00
C603   C     0.97878   0.79173   0.24883   0.00000  Uiso   1.00
C604   C     0.68798   0.87612   0.25011   0.00000  Uiso   1.00
C605   C     0.85619   0.86532   0.04753   0.00000  Uiso   1.00
C606   C     0.85688   0.79798   0.45250   0.00000  Uiso   1.00
C607   C     0.81047   0.86532   0.45248   0.00000  Uiso   1.00
C608   C     0.80979   0.79798   0.04750   0.00000  Uiso   1.00
C609   C     0.85618   0.86564   0.09393   0.00000  Uiso   1.00
C610   C     0.85592   0.79880   0.40638   0.00000  Uiso   1.00
C611   C     0.81048   0.86564   0.40607   0.00000  Uiso   1.00
C612   C     0.81075   0.79880   0.09362   0.00000  Uiso   1.00
C613   C     0.83335   0.83273   0.11682   0.00000  Uiso   1.00
C614   C     0.83332   0.83273   0.38318   0.00000  Uiso   1.00
C615   C     0.83295   0.83149   0.02429   0.00000  Uiso   1.00
C616   C     0.83372   0.83149   0.47571   0.00000  Uiso   1.00
C617   C     0.95722   0.83379   0.24925   0.00000  Uiso   1.00
C618   C     0.70944   0.83379   0.25075   0.00000  Uiso   1.00
Cu619  Cu    0.83333   0.88022   0.25000   0.00000  Uiso   1.00
Cu620  Cu    0.83333   0.78645   0.25000   0.00000  Uiso   1.00
H621   H     0.87451   0.89098   0.11220   0.00000  Uiso   1.00
H622   H     0.87363   0.77327   0.38857   0.00000  Uiso   1.00
H623   H     0.79215   0.89098   0.38780   0.00000  Uiso   1.00
H624   H     0.79304   0.77327   0.11143   0.00000  Uiso   1.00
H625   H     0.70369   0.75880   0.25331   0.00000  Uiso   1.00
H626   H     0.96266   0.90916   0.25000   0.00000  Uiso   1.00
H627   H     0.96298   0.75880   0.24670   0.00000  Uiso   1.00
H628   H     0.70400   0.90916   0.24999   0.00000  Uiso   1.00
N629   N     0.83333   0.95069   0.25000   0.00000  Uiso   1.00
N630   N     0.83333   0.71598   0.25000   0.00000  Uiso   1.00
O631   O     0.77321   0.87291   0.25000   0.00000  Uiso   1.00
O632   O     0.89345   0.79375   0.25001   0.00000  Uiso   1.00
O633   O     0.89345   0.87291   0.25001   0.00000  Uiso   1.00
O634   O     0.77321   0.79375   0.25000   0.00000  Uiso   1.00
O635   O     0.83333   0.87293   0.18573   0.00000  Uiso   1.00
O636   O     0.83334   0.79374   0.31427   0.00000  Uiso   1.00
O637   O     0.83334   0.87293   0.31427   0.00000  Uiso   1.00
O638   O     0.83333   0.79374   0.18573   0.00000  Uiso   1.00
O639   O     0.78440   0.71707   0.19081   0.00000  Uiso   1.00
C640   C     0.74289   0.70276   0.19248   0.00000  Uiso   1.00
H641   H     0.72314   0.73267   0.18266   0.00000  Uiso   1.00
H642   H     0.73383   0.69109   0.22608   0.00000  Uiso   1.00
H643   H     0.73618   0.67500   0.16785   0.00000  Uiso   1.00
O644   O     0.87575   0.95098   0.31517   0.00000  Uiso   1.00
C645   C     0.85740   0.96055   0.35619   0.00000  Uiso   1.00
H646   H     0.86893   0.93480   0.38089   0.00000  Uiso   1.00
H647   H     0.82326   0.95757   0.35405   0.00000  Uiso   1.00
H648   H     0.86613   0.99538   0.36911   0.00000  Uiso   1.00
O649   O     0.88227   0.71707   0.30919   0.00000  Uiso   1.00
C650   C     0.92378   0.70276   0.30753   0.00000  Uiso   1.00
H651   H     0.94352   0.73267   0.31734   0.00000  Uiso   1.00
H652   H     0.93284   0.69109   0.27393   0.00000  Uiso   1.00
H653   H     0.93048   0.67500   0.33216   0.00000  Uiso   1.00
O654   O     0.79092   0.95098   0.18483   0.00000  Uiso   1.00
C655   C     0.80926   0.96055   0.14381   0.00000  Uiso   1.00
H656   H     0.79774   0.93479   0.11911   0.00000  Uiso   1.00
H657   H     0.84341   0.95758   0.14594   0.00000  Uiso   1.00
H658   H     0.80053   0.99538   0.13089   0.00000  Uiso   1.00
O659   O     0.87885   0.89726   0.02414   0.00000  Uiso   1.00
H660   H     0.89311   0.91856   0.04535   0.00000  Uiso   1.00
O661   O     0.88079   0.76415   0.47309   0.00000  Uiso   1.00
H662   H     0.88157   0.76900   0.00553   0.00000  Uiso   1.00
O663   O     0.78781   0.89725   0.47586   0.00000  Uiso   1.00
H664   H     0.77355   0.91855   0.45465   0.00000  Uiso   1.00
O665   O     0.78588   0.76414   0.02691   0.00000  Uiso   1.00
H666   H     0.78510   0.76900   0.49447   0.00000  Uiso   1.00
C667   C     0.08742   0.16675   0.75038   0.00000  Uiso   1.00
C668   C     0.24591   0.16675   0.74962   0.00000  Uiso   1.00
C669   C     0.16672   0.16659   0.66506   0.00000  Uiso   1.00
C670   C     0.16662   0.16659   0.83494   0.00000  Uiso   1.00
C671   C     0.14230   0.02516   0.72035   0.00000  Uiso   1.00
C672   C     0.18844   0.30856   0.78187   0.00000  Uiso   1.00
C673   C     0.19104   0.02516   0.77964   0.00000  Uiso   1.00
C674   C     0.14489   0.30856   0.71813   0.00000  Uiso   1.00
C675   C     0.02122   0.12507   0.75118   0.00000  Uiso   1.00
C676   C     0.31202   0.20945   0.74988   0.00000  Uiso   1.00
C677   C     0.31211   0.12507   0.74883   0.00000  Uiso   1.00
C678   C     0.02131   0.20945   0.75011   0.00000  Uiso   1.00
C679   C     0.18953   0.19865   0.54753   0.00000  Uiso   1.00
C680   C     0.19021   0.13131   0.95250   0.00000  Uiso   1.00
C681   C     0.14381   0.19865   0.95248   0.00000  Uiso   1.00
C682   C     0.14312   0.13131   0.54750   0.00000  Uiso   1.00
C683   C     0.18951   0.19897   0.59393   0.00000  Uiso   1.00
C684   C     0.18925   0.13213   0.90638   0.00000  Uiso   1.00
C685   C     0.14382   0.19897   0.90607   0.00000  Uiso   1.00
C686   C     0.14408   0.13213   0.59362   0.00000  Uiso   1.00
C687   C     0.16668   0.16607   0.61682   0.00000  Uiso   1.00
C688   C     0.16665   0.16607   0.88318   0.00000  Uiso   1.00
C689   C     0.16628   0.16482   0.52429   0.00000  Uiso   1.00
C690   C     0.16705   0.16482   0.97571   0.00000  Uiso   1.00
C691   C     0.29056   0.16712   0.74925   0.00000  Uiso   1.00
C692   C     0.04278   0.16712   0.75075   0.00000  Uiso   1.00
Cu693  Cu    0.16667   0.21355   0.75000   0.00000  Uiso   1.00
Cu694  Cu    0.16667   0.11978   0.75000   0.00000  Uiso   1.00
H695   H     0.20784   0.22431   0.61220   0.00000  Uiso   1.00
H696   H     0.20697   0.10660   0.88857   0.00000  Uiso   1.00
H697   H     0.12549   0.22431   0.88780   0.00000  Uiso   1.00
H698   H     0.12637   0.10660   0.61143   0.00000  Uiso   1.00
H699   H     0.03702   0.09214   0.75331   0.00000  Uiso   1.00
H700   H     0.29600   0.24249   0.75000   0.00000  Uiso   1.00
H701   H     0.29631   0.09213   0.74670   0.00000  Uiso   1.00
H702   H     0.03734   0.24249   0.74999   0.00000  Uiso   1.00
N703   N     0.16667   0.28402   0.75000   0.00000  Uiso   1.00
N704   N     0.16667   0.04931   0.75000   0.00000  Uiso   1.00
O705   O     0.10655   0.20625   0.75000   0.00000  Uiso   1.00
O706   O     0.22679   0.12709   0.75001   0.00000  Uiso   1.00
O707   O     0.22679   0.20625   0.75001   0.00000  Uiso   1.00
O708   O     0.10655   0.12709   0.75000   0.00000  Uiso   1.00
O709   O     0.16666   0.20626   0.68573   0.00000  Uiso   1.00
O710   O     0.16667   0.12707   0.81427   0.00000  Uiso   1.00
O711   O     0.16667   0.20626   0.81427   0.00000  Uiso   1.00
O712   O     0.16666   0.12707   0.68573   0.00000  Uiso   1.00
O713   O     0.11773   0.05041   0.69081   0.00000  Uiso   1.00
C714   C     0.07622   0.03610   0.69248   0.00000  Uiso   1.00
H715   H     0.05648   0.06600   0.68266   0.00000  Uiso   1.00
H716   H     0.06716   0.02443   0.72608   0.00000  Uiso   1.00
H717   H     0.06951   0.00833   0.66785   0.00000  Uiso   1.00
O718   O     0.20908   0.28431   0.81517   0.00000  Uiso   1.00
C719   C     0.19073   0.29388   0.85619   0.00000  Uiso   1.00
H720   H     0.20226   0.26813   0.88089   0.00000  Uiso   1.00
H721   H     0.15659   0.29091   0.85405   0.00000  Uiso   1.00
H722   H     0.19946   0.32872   0.86911   0.00000  Uiso   1.00
O723   O     0.21560   0.05041   0.80919   0.00000  Uiso   1.00
C724   C     0.25711   0.03610   0.80753   0.00000  Uiso   1.00
H725   H     0.27685   0.06600   0.81734   0.00000  Uiso   1.00
H726   H     0.26617   0.02442   0.77393   0.00000  Uiso   1.00
H727   H     0.26382   0.00834   0.83216   0.00000  Uiso   1.00
O728   O     0.12425   0.28431   0.68483   0.00000  Uiso   1.00
C729   C     0.14260   0.29388   0.64381   0.00000  Uiso   1.00
H730   H     0.13107   0.26812   0.61911   0.00000  Uiso   1.00
H731   H     0.17674   0.29092   0.64594   0.00000  Uiso   1.00
H732   H     0.13386   0.32872   0.63089   0.00000  Uiso   1.00
O733   O     0.21218   0.23059   0.52414   0.00000  Uiso   1.00
H734   H     0.22644   0.25189   0.54535   0.00000  Uiso   1.00
O735   O     0.21413   0.09748   0.97309   0.00000  Uiso   1.00
H736   H     0.21490   0.10234   0.50553   0.00000  Uiso   1.00
O737   O     0.12115   0.23059   0.97586   0.00000  Uiso   1.00
H738   H     0.10689   0.25188   0.95465   0.00000  Uiso   1.00
O739   O     0.11921   0.09748   0.52691   0.00000  Uiso   1.00
H740   H     0.11844   0.10233   0.99447   0.00000  Uiso   1.00
C741   C     0.42075   0.16675   0.75038   0.00000  Uiso   1.00
C742   C     0.57925   0.16675   0.74962   0.00000  Uiso   1.00
C743   C     0.50005   0.16659   0.66506   0.00000  Uiso   1.00
C744   C     0.49995   0.16659   0.83494   0.00000  Uiso   1.00
C745   C     0.47563   0.02516   0.72035   0.00000  Uiso   1.00
C746   C     0.52177   0.30856   0.78187   0.00000  Uiso   1.00
C747   C     0.52437   0.02516   0.77964   0.00000  Uiso   1.00
C748   C     0.47823   0.30856   0.71813   0.00000  Uiso   1.00
C749   C     0.35455   0.12507   0.75118   0.00000  Uiso   1.00
C750   C     0.64535   0.20945   0.74988   0.00000  Uiso   1.00
C751   C     0.64545   0.12507   0.74883   0.00000  Uiso   1.00
C752   C     0.35465   0.20945   0.75011   0.00000  Uiso   1.00
C753   C     0.52286   0.19865   0.54753   0.00000  Uiso   1.00
C754   C     0.52355   0.13131   0.95250   0.00000  Uiso   1.00
C755   C     0.47714   0.19865   0.95248   0.00000  Uiso   1.00
C756   C     0.47646   0.13131   0.54750   0.00000  Uiso   1.00
C757   C     0.52285   0.19897   0.59393   0.00000  Uiso   1.00
C758   C     0.52259   0.13213   0.90638   0.00000  Uiso   1.00
C759   C     0.47715   0.19897   0.90607   0.00000  Uiso   1.00
C760   C     0.47742   0.13213   0.59362   0.00000  Uiso   1.00
C761   C     0.50002   0.16607   0.61682   0.00000  Uiso   1.00
C762   C     0.49999   0.16607   0.88318   0.00000  Uiso   1.00
C763   C     0.49962   0.16482   0.52429   0.00000  Uiso   1.00
C764   C     0.50038   0.16482   0.97571   0.00000  Uiso   1.00
C765   C     0.62389   0.16712   0.74925   0.00000  Uiso   1.00
C766   C     0.37611   0.16712   0.75075   0.00000  Uiso   1.00
Cu767  Cu    0.50000   0.21355   0.75000   0.00000  Uiso   1.00
Cu768  Cu    0.50000   0.11978   0.75000   0.00000  Uiso   1.00
H769   H     0.54118   0.22431   0.61220   0.00000  Uiso   1.00
H770   H     0.54030   0.10660   0.88857   0.00000  Uiso   1.00
H771   H     0.45882   0.22431   0.88780   0.00000  Uiso   1.00
H772   H     0.45970   0.10660   0.61143   0.00000  Uiso   1.00
H773   H     0.37036   0.09214   0.75331   0.00000  Uiso   1.00
H774   H     0.62933   0.24249   0.75000   0.00000  Uiso   1.00
H775   H     0.62964   0.09213   0.74670   0.00000  Uiso   1.00
H776   H     0.37067   0.24249   0.74999   0.00000  Uiso   1.00
N777   N     0.50000   0.28402   0.75000   0.00000  Uiso   1.00
N778   N     0.50000   0.04931   0.75000   0.00000  Uiso   1.00
O779   O     0.43988   0.20625   0.75000   0.00000  Uiso   1.00
O780   O     0.56012   0.12709   0.75001   0.00000  Uiso   1.00
O781   O     0.56012   0.20625   0.75001   0.00000  Uiso   1.00
O782   O     0.43988   0.12709   0.75000   0.00000  Uiso   1.00
O783   O     0.50000   0.20626   0.68573   0.00000  Uiso   1.00
O784   O     0.50000   0.12707   0.81427   0.00000  Uiso   1.00
O785   O     0.50000   0.20626   0.81427   0.00000  Uiso   1.00
O786   O     0.50000   0.12707   0.68573   0.00000  Uiso   1.00
O787   O     0.45106   0.05041   0.69081   0.00000  Uiso   1.00
C788   C     0.40955   0.03610   0.69248   0.00000  Uiso   1.00
H789   H     0.38981   0.06600   0.68266   0.00000  Uiso   1.00
H790   H     0.40050   0.02443   0.72608   0.00000  Uiso   1.00
H791   H     0.40285   0.00833   0.66785   0.00000  Uiso   1.00
O792   O     0.54241   0.28431   0.81517   0.00000  Uiso   1.00
C793   C     0.52407   0.29388   0.85619   0.00000  Uiso   1.00
H794   H     0.53560   0.26813   0.88089   0.00000  Uiso   1.00
H795   H     0.48992   0.29091   0.85405   0.00000  Uiso   1.00
H796   H     0.53279   0.32872   0.86911   0.00000  Uiso   1.00
O797   O     0.54894   0.05041   0.80919   0.00000  Uiso   1.00
C798   C     0.59045   0.03610   0.80753   0.00000  Uiso   1.00
H799   H     0.61019   0.06600   0.81734   0.00000  Uiso   1.00
H800   H     0.59951   0.02442   0.77393   0.00000  Uiso   1.00
H801   H     0.59715   0.00834   0.83216   0.00000  Uiso   1.00
O802   O     0.45759   0.28431   0.68483   0.00000  Uiso   1.00
C803   C     0.47593   0.29388   0.64381   0.00000  Uiso   1.00
H804   H     0.46440   0.26812   0.61911   0.00000  Uiso   1.00
H805   H     0.51007   0.29092   0.64594   0.00000  Uiso   1.00
H806   H     0.46720   0.32872   0.63089   0.00000  Uiso   1.00
O807   O     0.54552   0.23059   0.52414   0.00000  Uiso   1.00
H808   H     0.55978   0.25189   0.54535   0.00000  Uiso   1.00
O809   O     0.54746   0.09748   0.97309   0.00000  Uiso   1.00
H810   H     0.54823   0.10234   0.50553   0.00000  Uiso   1.00
O811   O     0.45448   0.23059   0.97586   0.00000  Uiso   1.00
H812   H     0.44022   0.25188   0.95465   0.00000  Uiso   1.00
O813   O     0.45255   0.09748   0.52691   0.00000  Uiso   1.00
H814   H     0.45177   0.10233   0.99447   0.00000  Uiso   1.00
C815   C     0.75409   0.16675   0.75038   0.00000  Uiso   1.00
C816   C     0.91258   0.16675   0.74962   0.00000  Uiso   1.00
C817   C     0.83338   0.16659   0.66506   0.00000  Uiso   1.00
C818   C     0.83328   0.16659   0.83494   0.00000  Uiso   1.00
C819   C     0.80896   0.02516   0.72035   0.00000  Uiso   1.00
C820   C     0.85511   0.30856   0.78187   0.00000  Uiso   1.00
C821   C     0.85770   0.02516   0.77964   0.00000  Uiso   1.00
C822   C     0.81156   0.30856   0.71813   0.00000  Uiso   1.00
C823   C     0.68789   0.12507   0.75118   0.00000  Uiso   1.00
C824   C     0.97869   0.20945   0.74988   0.00000  Uiso   1.00
C825   C     0.97878   0.12507   0.74883   0.00000  Uiso   1.00
C826   C     0.68798   0.20945   0.75011   0.00000  Uiso   1.00
C827   C     0.85619   0.19865   0.54753   0.00000  Uiso   1.00
C828   C     0.85688   0.13131   0.95250   0.00000  Uiso   1.00
C829   C     0.81047   0.19865   0.95248   0.00000  Uiso   1.00
C830   C     0.80979   0.13131   0.54750   0.00000  Uiso   1.00
C831   C     0.85618   0.19897   0.59393   0.00000  Uiso   1.00
C832   C     0.85592   0.13213   0.90638   0.00000  Uiso   1.00
C833   C     0.81048   0.19897   0.90607   0.00000  Uiso   1.00
C834   C     0.81075   0.13213   0.59362   0.00000  Uiso   1.00
C835   C     0.83335   0.16607   0.61682   0.00000  Uiso   1.00
C836   C     0.83332   0.16607   0.88318   0.00000  Uiso   1.00
C837   C     0.83295   0.16482   0.52429   0.00000  Uiso   1.00
C838   C     0.83372   0.16482   0.97571   0.00000  Uiso   1.00
C839   C     0.95722   0.16712   0.74925   0.00000  Uiso   1.00
C840   C     0.70944   0.16712   0.75075   0.00000  Uiso   1.00
Cu841  Cu    0.83333   0.21355   0.75000   0.00000  Uiso   1.00
Cu842  Cu    0.83333   0.11978   0.75000   0.00000  Uiso   1.00
H843   H     0.87451   0.22431   0.61220   0.00000  Uiso   1.00
H844   H     0.87363   0.10660   0.88857   0.00000  Uiso   1.00
H845   H     0.79215   0.22431   0.88780   0.00000  Uiso   1.00
H846   H     0.79304   0.10660   0.61143   0.00000  Uiso   1.00
H847   H     0.70369   0.09214   0.75331   0.00000  Uiso   1.00
H848   H     0.96266   0.24249   0.75000   0.00000  Uiso   1.00
H849   H     0.96298   0.09213   0.74670   0.00000  Uiso   1.00
H850   H     0.70400   0.24249   0.74999   0.00000  Uiso   1.00
N851   N     0.83333   0.28402   0.75000   0.00000  Uiso   1.00
N852   N     0.83333   0.04931   0.75000   0.00000  Uiso   1.00
O853   O     0.77321   0.20625   0.75000   0.00000  Uiso   1.00
O854   O     0.89345   0.12709   0.75001   0.00000  Uiso   1.00
O855   O     0.89345   0.20625   0.75001   0.00000  Uiso   1.00
O856   O     0.77321   0.12709   0.75000   0.00000  Uiso   1.00
O857   O     0.83333   0.20626   0.68573   0.00000  Uiso   1.00
O858   O     0.83334   0.12707   0.81427   0.00000  Uiso   1.00
O859   O     0.83334   0.20626   0.81427   0.00000  Uiso   1.00
O860   O     0.83333   0.12707   0.68573   0.00000  Uiso   1.00
O861   O     0.78440   0.05041   0.69081   0.00000  Uiso   1.00
C862   C     0.74289   0.03610   0.69248   0.00000  Uiso   1.00
H863   H     0.72314   0.06600   0.68266   0.00000  Uiso   1.00
H864   H     0.73383   0.02443   0.72608   0.00000  Uiso   1.00
H865   H     0.73618   0.00833   0.66785   0.00000  Uiso   1.00
O866   O     0.87575   0.28431   0.81517   0.00000  Uiso   1.00
C867   C     0.85740   0.29388   0.85619   0.00000  Uiso   1.00
H868   H     0.86893   0.26813   0.88089   0.00000  Uiso   1.00
H869   H     0.82326   0.29091   0.85405   0.00000  Uiso   1.00
H870   H     0.86613   0.32872   0.86911   0.00000  Uiso   1.00
O871   O     0.88227   0.05041   0.80919   0.00000  Uiso   1.00
C872   C     0.92378   0.03610   0.80753   0.00000  Uiso   1.00
H873   H     0.94352   0.06600   0.81734   0.00000  Uiso   1.00
H874   H     0.93284   0.02442   0.77393   0.00000  Uiso   1.00
H875   H     0.93048   0.00834   0.83216   0.00000  Uiso   1.00
O876   O     0.79092   0.28431   0.68483   0.00000  Uiso   1.00
C877   C     0.80926   0.29388   0.64381   0.00000  Uiso   1.00
H878   H     0.79774   0.26812   0.61911   0.00000  Uiso   1.00
H879   H     0.84341   0.29092   0.64594   0.00000  Uiso   1.00
H880   H     0.80053   0.32872   0.63089   0.00000  Uiso   1.00
O881   O     0.87885   0.23059   0.52414   0.00000  Uiso   1.00
H882   H     0.89311   0.25189   0.54535   0.00000  Uiso   1.00
O883   O     0.88079   0.09748   0.97309   0.00000  Uiso   1.00
H884   H     0.88157   0.10234   0.50553   0.00000  Uiso   1.00
O885   O     0.78781   0.23059   0.97586   0.00000  Uiso   1.00
H886   H     0.77355   0.25188   0.95465   0.00000  Uiso   1.00
O887   O     0.78588   0.09748   0.52691   0.00000  Uiso   1.00
H888   H     0.78510   0.10233   0.99447   0.00000  Uiso   1.00
C889   C     0.08742   0.50009   0.75038   0.00000  Uiso   1.00
C890   C     0.24591   0.50009   0.74962   0.00000  Uiso   1.00
C891   C     0.16672   0.49992   0.66506   0.00000  Uiso   1.00
C892   C     0.16662   0.49992   0.83494   0.00000  Uiso   1.00
C893   C     0.14230   0.35849   0.72035   0.00000  Uiso   1.00
C894   C     0.18844   0.64189   0.78187   0.00000  Uiso   1.00
C895   C     0.19104   0.35849   0.77964   0.00000  Uiso   1.00
C896   C     0.14489   0.64189   0.71813   0.00000  Uiso   1.00
C897   C     0.02122   0.45840   0.75118   0.00000  Uiso   1.00
C898   C     0.31202   0.54279   0.74988   0.00000  Uiso   1.00
C899   C     0.31211   0.45840   0.74883   0.00000  Uiso   1.00
C900   C     0.02131   0.54279   0.75011   0.00000  Uiso   1.00
C901   C     0.18953   0.53199   0.54753   0.00000  Uiso   1.00
C902   C     0.19021   0.46465   0.95250   0.00000  Uiso   1.00
C903   C     0.14381   0.53199   0.95248   0.00000  Uiso   1.00
C904   C     0.14312   0.46464   0.54750   0.00000  Uiso   1.00
C905   C     0.18951   0.53231   0.59393   0.00000  Uiso   1.00
C906   C     0.18925   0.46546   0.90638   0.00000  Uiso   1.00
C907   C     0.14382   0.53231   0.90607   0.00000  Uiso   1.00
C908   C     0.14408   0.46546   0.59362   0.00000  Uiso   1.00
C909   C     0.16668   0.49940   0.61682   0.00000  Uiso   1.00
C910   C     0.16665   0.49940   0.88318   0.00000  Uiso   1.00
C911   C     0.16628   0.49815   0.52429   0.00000  Uiso   1.00
C912   C     0.16705   0.49815   0.97571   0.00000  Uiso   1.00
C913   C     0.29056   0.50046   0.74925   0.00000  Uiso   1.00
C914   C     0.04278   0.50046   0.75075   0.00000  Uiso   1.00
Cu915  Cu    0.16667   0.54689   0.75000   0.00000  Uiso   1.00
Cu916  Cu    0.16667   0.45311   0.75000   0.00000  Uiso   1.00
H917   H     0.20784   0.55765   0.61220   0.00000  Uiso   1.00
H918   H     0.20697   0.43994   0.88857   0.00000  Uiso   1.00
H919   H     0.12549   0.55764   0.88780   0.00000  Uiso   1.00
H920   H     0.12637   0.43993   0.61143   0.00000  Uiso   1.00
H921   H     0.03702   0.42547   0.75331   0.00000  Uiso   1.00
H922   H     0.29600   0.57583   0.75000   0.00000  Uiso   1.00
H923   H     0.29631   0.42547   0.74670   0.00000  Uiso   1.00
H924   H     0.03734   0.57583   0.74999   0.00000  Uiso   1.00
N925   N     0.16667   0.61736   0.75000   0.00000  Uiso   1.00
N926   N     0.16667   0.38264   0.75000   0.00000  Uiso   1.00
O927   O     0.10655   0.53958   0.75000   0.00000  Uiso   1.00
O928   O     0.22679   0.46042   0.75001   0.00000  Uiso   1.00
O929   O     0.22679   0.53958   0.75001   0.00000  Uiso   1.00
O930   O     0.10655   0.46042   0.75000   0.00000  Uiso   1.00
O931   O     0.16666   0.53959   0.68573   0.00000  Uiso   1.00
O932   O     0.16667   0.46041   0.81427   0.00000  Uiso   1.00
O933   O     0.16667   0.53959   0.81427   0.00000  Uiso   1.00
O934   O     0.16666   0.46041   0.68573   0.00000  Uiso   1.00
O935   O     0.11773   0.38374   0.69081   0.00000  Uiso   1.00
C936   C     0.07622   0.36943   0.69248   0.00000  Uiso   1.00
H937   H     0.05648   0.39933   0.68266   0.00000  Uiso   1.00
H938   H     0.06716   0.35776   0.72608   0.00000  Uiso   1.00
H939   H     0.06951   0.34167   0.66785   0.00000  Uiso   1.00
O940   O     0.20908   0.61765   0.81517   0.00000  Uiso   1.00
C941   C     0.19073   0.62721   0.85619   0.00000  Uiso   1.00
H942   H     0.20226   0.60146   0.88089   0.00000  Uiso   1.00
H943   H     0.15659   0.62424   0.85405   0.00000  Uiso   1.00
H944   H     0.19946   0.66205   0.86911   0.00000  Uiso   1.00
O945   O     0.21560   0.38374   0.80919   0.00000  Uiso   1.00
C946   C     0.25711   0.36943   0.80753   0.00000  Uiso   1.00
H947   H     0.27685   0.39933   0.81734   0.00000  Uiso   1.00
H948   H     0.26617   0.35775   0.77393   0.00000  Uiso   1.00
H949   H     0.26382   0.34167   0.83216   0.00000  Uiso   1.00
O950   O     0.12425   0.61765   0.68483   0.00000  Uiso   1.00
C951   C     0.14260   0.62721   0.64381   0.00000  Uiso   1.00
H952   H     0.13107   0.60146   0.61911   0.00000  Uiso   1.00
H953   H     0.17674   0.62425   0.64594   0.00000  Uiso   1.00
H954   H     0.13386   0.66205   0.63089   0.00000  Uiso   1.00
O955   O     0.21218   0.56392   0.52414   0.00000  Uiso   1.00
H956   H     0.22644   0.58522   0.54535   0.00000  Uiso   1.00
O957   O     0.21413   0.43082   0.97309   0.00000  Uiso   1.00
H958   H     0.21490   0.43567   0.50553   0.00000  Uiso   1.00
O959   O     0.12115   0.56392   0.97586   0.00000  Uiso   1.00
H960   H     0.10689   0.58522   0.95465   0.00000  Uiso   1.00
O961   O     0.11921   0.43081   0.52691   0.00000  Uiso   1.00
H962   H     0.11844   0.43566   0.99447   0.00000  Uiso   1.00
C963   C     0.42075   0.50009   0.75038   0.00000  Uiso   1.00
C964   C     0.57925   0.50009   0.74962   0.00000  Uiso   1.00
C965   C     0.50005   0.49992   0.66506   0.00000  Uiso   1.00
C966   C     0.49995   0.49992   0.83494   0.00000  Uiso   1.00
C967   C     0.47563   0.35849   0.72035   0.00000  Uiso   1.00
C968   C     0.52177   0.64189   0.78187   0.00000  Uiso   1.00
C969   C     0.52437   0.35849   0.77964   0.00000  Uiso   1.00
C970   C     0.47823   0.64189   0.71813   0.00000  Uiso   1.00
C971   C     0.35455   0.45840   0.75118   0.00000  Uiso   1.00
C972   C     0.64535   0.54279   0.74988   0.00000  Uiso   1.00
C973   C     0.64545   0.45840   0.74883   0.00000  Uiso   1.00
C974   C     0.35465   0.54279   0.75011   0.00000  Uiso   1.00
C975   C     0.52286   0.53199   0.54753   0.00000  Uiso   1.00
C976   C     0.52355   0.46465   0.95250   0.00000  Uiso   1.00
C977   C     0.47714   0.53199   0.95248   0.00000  Uiso   1.00
C978   C     0.47646   0.46464   0.54750   0.00000  Uiso   1.00
C979   C     0.52285   0.53231   0.59393   0.00000  Uiso   1.00
C980   C     0.52259   0.46546   0.90638   0.00000  Uiso   1.00
C981   C     0.47715   0.53231   0.90607   0.00000  Uiso   1.00
C982   C     0.47742   0.46546   0.59362   0.00000  Uiso   1.00
C983   C     0.50002   0.49940   0.61682   0.00000  Uiso   1.00
C984   C     0.49999   0.49940   0.88318   0.00000  Uiso   1.00
C985   C     0.49962   0.49815   0.52429   0.00000  Uiso   1.00
C986   C     0.50038   0.49815   0.97571   0.00000  Uiso   1.00
C987   C     0.62389   0.50046   0.74925   0.00000  Uiso   1.00
C988   C     0.37611   0.50046   0.75075   0.00000  Uiso   1.00
Cu989  Cu    0.50000   0.54689   0.75000   0.00000  Uiso   1.00
Cu990  Cu    0.50000   0.45311   0.75000   0.00000  Uiso   1.00
H991   H     0.54118   0.55765   0.61220   0.00000  Uiso   1.00
H992   H     0.54030   0.43994   0.88857   0.00000  Uiso   1.00
H993   H     0.45882   0.55764   0.88780   0.00000  Uiso   1.00
H994   H     0.45970   0.43993   0.61143   0.00000  Uiso   1.00
H995   H     0.37036   0.42547   0.75331   0.00000  Uiso   1.00
H996   H     0.62933   0.57583   0.75000   0.00000  Uiso   1.00
H997   H     0.62964   0.42547   0.74670   0.00000  Uiso   1.00
H998   H     0.37067   0.57583   0.74999   0.00000  Uiso   1.00
N999   N     0.50000   0.61736   0.75000   0.00000  Uiso   1.00
N1000  N     0.50000   0.38264   0.75000   0.00000  Uiso   1.00
O1001  O     0.43988   0.53958   0.75000   0.00000  Uiso   1.00
O1002  O     0.56012   0.46042   0.75001   0.00000  Uiso   1.00
O1003  O     0.56012   0.53958   0.75001   0.00000  Uiso   1.00
O1004  O     0.43988   0.46042   0.75000   0.00000  Uiso   1.00
O1005  O     0.50000   0.53959   0.68573   0.00000  Uiso   1.00
O1006  O     0.50000   0.46041   0.81427   0.00000  Uiso   1.00
O1007  O     0.50000   0.53959   0.81427   0.00000  Uiso   1.00
O1008  O     0.50000   0.46041   0.68573   0.00000  Uiso   1.00
O1009  O     0.45106   0.38374   0.69081   0.00000  Uiso   1.00
C1010  C     0.40955   0.36943   0.69248   0.00000  Uiso   1.00
H1011  H     0.38981   0.39933   0.68266   0.00000  Uiso   1.00
H1012  H     0.40050   0.35776   0.72608   0.00000  Uiso   1.00
H1013  H     0.40285   0.34167   0.66785   0.00000  Uiso   1.00
O1014  O     0.54241   0.61765   0.81517   0.00000  Uiso   1.00
C1015  C     0.52407   0.62721   0.85619   0.00000  Uiso   1.00
H1016  H     0.53560   0.60146   0.88089   0.00000  Uiso   1.00
H1017  H     0.48992   0.62424   0.85405   0.00000  Uiso   1.00
H1018  H     0.53279   0.66205   0.86911   0.00000  Uiso   1.00
O1019  O     0.54894   0.38374   0.80919   0.00000  Uiso   1.00
C1020  C     0.59045   0.36943   0.80753   0.00000  Uiso   1.00
H1021  H     0.61019   0.39933   0.81734   0.00000  Uiso   1.00
H1022  H     0.59951   0.35775   0.77393   0.00000  Uiso   1.00
H1023  H     0.59715   0.34167   0.83216   0.00000  Uiso   1.00
O1024  O     0.45759   0.61765   0.68483   0.00000  Uiso   1.00
C1025  C     0.47593   0.62721   0.64381   0.00000  Uiso   1.00
H1026  H     0.46440   0.60146   0.61911   0.00000  Uiso   1.00
H1027  H     0.51007   0.62425   0.64594   0.00000  Uiso   1.00
H1028  H     0.46720   0.66205   0.63089   0.00000  Uiso   1.00
O1029  O     0.54552   0.56392   0.52414   0.00000  Uiso   1.00
H1030  H     0.55978   0.58522   0.54535   0.00000  Uiso   1.00
O1031  O     0.54746   0.43082   0.97309   0.00000  Uiso   1.00
H1032  H     0.54823   0.43567   0.50553   0.00000  Uiso   1.00
O1033  O     0.45448   0.56392   0.97586   0.00000  Uiso   1.00
H1034  H     0.44022   0.58522   0.95465   0.00000  Uiso   1.00
O1035  O     0.45255   0.43081   0.52691   0.00000  Uiso   1.00
H1036  H     0.45177   0.43566   0.99447   0.00000  Uiso   1.00
C1037  C     0.75409   0.50009   0.75038   0.00000  Uiso   1.00
C1038  C     0.91258   0.50009   0.74962   0.00000  Uiso   1.00
C1039  C     0.83338   0.49992   0.66506   0.00000  Uiso   1.00
C1040  C     0.83328   0.49992   0.83494   0.00000  Uiso   1.00
C1041  C     0.80896   0.35849   0.72035   0.00000  Uiso   1.00
C1042  C     0.85511   0.64189   0.78187   0.00000  Uiso   1.00
C1043  C     0.85770   0.35849   0.77964   0.00000  Uiso   1.00
C1044  C     0.81156   0.64189   0.71813   0.00000  Uiso   1.00
C1045  C     0.68789   0.45840   0.75118   0.00000  Uiso   1.00
C1046  C     0.97869   0.54279   0.74988   0.00000  Uiso   1.00
C1047  C     0.97878   0.45840   0.74883   0.00000  Uiso   1.00
C1048  C     0.68798   0.54279   0.75011   0.00000  Uiso   1.00
C1049  C     0.85619   0.53199   0.54753   0.00000  Uiso   1.00
C1050  C     0.85688   0.46465   0.95250   0.00000  Uiso   1.00
C1051  C     0.81047   0.53199   0.95248   0.00000  Uiso   1.00
C1052  C     0.80979   0.46464   0.54750   0.00000  Uiso   1.00
C1053  C     0.85618   0.53231   0.59393   0.00000  Uiso   1.00
C1054  C     0.85592   0.46546   0.90638   0.00000  Uiso   1.00
C1055  C     0.81048   0.53231   0.90607   0.00000  Uiso   1.00
C1056  C     0.81075   0.46546   0.59362   0.00000  Uiso   1.00
C1057  C     0.83335   0.49940   0.61682   0.00000  Uiso   1.00
C1058  C     0.83332   0.49940   0.88318   0.00000  Uiso   1.00
C1059  C     0.83295   0.49815   0.52429   0.00000  Uiso   1.00
C1060  C     0.83372   0.49815   0.97571   0.00000  Uiso   1.00
C1061  C     0.95722   0.50046   0.74925   0.00000  Uiso   1.00
C1062  C     0.70944   0.50046   0.75075   0.00000  Uiso   1.00
Cu1063 Cu    0.83333   0.54689   0.75000   0.00000  Uiso   1.00
Cu1064 Cu    0.83333   0.45311   0.75000   0.00000  Uiso   1.00
H1065  H     0.87451   0.55765   0.61220   0.00000  Uiso   1.00
H1066  H     0.87363   0.43994   0.88857   0.00000  Uiso   1.00
H1067  H     0.79215   0.55764   0.88780   0.00000  Uiso   1.00
H1068  H     0.79304   0.43993   0.61143   0.00000  Uiso   1.00
H1069  H     0.70369   0.42547   0.75331   0.00000  Uiso   1.00
H1070  H     0.96266   0.57583   0.75000   0.00000  Uiso   1.00
H1071  H     0.96298   0.42547   0.74670   0.00000  Uiso   1.00
H1072  H     0.70400   0.57583   0.74999   0.00000  Uiso   1.00
N1073  N     0.83333   0.61736   0.75000   0.00000  Uiso   1.00
N1074  N     0.83333   0.38264   0.75000   0.00000  Uiso   1.00
O1075  O     0.77321   0.53958   0.75000   0.00000  Uiso   1.00
O1076  O     0.89345   0.46042   0.75001   0.00000  Uiso   1.00
O1077  O     0.89345   0.53958   0.75001   0.00000  Uiso   1.00
O1078  O     0.77321   0.46042   0.75000   0.00000  Uiso   1.00
O1079  O     0.83333   0.53959   0.68573   0.00000  Uiso   1.00
O1080  O     0.83334   0.46041   0.81427   0.00000  Uiso   1.00
O1081  O     0.83334   0.53959   0.81427   0.00000  Uiso   1.00
O1082  O     0.83333   0.46041   0.68573   0.00000  Uiso   1.00
O1083  O     0.78440   0.38374   0.69081   0.00000  Uiso   1.00
C1084  C     0.74289   0.36943   0.69248   0.00000  Uiso   1.00
H1085  H     0.72314   0.39933   0.68266   0.00000  Uiso   1.00
H1086  H     0.73383   0.35776   0.72608   0.00000  Uiso   1.00
H1087  H     0.73618   0.34167   0.66785   0.00000  Uiso   1.00
O1088  O     0.87575   0.61765   0.81517   0.00000  Uiso   1.00
C1089  C     0.85740   0.62721   0.85619   0.00000  Uiso   1.00
H1090  H     0.86893   0.60146   0.88089   0.00000  Uiso   1.00
H1091  H     0.82326   0.62424   0.85405   0.00000  Uiso   1.00
H1092  H     0.86613   0.66205   0.86911   0.00000  Uiso   1.00
O1093  O     0.88227   0.38374   0.80919   0.00000  Uiso   1.00
C1094  C     0.92378   0.36943   0.80753   0.00000  Uiso   1.00
H1095  H     0.94352   0.39933   0.81734   0.00000  Uiso   1.00
H1096  H     0.93284   0.35775   0.77393   0.00000  Uiso   1.00
H1097  H     0.93048   0.34167   0.83216   0.00000  Uiso   1.00
O1098  O     0.79092   0.61765   0.68483   0.00000  Uiso   1.00
C1099  C     0.80926   0.62721   0.64381   0.00000  Uiso   1.00
H1100  H     0.79774   0.60146   0.61911   0.00000  Uiso   1.00
H1101  H     0.84341   0.62425   0.64594   0.00000  Uiso   1.00
H1102  H     0.80053   0.66205   0.63089   0.00000  Uiso   1.00
O1103  O     0.87885   0.56392   0.52414   0.00000  Uiso   1.00
H1104  H     0.89311   0.58522   0.54535   0.00000  Uiso   1.00
O1105  O     0.88079   0.43082   0.97309   0.00000  Uiso   1.00
H1106  H     0.88157   0.43567   0.50553   0.00000  Uiso   1.00
O1107  O     0.78781   0.56392   0.97586   0.00000  Uiso   1.00
H1108  H     0.77355   0.58522   0.95465   0.00000  Uiso   1.00
O1109  O     0.78588   0.43081   0.52691   0.00000  Uiso   1.00
H1110  H     0.78510   0.43566   0.99447   0.00000  Uiso   1.00
C1111  C     0.08742   0.83342   0.75038   0.00000  Uiso   1.00
C1112  C     0.24591   0.83342   0.74962   0.00000  Uiso   1.00
C1113  C     0.16672   0.83326   0.66506   0.00000  Uiso   1.00
C1114  C     0.16662   0.83326   0.83494   0.00000  Uiso   1.00
C1115  C     0.14230   0.69182   0.72035   0.00000  Uiso   1.00
C1116  C     0.18844   0.97522   0.78187   0.00000  Uiso   1.00
C1117  C     0.19104   0.69182   0.77964   0.00000  Uiso   1.00
C1118  C     0.14489   0.97522   0.71813   0.00000  Uiso   1.00
C1119  C     0.02122   0.79173   0.75118   0.00000  Uiso   1.00
C1120  C     0.31202   0.87612   0.74988   0.00000  Uiso   1.00
C1121  C     0.31211   0.79173   0.74883   0.00000  Uiso   1.00
C1122  C     0.02131   0.87612   0.75011   0.00000  Uiso   1.00
C1123  C     0.18953   0.86532   0.54753   0.00000  Uiso   1.00
C1124  C     0.19021   0.79798   0.95250   0.00000  Uiso   1.00
C1125  C     0.14381   0.86532   0.95248   0.00000  Uiso   1.00
C1126  C     0.14312   0.79798   0.54750   0.00000  Uiso   1.00
C1127  C     0.18951   0.86564   0.59393   0.00000  Uiso   1.00
C1128  C     0.18925   0.79880   0.90638   0.00000  Uiso   1.00
C1129  C     0.14382   0.86564   0.90607   0.00000  Uiso   1.00
C1130  C     0.14408   0.79880   0.59362   0.00000  Uiso   1.00
C1131  C     0.16668   0.83273   0.61682   0.00000  Uiso   1.00
C1132  C     0.16665   0.83273   0.88318   0.00000  Uiso   1.00
C1133  C     0.16628   0.83149   0.52429   0.00000  Uiso   1.00
C1134  C     0.16705   0.83149   0.97571   0.00000  Uiso   1.00
C1135  C     0.29056   0.83379   0.74925   0.00000  Uiso   1.00
C1136  C     0.04278   0.83379   0.75075   0.00000  Uiso   1.00
Cu1137 Cu    0.16667   0.88022   0.75000   0.00000  Uiso   1.00
Cu1138 Cu    0.16667   0.78645   0.75000   0.00000  Uiso   1.00
H1139  H     0.20784   0.89098   0.61220   0.00000  Uiso   1.00
H1140  H     0.20697   0.77327   0.88857   0.00000  Uiso   1.00
H1141  H     0.12549   0.89098   0.88780   0.00000  Uiso   1.00
H1142  H     0.12637   0.77327   0.61143   0.00000  Uiso   1.00
H1143  H     0.03702   0.75880   0.75331   0.00000  Uiso   1.00
H1144  H     0.29600   0.90916   0.75000   0.00000  Uiso   1.00
H1145  H     0.29631   0.75880   0.74670   0.00000  Uiso   1.00
H1146  H     0.03734   0.90916   0.74999   0.00000  Uiso   1.00
N1147  N     0.16667   0.95069   0.75000   0.00000  Uiso   1.00
N1148  N     0.16667   0.71598   0.75000   0.00000  Uiso   1.00
O1149  O     0.10655   0.87291   0.75000   0.00000  Uiso   1.00
O1150  O     0.22679   0.79375   0.75001   0.00000  Uiso   1.00
O1151  O     0.22679   0.87291   0.75001   0.00000  Uiso   1.00
O1152  O     0.10655   0.79375   0.75000   0.00000  Uiso   1.00
O1153  O     0.16666   0.87293   0.68573   0.00000  Uiso   1.00
O1154  O     0.16667   0.79374   0.81427   0.00000  Uiso   1.00
O1155  O     0.16667   0.87293   0.81427   0.00000  Uiso   1.00
O1156  O     0.16666   0.79374   0.68573   0.00000  Uiso   1.00
O1157  O     0.11773   0.71707   0.69081   0.00000  Uiso   1.00
C1158  C     0.07622   0.70276   0.69248   0.00000  Uiso   1.00
H1159  H     0.05648   0.73267   0.68266   0.00000  Uiso   1.00
H1160  H     0.06716   0.69109   0.72608   0.00000  Uiso   1.00
H1161  H     0.06951   0.67500   0.66785   0.00000  Uiso   1.00
O1162  O     0.20908   0.95098   0.81517   0.00000  Uiso   1.00
C1163  C     0.19073   0.96055   0.85619   0.00000  Uiso   1.00
H1164  H     0.20226   0.93480   0.88089   0.00000  Uiso   1.00
H1165  H     0.15659   0.95757   0.85405   0.00000  Uiso   1.00
H1166  H     0.19946   0.99538   0.86911   0.00000  Uiso   1.00
O1167  O     0.21560   0.71707   0.80919   0.00000  Uiso   1.00
C1168  C     0.25711   0.70276   0.80753   0.00000  Uiso   1.00
H1169  H     0.27685   0.73267   0.81734   0.00000  Uiso   1.00
H1170  H     0.26617   0.69109   0.77393   0.00000  Uiso   1.00
H1171  H     0.26382   0.67500   0.83216   0.00000  Uiso   1.00
O1172  O     0.12425   0.95098   0.68483   0.00000  Uiso   1.00
C1173  C     0.14260   0.96055   0.64381   0.00000  Uiso   1.00
H1174  H     0.13107   0.93479   0.61911   0.00000  Uiso   1.00
H1175  H     0.17674   0.95758   0.64594   0.00000  Uiso   1.00
H1176  H     0.13386   0.99538   0.63089   0.00000  Uiso   1.00
O1177  O     0.21218   0.89726   0.52414   0.00000  Uiso   1.00
H1178  H     0.22644   0.91856   0.54535   0.00000  Uiso   1.00
O1179  O     0.21413   0.76415   0.97309   0.00000  Uiso   1.00
H1180  H     0.21490   0.76900   0.50553   0.00000  Uiso   1.00
O1181  O     0.12115   0.89725   0.97586   0.00000  Uiso   1.00
H1182  H     0.10689   0.91855   0.95465   0.00000  Uiso   1.00
O1183  O     0.11921   0.76414   0.52691   0.00000  Uiso   1.00
H1184  H     0.11844   0.76900   0.99447   0.00000  Uiso   1.00
C1185  C     0.42075   0.83342   0.75038   0.00000  Uiso   1.00
C1186  C     0.57925   0.83342   0.74962   0.00000  Uiso   1.00
C1187  C     0.50005   0.83326   0.66506   0.00000  Uiso   1.00
C1188  C     0.49995   0.83326   0.83494   0.00000  Uiso   1.00
C1189  C     0.47563   0.69182   0.72035   0.00000  Uiso   1.00
C1190  C     0.52177   0.97522   0.78187   0.00000  Uiso   1.00
C1191  C     0.52437   0.69182   0.77964   0.00000  Uiso   1.00
C1192  C     0.47823   0.97522   0.71813   0.00000  Uiso   1.00
C1193  C     0.35455   0.79173   0.75118   0.00000  Uiso   1.00
C1194  C     0.64535   0.87612   0.74988   0.00000  Uiso   1.00
C1195  C     0.64545   0.79173   0.74883   0.00000  Uiso   1.00
C1196  C     0.35465   0.87612   0.75011   0.00000  Uiso   1.00
C1197  C     0.52286   0.86532   0.54753   0.00000  Uiso   1.00
C1198  C     0.52355   0.79798   0.95250   0.00000  Uiso   1.00
C1199  C     0.47714   0.86532   0.95248   0.00000  Uiso   1.00
C1200  C     0.47646   0.79798   0.54750   0.00000  Uiso   1.00
C1201  C     0.52285   0.86564   0.59393   0.00000  Uiso   1.00
C1202  C     0.52259   0.79880   0.90638   0.00000  Uiso   1.00
C1203  C     0.47715   0.86564   0.90607   0.00000  Uiso   1.00
C1204  C     0.47742   0.79880   0.59362   0.00000  Uiso   1.00
C1205  C     0.50002   0.83273   0.61682   0.00000  Uiso   1.00
C1206  C     0.49999   0.83273   0.88318   0.00000  Uiso   1.00
C1207  C     0.49962   0.83149   0.52429   0.00000  Uiso   1.00
C1208  C     0.50038   0.83149   0.97571   0.00000  Uiso   1.00
C1209  C     0.62389   0.83379   0.74925   0.00000  Uiso   1.00
C1210  C     0.37611   0.83379   0.75075   0.00000  Uiso   1.00
Cu1211 Cu    0.50000   0.88022   0.75000   0.00000  Uiso   1.00
Cu1212 Cu    0.50000   0.78645   0.75000   0.00000  Uiso   1.00
H1213  H     0.54118   0.89098   0.61220   0.00000  Uiso   1.00
H1214  H     0.54030   0.77327   0.88857   0.00000  Uiso   1.00
H1215  H     0.45882   0.89098   0.88780   0.00000  Uiso   1.00
H1216  H     0.45970   0.77327   0.61143   0.00000  Uiso   1.00
H1217  H     0.37036   0.75880   0.75331   0.00000  Uiso   1.00
H1218  H     0.62933   0.90916   0.75000   0.00000  Uiso   1.00
H1219  H     0.62964   0.75880   0.74670   0.00000  Uiso   1.00
H1220  H     0.37067   0.90916   0.74999   0.00000  Uiso   1.00
N1221  N     0.50000   0.95069   0.75000   0.00000  Uiso   1.00
N1222  N     0.50000   0.71598   0.75000   0.00000  Uiso   1.00
O1223  O     0.43988   0.87291   0.75000   0.00000  Uiso   1.00
O1224  O     0.56012   0.79375   0.75001   0.00000  Uiso   1.00
O1225  O     0.56012   0.87291   0.75001   0.00000  Uiso   1.00
O1226  O     0.43988   0.79375   0.75000   0.00000  Uiso   1.00
O1227  O     0.50000   0.87293   0.68573   0.00000  Uiso   1.00
O1228  O     0.50000   0.79374   0.81427   0.00000  Uiso   1.00
O1229  O     0.50000   0.87293   0.81427   0.00000  Uiso   1.00
O1230  O     0.50000   0.79374   0.68573   0.00000  Uiso   1.00
O1231  O     0.45106   0.71707   0.69081   0.00000  Uiso   1.00
C1232  C     0.40955   0.70276   0.69248   0.00000  Uiso   1.00
H1233  H     0.38981   0.73267   0.68266   0.00000  Uiso   1.00
H1234  H     0.40050   0.69109   0.72608   0.00000  Uiso   1.00
H1235  H     0.40285   0.67500   0.66785   0.00000  Uiso   1.00
O1236  O     0.54241   0.95098   0.81517   0.00000  Uiso   1.00
C1237  C     0.52407   0.96055   0.85619   0.00000  Uiso   1.00
H1238  H     0.53560   0.93480   0.88089   0.00000  Uiso   1.00
H1239  H     0.48992   0.95757   0.85405   0.00000  Uiso   1.00
H1240  H     0.53279   0.99538   0.86911   0.00000  Uiso   1.00
O1241  O     0.54894   0.71707   0.80919   0.00000  Uiso   1.00
C1242  C     0.59045   0.70276   0.80753   0.00000  Uiso   1.00
H1243  H     0.61019   0.73267   0.81734   0.00000  Uiso   1.00
H1244  H     0.59951   0.69109   0.77393   0.00000  Uiso   1.00
H1245  H     0.59715   0.67500   0.83216   0.00000  Uiso   1.00
O1246  O     0.45759   0.95098   0.68483   0.00000  Uiso   1.00
C1247  C     0.47593   0.96055   0.64381   0.00000  Uiso   1.00
H1248  H     0.46440   0.93479   0.61911   0.00000  Uiso   1.00
H1249  H     0.51007   0.95758   0.64594   0.00000  Uiso   1.00
H1250  H     0.46720   0.99538   0.63089   0.00000  Uiso   1.00
O1251  O     0.54552   0.89726   0.52414   0.00000  Uiso   1.00
H1252  H     0.55978   0.91856   0.54535   0.00000  Uiso   1.00
O1253  O     0.54746   0.76415   0.97309   0.00000  Uiso   1.00
H1254  H     0.54823   0.76900   0.50553   0.00000  Uiso   1.00
O1255  O     0.45448   0.89725   0.97586   0.00000  Uiso   1.00
H1256  H     0.44022   0.91855   0.95465   0.00000  Uiso   1.00
O1257  O     0.45255   0.76414   0.52691   0.00000  Uiso   1.00
H1258  H     0.45177   0.76900   0.99447   0.00000  Uiso   1.00
C1259  C     0.75409   0.83342   0.75038   0.00000  Uiso   1.00
C1260  C     0.91258   0.83342   0.74962   0.00000  Uiso   1.00
C1261  C     0.83338   0.83326   0.66506   0.00000  Uiso   1.00
C1262  C     0.83328   0.83326   0.83494   0.00000  Uiso   1.00
C1263  C     0.80896   0.69182   0.72035   0.00000  Uiso   1.00
C1264  C     0.85511   0.97522   0.78187   0.00000  Uiso   1.00
C1265  C     0.85770   0.69182   0.77964   0.00000  Uiso   1.00
C1266  C     0.81156   0.97522   0.71813   0.00000  Uiso   1.00
C1267  C     0.68789   0.79173   0.75118   0.00000  Uiso   1.00
C1268  C     0.97869   0.87612   0.74988   0.00000  Uiso   1.00
C1269  C     0.97878   0.79173   0.74883   0.00000  Uiso   1.00
C1270  C     0.68798   0.87612   0.75011   0.00000  Uiso   1.00
C1271  C     0.85619   0.86532   0.54753   0.00000  Uiso   1.00
C1272  C     0.85688   0.79798   0.95250   0.00000  Uiso   1.00
C1273  C     0.81047   0.86532   0.95248   0.00000  Uiso   1.00
C1274  C     0.80979   0.79798   0.54750   0.00000  Uiso   1.00
C1275  C     0.85618   0.86564   0.59393   0.00000  Uiso   1.00
C1276  C     0.85592   0.79880   0.90638   0.00000  Uiso   1.00
C1277  C     0.81048   0.86564   0.90607   0.00000  Uiso   1.00
C1278  C     0.81075   0.79880   0.59362   0.00000  Uiso   1.00
C1279  C     0.83335   0.83273   0.61682   0.00000  Uiso   1.00
C1280  C     0.83332   0.83273   0.88318   0.00000  Uiso   1.00
C1281  C     0.83295   0.83149   0.52429   0.00000  Uiso   1.00
C1282  C     0.83372   0.83149   0.97571   0.00000  Uiso   1.00
C1283  C     0.95722   0.83379   0.74925   0.00000  Uiso   1.00
C1284  C     0.70944   0.83379   0.75075   0.00000  Uiso   1.00
Cu1285 Cu    0.83333   0.88022   0.75000   0.00000  Uiso   1.00
Cu1286 Cu    0.83333   0.78645   0.75000   0.00000  Uiso   1.00
H1287  H     0.87451   0.89098   0.61220   0.00000  Uiso   1.00
H1288  H     0.87363   0.77327   0.88857   0.00000  Uiso   1.00
H1289  H     0.79215   0.89098   0.88780   0.00000  Uiso   1.00
H1290  H     0.79304   0.77327   0.61143   0.00000  Uiso   1.00
H1291  H     0.70369   0.75880   0.75331   0.00000  Uiso   1.00
H1292  H     0.96266   0.90916   0.75000   0.00000  Uiso   1.00
H1293  H     0.96298   0.75880   0.74670   0.00000  Uiso   1.00
H1294  H     0.70400   0.90916   0.74999   0.00000  Uiso   1.00
N1295  N     0.83333   0.95069   0.75000   0.00000  Uiso   1.00
N1296  N     0.83333   0.71598   0.75000   0.00000  Uiso   1.00
O1297  O     0.77321   0.87291   0.75000   0.00000  Uiso   1.00
O1298  O     0.89345   0.79375   0.75001   0.00000  Uiso   1.00
O1299  O     0.89345   0.87291   0.75001   0.00000  Uiso   1.00
O1300  O     0.77321   0.79375   0.75000   0.00000  Uiso   1.00
O1301  O     0.83333   0.87293   0.68573   0.00000  Uiso   1.00
O1302  O     0.83334   0.79374   0.81427   0.00000  Uiso   1.00
O1303  O     0.83334   0.87293   0.81427   0.00000  Uiso   1.00
O1304  O     0.83333   0.79374   0.68573   0.00000  Uiso   1.00
O1305  O     0.78440   0.71707   0.69081   0.00000  Uiso   1.00
C1306  C     0.74289   0.70276   0.69248   0.00000  Uiso   1.00
H1307  H     0.72314   0.73267   0.68266   0.00000  Uiso   1.00
H1308  H     0.73383   0.69109   0.72608   0.00000  Uiso   1.00
H1309  H     0.73618   0.67500   0.66785   0.00000  Uiso   1.00
O1310  O     0.87575   0.95098   0.81517   0.00000  Uiso   1.00
C1311  C     0.85740   0.96055   0.85619   0.00000  Uiso   1.00
H1312  H     0.86893   0.93480   0.88089   0.00000  Uiso   1.00
H1313  H     0.82326   0.95757   0.85405   0.00000  Uiso   1.00
H1314  H     0.86613   0.99538   0.86911   0.00000  Uiso   1.00
O1315  O     0.88227   0.71707   0.80919   0.00000  Uiso   1.00
C1316  C     0.92378   0.70276   0.80753   0.00000  Uiso   1.00
H1317  H     0.94352   0.73267   0.81734   0.00000  Uiso   1.00
H1318  H     0.93284   0.69109   0.77393   0.00000  Uiso   1.00
H1319  H     0.93048   0.67500   0.83216   0.00000  Uiso   1.00
O1320  O     0.79092   0.95098   0.68483   0.00000  Uiso   1.00
C1321  C     0.80926   0.96055   0.64381   0.00000  Uiso   1.00
H1322  H     0.79774   0.93479   0.61911   0.00000  Uiso   1.00
H1323  H     0.84341   0.95758   0.64594   0.00000  Uiso   1.00
H1324  H     0.80053   0.99538   0.63089   0.00000  Uiso   1.00
O1325  O     0.87885   0.89726   0.52414   0.00000  Uiso   1.00
H1326  H     0.89311   0.91856   0.54535   0.00000  Uiso   1.00
O1327  O     0.88079   0.76415   0.97309   0.00000  Uiso   1.00
H1328  H     0.88157   0.76900   0.50553   0.00000  Uiso   1.00
O1329  O     0.78781   0.89725   0.97586   0.00000  Uiso   1.00
H1330  H     0.77355   0.91855   0.95465   0.00000  Uiso   1.00
O1331  O     0.78588   0.76414   0.52691   0.00000  Uiso   1.00
H1332  H     0.78510   0.76900   0.99447   0.00000  Uiso   1.00
loop_
_geom_bond_atom_site_label_1
_geom_bond_atom_site_label_2
_geom_bond_distance
_geom_bond_site_symmetry_2
_ccdc_geom_bond_type
C1     C26     1.452   .     S
C1     O42     1.299   .     A
C1     O39     1.295   .     A
C2     O41     1.295   .     A
C2     O40     1.299   .     A
C2     C25     1.452   .     S
C3     O46     1.296   .     A
C3     O43     1.300   .     A
C3     C21     1.456   .     S
C4     C22     1.456   .     S
C4     O45     1.300   .     A
C4     O44     1.296   .     A
C5     O47     1.387   .     S
C5     N38     1.369   .     A
C5     C452    1.439   1_545 S
C6     N37     1.374   .     A
C6     O52     1.382   .     S
C6     C229    1.439   .     S
C7     N38     1.369   .     A
C7     O57     1.387   .     S
C7     C450    1.439   1_545 S
C8     N37     1.374   .     A
C8     O62     1.382   .     S
C8     C227    1.439   .     S
C9     H33     1.078   .     S
C9     C26     1.398   .     A
C9     C159    1.380   1_455 S
C10    H34     1.083   .     S
C10    C25     1.403   .     A
C10    C86     1.386   .     S
C11    C25     1.398   .     A
C11    H35     1.078   .     S
C11    C83     1.380   .     S
C12    H36     1.083   .     S
C12    C26     1.403   .     A
C12    C158    1.386   1_455 S
C13    C17     1.400   .     A
C13    C23     1.407   .     A
C13    O67     1.382   .     S
C14    C18     1.391   .     A
C14    C24     1.419   .     A
C14    O69     1.382   .     S
C15    C19     1.400   .     A
C15    C24     1.407   .     A
C15    O71     1.382   .     S
C16    C20     1.391   .     A
C16    C23     1.419   .     A
C16    O73     1.382   .     S
C17    H29     1.083   .     S
C17    C21     1.396   .     A
C18    H30     1.084   .     S
C18    C22     1.398   .     A
C19    H31     1.083   .     S
C19    C22     1.396   .     A
C20    H32     1.084   .     S
C20    C21     1.398   .     A
C23    C690    1.467   1_554 S
C24    C689    1.467   .     S
Cu27   O45     1.951   .     S
Cu27   N37     2.025   .     S
Cu27   O39     1.967   .     S
Cu27   Cu28    2.695   .     S
Cu27   O43     1.951   .     S
Cu27   O41     1.967   .     S
Cu28   N38     2.025   .     S
Cu28   O46     1.951   .     S
Cu28   O42     1.967   .     S
Cu28   O40     1.967   .     S
Cu28   O44     1.951   .     S
O47    C48     1.414   .     S
C48    H50     1.115   .     S
C48    H49     1.108   .     S
C48    H51     1.108   .     S
O52    C53     1.415   .     S
C53    H54     1.109   .     S
C53    H55     1.114   .     S
C53    H56     1.109   .     S
O57    C58     1.414   .     S
C58    H61     1.108   .     S
C58    H60     1.115   .     S
C58    H59     1.108   .     S
O62    C63     1.415   .     S
C63    H65     1.114   .     S
C63    H66     1.109   .     S
C63    H64     1.109   .     S
O67    H68     0.992   .     S
O69    H736    0.988   .     S
H70    O735    0.988   1_554 S
O71    H72     0.992   .     S
O73    H740    0.988   1_554 S
H74    O739    0.988   .     S
C75    C100    1.452   .     S
C75    O116    1.299   .     A
C75    O113    1.295   .     A
C76    O115    1.295   .     A
C76    O114    1.299   .     A
C76    C99     1.452   .     S
C77    O120    1.296   .     A
C77    O117    1.300   .     A
C77    C95     1.456   .     S
C78    C96     1.456   .     S
C78    O119    1.300   .     A
C78    O118    1.296   .     A
C79    O121    1.387   .     S
C79    N112    1.369   .     A
C79    C526    1.439   1_545 S
C80    N111    1.374   .     A
C80    O126    1.382   .     S
C80    C303    1.439   .     S
C81    N112    1.369   .     A
C81    O131    1.387   .     S
C81    C524    1.439   1_545 S
C82    N111    1.374   .     A
C82    O136    1.382   .     S
C82    C301    1.439   .     S
C83    H107    1.078   .     S
C83    C100    1.398   .     A
C84    H108    1.083   .     S
C84    C99     1.403   .     A
C84    C160    1.386   .     S
C85    C99     1.398   .     A
C85    H109    1.078   .     S
C85    C157    1.380   .     S
C86    H110    1.083   .     S
C86    C100    1.403   .     A
C87    C91     1.400   .     A
C87    C97     1.407   .     A
C87    O141    1.382   .     S
C88    C92     1.391   .     A
C88    C98     1.419   .     A
C88    O143    1.382   .     S
C89    C93     1.400   .     A
C89    C98     1.407   .     A
C89    O145    1.382   .     S
C90    C94     1.391   .     A
C90    C97     1.419   .     A
C90    O147    1.382   .     S
C91    H103    1.083   .     S
C91    C95     1.396   .     A
C92    H104    1.084   .     S
C92    C96     1.398   .     A
C93    H105    1.083   .     S
C93    C96     1.396   .     A
C94    H106    1.084   .     S
C94    C95     1.398   .     A
C97    C764    1.467   1_554 S
C98    C763    1.467   .     S
Cu101  O119    1.951   .     S
Cu101  N111    2.025   .     S
Cu101  O113    1.967   .     S
Cu101  Cu102   2.695   .     S
Cu101  O117    1.951   .     S
Cu101  O115    1.967   .     S
Cu102  N112    2.025   .     S
Cu102  O120    1.951   .     S
Cu102  O116    1.967   .     S
Cu102  O114    1.967   .     S
Cu102  O118    1.951   .     S
O121   C122    1.414   .     S
C122   H124    1.115   .     S
C122   H123    1.108   .     S
C122   H125    1.108   .     S
O126   C127    1.415   .     S
C127   H128    1.109   .     S
C127   H129    1.114   .     S
C127   H130    1.109   .     S
O131   C132    1.414   .     S
C132   H135    1.108   .     S
C132   H134    1.115   .     S
C132   H133    1.108   .     S
O136   C137    1.415   .     S
C137   H139    1.114   .     S
C137   H140    1.109   .     S
C137   H138    1.109   .     S
O141   H142    0.992   .     S
O143   H810    0.988   .     S
H144   O809    0.988   1_554 S
O145   H146    0.992   .     S
O147   H814    0.988   1_554 S
H148   O813    0.988   .     S
C149   C174    1.452   .     S
C149   O190    1.299   .     A
C149   O187    1.295   .     A
C150   O189    1.295   .     A
C150   O188    1.299   .     A
C150   C173    1.452   .     S
C151   O194    1.296   .     A
C151   O191    1.300   .     A
C151   C169    1.456   .     S
C152   C170    1.456   .     S
C152   O193    1.300   .     A
C152   O192    1.296   .     A
C153   O195    1.387   .     S
C153   N186    1.369   .     A
C153   C600    1.439   1_545 S
C154   N185    1.374   .     A
C154   O200    1.382   .     S
C154   C377    1.439   .     S
C155   N186    1.369   .     A
C155   O205    1.387   .     S
C155   C598    1.439   1_545 S
C156   N185    1.374   .     A
C156   O210    1.382   .     S
C156   C375    1.439   .     S
C157   H181    1.078   .     S
C157   C174    1.398   .     A
C158   H182    1.083   .     S
C158   C173    1.403   .     A
C158   C12     1.386   1_655 S
C159   C173    1.398   .     A
C159   H183    1.078   .     S
C159   C9      1.380   1_655 S
C160   H184    1.083   .     S
C160   C174    1.403   .     A
C161   C165    1.400   .     A
C161   C171    1.407   .     A
C161   O215    1.382   .     S
C162   C166    1.391   .     A
C162   C172    1.419   .     A
C162   O217    1.382   .     S
C163   C167    1.400   .     A
C163   C172    1.407   .     A
C163   O219    1.382   .     S
C164   C168    1.391   .     A
C164   C171    1.419   .     A
C164   O221    1.382   .     S
C165   H177    1.083   .     S
C165   C169    1.396   .     A
C166   H178    1.084   .     S
C166   C170    1.398   .     A
C167   H179    1.083   .     S
C167   C170    1.396   .     A
C168   H180    1.084   .     S
C168   C169    1.398   .     A
C171   C838    1.467   1_554 S
C172   C837    1.467   .     S
Cu175  O193    1.951   .     S
Cu175  N185    2.025   .     S
Cu175  O187    1.967   .     S
Cu175  Cu176   2.695   .     S
Cu175  O191    1.951   .     S
Cu175  O189    1.967   .     S
Cu176  N186    2.025   .     S
Cu176  O194    1.951   .     S
Cu176  O190    1.967   .     S
Cu176  O188    1.967   .     S
Cu176  O192    1.951   .     S
O195   C196    1.414   .     S
C196   H198    1.115   .     S
C196   H197    1.108   .     S
C196   H199    1.108   .     S
O200   C201    1.415   .     S
C201   H202    1.109   .     S
C201   H203    1.114   .     S
C201   H204    1.109   .     S
O205   C206    1.414   .     S
C206   H209    1.108   .     S
C206   H208    1.115   .     S
C206   H207    1.108   .     S
O210   C211    1.415   .     S
C211   H213    1.114   .     S
C211   H214    1.109   .     S
C211   H212    1.109   .     S
O215   H216    0.992   .     S
O217   H884    0.988   .     S
H218   O883    0.988   1_554 S
O219   H220    0.992   .     S
O221   H888    0.988   1_554 S
H222   O887    0.988   .     S
C223   C248    1.452   .     S
C223   O264    1.299   .     A
C223   O261    1.295   .     A
C224   O263    1.295   .     A
C224   O262    1.299   .     A
C224   C247    1.452   .     S
C225   O268    1.296   .     A
C225   O265    1.300   .     A
C225   C243    1.456   .     S
C226   C244    1.456   .     S
C226   O267    1.300   .     A
C226   O266    1.296   .     A
C227   O269    1.387   .     S
C227   N260    1.369   .     A
C228   N259    1.374   .     A
C228   O274    1.382   .     S
C228   C451    1.439   .     S
C229   N260    1.369   .     A
C229   O279    1.387   .     S
C230   N259    1.374   .     A
C230   O284    1.382   .     S
C230   C449    1.439   .     S
C231   H255    1.078   .     S
C231   C248    1.398   .     A
C231   C381    1.380   1_455 S
C232   H256    1.083   .     S
C232   C247    1.403   .     A
C232   C308    1.386   .     S
C233   C247    1.398   .     A
C233   H257    1.078   .     S
C233   C305    1.380   .     S
C234   H258    1.083   .     S
C234   C248    1.403   .     A
C234   C380    1.386   1_455 S
C235   C239    1.400   .     A
C235   C245    1.407   .     A
C235   O289    1.382   .     S
C236   C240    1.391   .     A
C236   C246    1.419   .     A
C236   O291    1.382   .     S
C237   C241    1.400   .     A
C237   C246    1.407   .     A
C237   O293    1.382   .     S
C238   C242    1.391   .     A
C238   C245    1.419   .     A
C238   O295    1.382   .     S
C239   H251    1.083   .     S
C239   C243    1.396   .     A
C240   H252    1.084   .     S
C240   C244    1.398   .     A
C241   H253    1.083   .     S
C241   C244    1.396   .     A
C242   H254    1.084   .     S
C242   C243    1.398   .     A
C245   C912    1.467   1_554 S
C246   C911    1.467   .     S
Cu249  O267    1.951   .     S
Cu249  N259    2.025   .     S
Cu249  O261    1.967   .     S
Cu249  Cu250   2.695   .     S
Cu249  O265    1.951   .     S
Cu249  O263    1.967   .     S
Cu250  N260    2.025   .     S
Cu250  O268    1.951   .     S
Cu250  O264    1.967   .     S
Cu250  O262    1.967   .     S
Cu250  O266    1.951   .     S
O269   C270    1.414   .     S
C270   H272    1.115   .     S
C270   H271    1.108   .     S
C270   H273    1.108   .     S
O274   C275    1.415   .     S
C275   H276    1.109   .     S
C275   H277    1.114   .     S
C275   H278    1.109   .     S
O279   C280    1.414   .     S
C280   H283    1.108   .     S
C280   H282    1.115   .     S
C280   H281    1.108   .     S
O284   C285    1.415   .     S
C285   H287    1.114   .     S
C285   H288    1.109   .     S
C285   H286    1.109   .     S
O289   H290    0.992   .     S
O291   H958    0.988   .     S
H292   O957    0.988   1_554 S
O293   H294    0.992   .     S
O295   H962    0.988   1_554 S
H296   O961    0.988   .     S
C297   C322    1.452   .     S
C297   O338    1.299   .     A
C297   O335    1.295   .     A
C298   O337    1.295   .     A
C298   O336    1.299   .     A
C298   C321    1.452   .     S
C299   O342    1.296   .     A
C299   O339    1.300   .     A
C299   C317    1.456   .     S
C300   C318    1.456   .     S
C300   O341    1.300   .     A
C300   O340    1.296   .     A
C301   O343    1.387   .     S
C301   N334    1.369   .     A
C302   N333    1.374   .     A
C302   O348    1.382   .     S
C302   C525    1.439   .     S
C303   N334    1.369   .     A
C303   O353    1.387   .     S
C304   N333    1.374   .     A
C304   O358    1.382   .     S
C304   C523    1.439   .     S
C305   H329    1.078   .     S
C305   C322    1.398   .     A
C306   H330    1.083   .     S
C306   C321    1.403   .     A
C306   C382    1.386   .     S
C307   C321    1.398   .     A
C307   H331    1.078   .     S
C307   C379    1.380   .     S
C308   H332    1.083   .     S
C308   C322    1.403   .     A
C309   C313    1.400   .     A
C309   C319    1.407   .     A
C309   O363    1.382   .     S
C310   C314    1.391   .     A
C310   C320    1.419   .     A
C310   O365    1.382   .     S
C311   C315    1.400   .     A
C311   C320    1.407   .     A
C311   O367    1.382   .     S
C312   C316    1.391   .     A
C312   C319    1.419   .     A
C312   O369    1.382   .     S
C313   H325    1.083   .     S
C313   C317    1.396   .     A
C314   H326    1.084   .     S
C314   C318    1.398   .     A
C315   H327    1.083   .     S
C315   C318    1.396   .     A
C316   H328    1.084   .     S
C316   C317    1.398   .     A
C319   C986    1.467   1_554 S
C320   C985    1.467   .     S
Cu323  O341    1.951   .     S
Cu323  N333    2.025   .     S
Cu323  O335    1.967   .     S
Cu323  Cu324   2.695   .     S
Cu323  O339    1.951   .     S
Cu323  O337    1.967   .     S
Cu324  N334    2.025   .     S
Cu324  O342    1.951   .     S
Cu324  O338    1.967   .     S
Cu324  O336    1.967   .     S
Cu324  O340    1.951   .     S
O343   C344    1.414   .     S
C344   H346    1.115   .     S
C344   H345    1.108   .     S
C344   H347    1.108   .     S
O348   C349    1.415   .     S
C349   H350    1.109   .     S
C349   H351    1.114   .     S
C349   H352    1.109   .     S
O353   C354    1.414   .     S
C354   H357    1.108   .     S
C354   H356    1.115   .     S
C354   H355    1.108   .     S
O358   C359    1.415   .     S
C359   H361    1.114   .     S
C359   H362    1.109   .     S
C359   H360    1.109   .     S
O363   H364    0.992   .     S
O365   H1032   0.988   .     S
H366   O1031   0.988   1_554 S
O367   H368    0.992   .     S
O369   H1036   0.988   1_554 S
H370   O1035   0.988   .     S
C371   C396    1.452   .     S
C371   O412    1.299   .     A
C371   O409    1.295   .     A
C372   O411    1.295   .     A
C372   O410    1.299   .     A
C372   C395    1.452   .     S
C373   O416    1.296   .     A
C373   O413    1.300   .     A
C373   C391    1.456   .     S
C374   C392    1.456   .     S
C374   O415    1.300   .     A
C374   O414    1.296   .     A
C375   O417    1.387   .     S
C375   N408    1.369   .     A
C376   N407    1.374   .     A
C376   O422    1.382   .     S
C376   C599    1.439   .     S
C377   N408    1.369   .     A
C377   O427    1.387   .     S
C378   N407    1.374   .     A
C378   O432    1.382   .     S
C378   C597    1.439   .     S
C379   H403    1.078   .     S
C379   C396    1.398   .     A
C380   H404    1.083   .     S
C380   C395    1.403   .     A
C380   C234    1.386   1_655 S
C381   C395    1.398   .     A
C381   H405    1.078   .     S
C381   C231    1.380   1_655 S
C382   H406    1.083   .     S
C382   C396    1.403   .     A
C383   C387    1.400   .     A
C383   C393    1.407   .     A
C383   O437    1.382   .     S
C384   C388    1.391   .     A
C384   C394    1.419   .     A
C384   O439    1.382   .     S
C385   C389    1.400   .     A
C385   C394    1.407   .     A
C385   O441    1.382   .     S
C386   C390    1.391   .     A
C386   C393    1.419   .     A
C386   O443    1.382   .     S
C387   H399    1.083   .     S
C387   C391    1.396   .     A
C388   H400    1.084   .     S
C388   C392    1.398   .     A
C389   H401    1.083   .     S
C389   C392    1.396   .     A
C390   H402    1.084   .     S
C390   C391    1.398   .     A
C393   C1060   1.467   1_554 S
C394   C1059   1.467   .     S
Cu397  O415    1.951   .     S
Cu397  N407    2.025   .     S
Cu397  O409    1.967   .     S
Cu397  Cu398   2.695   .     S
Cu397  O413    1.951   .     S
Cu397  O411    1.967   .     S
Cu398  N408    2.025   .     S
Cu398  O416    1.951   .     S
Cu398  O412    1.967   .     S
Cu398  O410    1.967   .     S
Cu398  O414    1.951   .     S
O417   C418    1.414   .     S
C418   H420    1.115   .     S
C418   H419    1.108   .     S
C418   H421    1.108   .     S
O422   C423    1.415   .     S
C423   H424    1.109   .     S
C423   H425    1.114   .     S
C423   H426    1.109   .     S
O427   C428    1.414   .     S
C428   H431    1.108   .     S
C428   H430    1.115   .     S
C428   H429    1.108   .     S
O432   C433    1.415   .     S
C433   H435    1.114   .     S
C433   H436    1.109   .     S
C433   H434    1.109   .     S
O437   H438    0.992   .     S
O439   H1106   0.988   .     S
H440   O1105   0.988   1_554 S
O441   H442    0.992   .     S
O443   H1110   0.988   1_554 S
H444   O1109   0.988   .     S
C445   C470    1.452   .     S
C445   O486    1.299   .     A
C445   O483    1.295   .     A
C446   O485    1.295   .     A
C446   O484    1.299   .     A
C446   C469    1.452   .     S
C447   O490    1.296   .     A
C447   O487    1.300   .     A
C447   C465    1.456   .     S
C448   C466    1.456   .     S
C448   O489    1.300   .     A
C448   O488    1.296   .     A
C449   O491    1.387   .     S
C449   N482    1.369   .     A
C450   N481    1.374   .     A
C450   O496    1.382   .     S
C450   C7      1.439   1_565 S
C451   N482    1.369   .     A
C451   O501    1.387   .     S
C452   N481    1.374   .     A
C452   O506    1.382   .     S
C452   C5      1.439   1_565 S
C453   H477    1.078   .     S
C453   C470    1.398   .     A
C453   C603    1.380   1_455 S
C454   H478    1.083   .     S
C454   C469    1.403   .     A
C454   C530    1.386   .     S
C455   C469    1.398   .     A
C455   H479    1.078   .     S
C455   C527    1.380   .     S
C456   H480    1.083   .     S
C456   C470    1.403   .     A
C456   C602    1.386   1_455 S
C457   C461    1.400   .     A
C457   C467    1.407   .     A
C457   O511    1.382   .     S
C458   C462    1.391   .     A
C458   C468    1.419   .     A
C458   O513    1.382   .     S
C459   C463    1.400   .     A
C459   C468    1.407   .     A
C459   O515    1.382   .     S
C460   C464    1.391   .     A
C460   C467    1.419   .     A
C460   O517    1.382   .     S
C461   H473    1.083   .     S
C461   C465    1.396   .     A
C462   H474    1.084   .     S
C462   C466    1.398   .     A
C463   H475    1.083   .     S
C463   C466    1.396   .     A
C464   H476    1.084   .     S
C464   C465    1.398   .     A
C467   C1134   1.467   1_554 S
C468   C1133   1.467   .     S
Cu471  O489    1.951   .     S
Cu471  N481    2.025   .     S
Cu471  O483    1.967   .     S
Cu471  Cu472   2.695   .     S
Cu471  O487    1.951   .     S
Cu471  O485    1.967   .     S
Cu472  N482    2.025   .     S
Cu472  O490    1.951   .     S
Cu472  O486    1.967   .     S
Cu472  O484    1.967   .     S
Cu472  O488    1.951   .     S
O491   C492    1.414   .     S
C492   H494    1.115   .     S
C492   H493    1.108   .     S
C492   H495    1.108   .     S
O496   C497    1.415   .     S
C497   H498    1.109   .     S
C497   H499    1.114   .     S
C497   H500    1.109   .     S
O501   C502    1.414   .     S
C502   H505    1.108   .     S
C502   H504    1.115   .     S
C502   H503    1.108   .     S
O506   C507    1.415   .     S
C507   H509    1.114   .     S
C507   H510    1.109   .     S
C507   H508    1.109   .     S
O511   H512    0.992   .     S
O513   H1180   0.988   .     S
H514   O1179   0.988   1_554 S
O515   H516    0.992   .     S
O517   H1184   0.988   1_554 S
H518   O1183   0.988   .     S
C519   C544    1.452   .     S
C519   O560    1.299   .     A
C519   O557    1.295   .     A
C520   O559    1.295   .     A
C520   O558    1.299   .     A
C520   C543    1.452   .     S
C521   O564    1.296   .     A
C521   O561    1.300   .     A
C521   C539    1.456   .     S
C522   C540    1.456   .     S
C522   O563    1.300   .     A
C522   O562    1.296   .     A
C523   O565    1.387   .     S
C523   N556    1.369   .     A
C524   N555    1.374   .     A
C524   O570    1.382   .     S
C524   C81     1.439   1_565 S
C525   N556    1.369   .     A
C525   O575    1.387   .     S
C526   N555    1.374   .     A
C526   O580    1.382   .     S
C526   C79     1.439   1_565 S
C527   H551    1.078   .     S
C527   C544    1.398   .     A
C528   H552    1.083   .     S
C528   C543    1.403   .     A
C528   C604    1.386   .     S
C529   C543    1.398   .     A
C529   H553    1.078   .     S
C529   C601    1.380   .     S
C530   H554    1.083   .     S
C530   C544    1.403   .     A
C531   C535    1.400   .     A
C531   C541    1.407   .     A
C531   O585    1.382   .     S
C532   C536    1.391   .     A
C532   C542    1.419   .     A
C532   O587    1.382   .     S
C533   C537    1.400   .     A
C533   C542    1.407   .     A
C533   O589    1.382   .     S
C534   C538    1.391   .     A
C534   C541    1.419   .     A
C534   O591    1.382   .     S
C535   H547    1.083   .     S
C535   C539    1.396   .     A
C536   H548    1.084   .     S
C536   C540    1.398   .     A
C537   H549    1.083   .     S
C537   C540    1.396   .     A
C538   H550    1.084   .     S
C538   C539    1.398   .     A
C541   C1208   1.467   1_554 S
C542   C1207   1.467   .     S
Cu545  O563    1.951   .     S
Cu545  N555    2.025   .     S
Cu545  O557    1.967   .     S
Cu545  Cu546   2.695   .     S
Cu545  O561    1.951   .     S
Cu545  O559    1.967   .     S
Cu546  N556    2.025   .     S
Cu546  O564    1.951   .     S
Cu546  O560    1.967   .     S
Cu546  O558    1.967   .     S
Cu546  O562    1.951   .     S
O565   C566    1.414   .     S
C566   H568    1.115   .     S
C566   H567    1.108   .     S
C566   H569    1.108   .     S
O570   C571    1.415   .     S
C571   H572    1.109   .     S
C571   H573    1.114   .     S
C571   H574    1.109   .     S
O575   C576    1.414   .     S
C576   H579    1.108   .     S
C576   H578    1.115   .     S
C576   H577    1.108   .     S
O580   C581    1.415   .     S
C581   H583    1.114   .     S
C581   H584    1.109   .     S
C581   H582    1.109   .     S
O585   H586    0.992   .     S
O587   H1254   0.988   .     S
H588   O1253   0.988   1_554 S
O589   H590    0.992   .     S
O591   H1258   0.988   1_554 S
H592   O1257   0.988   .     S
C593   C618    1.452   .     S
C593   O634    1.299   .     A
C593   O631    1.295   .     A
C594   O633    1.295   .     A
C594   O632    1.299   .     A
C594   C617    1.452   .     S
C595   O638    1.296   .     A
C595   O635    1.300   .     A
C595   C613    1.456   .     S
C596   C614    1.456   .     S
C596   O637    1.300   .     A
C596   O636    1.296   .     A
C597   O639    1.387   .     S
C597   N630    1.369   .     A
C598   N629    1.374   .     A
C598   O644    1.382   .     S
C598   C155    1.439   1_565 S
C599   N630    1.369   .     A
C599   O649    1.387   .     S
C600   N629    1.374   .     A
C600   O654    1.382   .     S
C600   C153    1.439   1_565 S
C601   H625    1.078   .     S
C601   C618    1.398   .     A
C602   H626    1.083   .     S
C602   C617    1.403   .     A
C602   C456    1.386   1_655 S
C603   C617    1.398   .     A
C603   H627    1.078   .     S
C603   C453    1.380   1_655 S
C604   H628    1.083   .     S
C604   C618    1.403   .     A
C605   C609    1.400   .     A
C605   C615    1.407   .     A
C605   O659    1.382   .     S
C606   C610    1.391   .     A
C606   C616    1.419   .     A
C606   O661    1.382   .     S
C607   C611    1.400   .     A
C607   C616    1.407   .     A
C607   O663    1.382   .     S
C608   C612    1.391   .     A
C608   C615    1.419   .     A
C608   O665    1.382   .     S
C609   H621    1.083   .     S
C609   C613    1.396   .     A
C610   H622    1.084   .     S
C610   C614    1.398   .     A
C611   H623    1.083   .     S
C611   C614    1.396   .     A
C612   H624    1.084   .     S
C612   C613    1.398   .     A
C615   C1282   1.467   1_554 S
C616   C1281   1.467   .     S
Cu619  O637    1.951   .     S
Cu619  N629    2.025   .     S
Cu619  O631    1.967   .     S
Cu619  Cu620   2.695   .     S
Cu619  O635    1.951   .     S
Cu619  O633    1.967   .     S
Cu620  N630    2.025   .     S
Cu620  O638    1.951   .     S
Cu620  O634    1.967   .     S
Cu620  O632    1.967   .     S
Cu620  O636    1.951   .     S
O639   C640    1.414   .     S
C640   H642    1.115   .     S
C640   H641    1.108   .     S
C640   H643    1.108   .     S
O644   C645    1.415   .     S
C645   H646    1.109   .     S
C645   H647    1.114   .     S
C645   H648    1.109   .     S
O649   C650    1.414   .     S
C650   H653    1.108   .     S
C650   H652    1.115   .     S
C650   H651    1.108   .     S
O654   C655    1.415   .     S
C655   H657    1.114   .     S
C655   H658    1.109   .     S
C655   H656    1.109   .     S
O659   H660    0.992   .     S
O661   H1328   0.988   .     S
H662   O1327   0.988   1_554 S
O663   H664    0.992   .     S
O665   H1332   0.988   1_554 S
H666   O1331   0.988   .     S
C667   C692    1.452   .     S
C667   O708    1.299   .     A
C667   O705    1.295   .     A
C668   O707    1.295   .     A
C668   O706    1.299   .     A
C668   C691    1.452   .     S
C669   O712    1.296   .     A
C669   O709    1.300   .     A
C669   C687    1.456   .     S
C670   C688    1.456   .     S
C670   O711    1.300   .     A
C670   O710    1.296   .     A
C671   O713    1.387   .     S
C671   N704    1.369   .     A
C671   C1118   1.439   1_545 S
C672   N703    1.374   .     A
C672   O718    1.382   .     S
C672   C895    1.439   .     S
C673   N704    1.369   .     A
C673   O723    1.387   .     S
C673   C1116   1.439   1_545 S
C674   N703    1.374   .     A
C674   O728    1.382   .     S
C674   C893    1.439   .     S
C675   H699    1.078   .     S
C675   C692    1.398   .     A
C675   C825    1.380   1_455 S
C676   H700    1.083   .     S
C676   C691    1.403   .     A
C676   C752    1.386   .     S
C677   C691    1.398   .     A
C677   H701    1.078   .     S
C677   C749    1.380   .     S
C678   H702    1.083   .     S
C678   C692    1.403   .     A
C678   C824    1.386   1_455 S
C679   C683    1.400   .     A
C679   C689    1.407   .     A
C679   O733    1.382   .     S
C680   C684    1.391   .     A
C680   C690    1.419   .     A
C680   O735    1.382   .     S
C681   C685    1.400   .     A
C681   C690    1.407   .     A
C681   O737    1.382   .     S
C682   C686    1.391   .     A
C682   C689    1.419   .     A
C682   O739    1.382   .     S
C683   H695    1.083   .     S
C683   C687    1.396   .     A
C684   H696    1.084   .     S
C684   C688    1.398   .     A
C685   H697    1.083   .     S
C685   C688    1.396   .     A
C686   H698    1.084   .     S
C686   C687    1.398   .     A
C690   C23     1.467   1_556 S
Cu693  O711    1.951   .     S
Cu693  N703    2.025   .     S
Cu693  O705    1.967   .     S
Cu693  Cu694   2.695   .     S
Cu693  O709    1.951   .     S
Cu693  O707    1.967   .     S
Cu694  N704    2.025   .     S
Cu694  O712    1.951   .     S
Cu694  O708    1.967   .     S
Cu694  O706    1.967   .     S
Cu694  O710    1.951   .     S
O713   C714    1.414   .     S
C714   H716    1.115   .     S
C714   H715    1.108   .     S
C714   H717    1.108   .     S
O718   C719    1.415   .     S
C719   H720    1.109   .     S
C719   H721    1.114   .     S
C719   H722    1.109   .     S
O723   C724    1.414   .     S
C724   H727    1.108   .     S
C724   H726    1.115   .     S
C724   H725    1.108   .     S
O728   C729    1.415   .     S
C729   H731    1.114   .     S
C729   H732    1.109   .     S
C729   H730    1.109   .     S
O733   H734    0.992   .     S
O735   H70     0.988   1_556 S
O737   H738    0.992   .     S
H740   O73     0.988   1_556 S
C741   C766    1.452   .     S
C741   O782    1.299   .     A
C741   O779    1.295   .     A
C742   O781    1.295   .     A
C742   O780    1.299   .     A
C742   C765    1.452   .     S
C743   O786    1.296   .     A
C743   O783    1.300   .     A
C743   C761    1.456   .     S
C744   C762    1.456   .     S
C744   O785    1.300   .     A
C744   O784    1.296   .     A
C745   O787    1.387   .     S
C745   N778    1.369   .     A
C745   C1192   1.439   1_545 S
C746   N777    1.374   .     A
C746   O792    1.382   .     S
C746   C969    1.439   .     S
C747   N778    1.369   .     A
C747   O797    1.387   .     S
C747   C1190   1.439   1_545 S
C748   N777    1.374   .     A
C748   O802    1.382   .     S
C748   C967    1.439   .     S
C749   H773    1.078   .     S
C749   C766    1.398   .     A
C750   H774    1.083   .     S
C750   C765    1.403   .     A
C750   C826    1.386   .     S
C751   C765    1.398   .     A
C751   H775    1.078   .     S
C751   C823    1.380   .     S
C752   H776    1.083   .     S
C752   C766    1.403   .     A
C753   C757    1.400   .     A
C753   C763    1.407   .     A
C753   O807    1.382   .     S
C754   C758    1.391   .     A
C754   C764    1.419   .     A
C754   O809    1.382   .     S
C755   C759    1.400   .     A
C755   C764    1.407   .     A
C755   O811    1.382   .     S
C756   C760    1.391   .     A
C756   C763    1.419   .     A
C756   O813    1.382   .     S
C757   H769    1.083   .     S
C757   C761    1.396   .     A
C758   H770    1.084   .     S
C758   C762    1.398   .     A
C759   H771    1.083   .     S
C759   C762    1.396   .     A
C760   H772    1.084   .     S
C760   C761    1.398   .     A
C764   C97     1.467   1_556 S
Cu767  O785    1.951   .     S
Cu767  N777    2.025   .     S
Cu767  O779    1.967   .     S
Cu767  Cu768   2.695   .     S
Cu767  O783    1.951   .     S
Cu767  O781    1.967   .     S
Cu768  N778    2.025   .     S
Cu768  O786    1.951   .     S
Cu768  O782    1.967   .     S
Cu768  O780    1.967   .     S
Cu768  O784    1.951   .     S
O787   C788    1.414   .     S
C788   H790    1.115   .     S
C788   H789    1.108   .     S
C788   H791    1.108   .     S
O792   C793    1.415   .     S
C793   H794    1.109   .     S
C793   H795    1.114   .     S
C793   H796    1.109   .     S
O797   C798    1.414   .     S
C798   H801    1.108   .     S
C798   H800    1.115   .     S
C798   H799    1.108   .     S
O802   C803    1.415   .     S
C803   H805    1.114   .     S
C803   H806    1.109   .     S
C803   H804    1.109   .     S
O807   H808    0.992   .     S
O809   H144    0.988   1_556 S
O811   H812    0.992   .     S
H814   O147    0.988   1_556 S
C815   C840    1.452   .     S
C815   O856    1.299   .     A
C815   O853    1.295   .     A
C816   O855    1.295   .     A
C816   O854    1.299   .     A
C816   C839    1.452   .     S
C817   O860    1.296   .     A
C817   O857    1.300   .     A
C817   C835    1.456   .     S
C818   C836    1.456   .     S
C818   O859    1.300   .     A
C818   O858    1.296   .     A
C819   O861    1.387   .     S
C819   N852    1.369   .     A
C819   C1266   1.439   1_545 S
C820   N851    1.374   .     A
C820   O866    1.382   .     S
C820   C1043   1.439   .     S
C821   N852    1.369   .     A
C821   O871    1.387   .     S
C821   C1264   1.439   1_545 S
C822   N851    1.374   .     A
C822   O876    1.382   .     S
C822   C1041   1.439   .     S
C823   H847    1.078   .     S
C823   C840    1.398   .     A
C824   H848    1.083   .     S
C824   C839    1.403   .     A
C824   C678    1.386   1_655 S
C825   C839    1.398   .     A
C825   H849    1.078   .     S
C825   C675    1.380   1_655 S
C826   H850    1.083   .     S
C826   C840    1.403   .     A
C827   C831    1.400   .     A
C827   C837    1.407   .     A
C827   O881    1.382   .     S
C828   C832    1.391   .     A
C828   C838    1.419   .     A
C828   O883    1.382   .     S
C829   C833    1.400   .     A
C829   C838    1.407   .     A
C829   O885    1.382   .     S
C830   C834    1.391   .     A
C830   C837    1.419   .     A
C830   O887    1.382   .     S
C831   H843    1.083   .     S
C831   C835    1.396   .     A
C832   H844    1.084   .     S
C832   C836    1.398   .     A
C833   H845    1.083   .     S
C833   C836    1.396   .     A
C834   H846    1.084   .     S
C834   C835    1.398   .     A
C838   C171    1.467   1_556 S
Cu841  O859    1.951   .     S
Cu841  N851    2.025   .     S
Cu841  O853    1.967   .     S
Cu841  Cu842   2.695   .     S
Cu841  O857    1.951   .     S
Cu841  O855    1.967   .     S
Cu842  N852    2.025   .     S
Cu842  O860    1.951   .     S
Cu842  O856    1.967   .     S
Cu842  O854    1.967   .     S
Cu842  O858    1.951   .     S
O861   C862    1.414   .     S
C862   H864    1.115   .     S
C862   H863    1.108   .     S
C862   H865    1.108   .     S
O866   C867    1.415   .     S
C867   H868    1.109   .     S
C867   H869    1.114   .     S
C867   H870    1.109   .     S
O871   C872    1.414   .     S
C872   H875    1.108   .     S
C872   H874    1.115   .     S
C872   H873    1.108   .     S
O876   C877    1.415   .     S
C877   H879    1.114   .     S
C877   H880    1.109   .     S
C877   H878    1.109   .     S
O881   H882    0.992   .     S
O883   H218    0.988   1_556 S
O885   H886    0.992   .     S
H888   O221    0.988   1_556 S
C889   C914    1.452   .     S
C889   O930    1.299   .     A
C889   O927    1.295   .     A
C890   O929    1.295   .     A
C890   O928    1.299   .     A
C890   C913    1.452   .     S
C891   O934    1.296   .     A
C891   O931    1.300   .     A
C891   C909    1.456   .     S
C892   C910    1.456   .     S
C892   O933    1.300   .     A
C892   O932    1.296   .     A
C893   O935    1.387   .     S
C893   N926    1.369   .     A
C894   N925    1.374   .     A
C894   O940    1.382   .     S
C894   C1117   1.439   .     S
C895   N926    1.369   .     A
C895   O945    1.387   .     S
C896   N925    1.374   .     A
C896   O950    1.382   .     S
C896   C1115   1.439   .     S
C897   H921    1.078   .     S
C897   C914    1.398   .     A
C897   C1047   1.380   1_455 S
C898   H922    1.083   .     S
C898   C913    1.403   .     A
C898   C974    1.386   .     S
C899   C913    1.398   .     A
C899   H923    1.078   .     S
C899   C971    1.380   .     S
C900   H924    1.083   .     S
C900   C914    1.403   .     A
C900   C1046   1.386   1_455 S
C901   C905    1.400   .     A
C901   C911    1.407   .     A
C901   O955    1.382   .     S
C902   C906    1.391   .     A
C902   C912    1.419   .     A
C902   O957    1.382   .     S
C903   C907    1.400   .     A
C903   C912    1.407   .     A
C903   O959    1.382   .     S
C904   C908    1.391   .     A
C904   C911    1.419   .     A
C904   O961    1.382   .     S
C905   H917    1.083   .     S
C905   C909    1.396   .     A
C906   H918    1.084   .     S
C906   C910    1.398   .     A
C907   H919    1.083   .     S
C907   C910    1.396   .     A
C908   H920    1.084   .     S
C908   C909    1.398   .     A
C912   C245    1.467   1_556 S
Cu915  O933    1.951   .     S
Cu915  N925    2.025   .     S
Cu915  O927    1.967   .     S
Cu915  Cu916   2.695   .     S
Cu915  O931    1.951   .     S
Cu915  O929    1.967   .     S
Cu916  N926    2.025   .     S
Cu916  O934    1.951   .     S
Cu916  O930    1.967   .     S
Cu916  O928    1.967   .     S
Cu916  O932    1.951   .     S
O935   C936    1.414   .     S
C936   H938    1.115   .     S
C936   H937    1.108   .     S
C936   H939    1.108   .     S
O940   C941    1.415   .     S
C941   H942    1.109   .     S
C941   H943    1.114   .     S
C941   H944    1.109   .     S
O945   C946    1.414   .     S
C946   H949    1.108   .     S
C946   H948    1.115   .     S
C946   H947    1.108   .     S
O950   C951    1.415   .     S
C951   H953    1.114   .     S
C951   H954    1.109   .     S
C951   H952    1.109   .     S
O955   H956    0.992   .     S
O957   H292    0.988   1_556 S
O959   H960    0.992   .     S
H962   O295    0.988   1_556 S
C963   C988    1.452   .     S
C963   O1004   1.299   .     A
C963   O1001   1.295   .     A
C964   O1003   1.295   .     A
C964   O1002   1.299   .     A
C964   C987    1.452   .     S
C965   O1008   1.296   .     A
C965   O1005   1.300   .     A
C965   C983    1.456   .     S
C966   C984    1.456   .     S
C966   O1007   1.300   .     A
C966   O1006   1.296   .     A
C967   O1009   1.387   .     S
C967   N1000   1.369   .     A
C968   N999    1.374   .     A
C968   O1014   1.382   .     S
C968   C1191   1.439   .     S
C969   N1000   1.369   .     A
C969   O1019   1.387   .     S
C970   N999    1.374   .     A
C970   O1024   1.382   .     S
C970   C1189   1.439   .     S
C971   H995    1.078   .     S
C971   C988    1.398   .     A
C972   H996    1.083   .     S
C972   C987    1.403   .     A
C972   C1048   1.386   .     S
C973   C987    1.398   .     A
C973   H997    1.078   .     S
C973   C1045   1.380   .     S
C974   H998    1.083   .     S
C974   C988    1.403   .     A
C975   C979    1.400   .     A
C975   C985    1.407   .     A
C975   O1029   1.382   .     S
C976   C980    1.391   .     A
C976   C986    1.419   .     A
C976   O1031   1.382   .     S
C977   C981    1.400   .     A
C977   C986    1.407   .     A
C977   O1033   1.382   .     S
C978   C982    1.391   .     A
C978   C985    1.419   .     A
C978   O1035   1.382   .     S
C979   H991    1.083   .     S
C979   C983    1.396   .     A
C980   H992    1.084   .     S
C980   C984    1.398   .     A
C981   H993    1.083   .     S
C981   C984    1.396   .     A
C982   H994    1.084   .     S
C982   C983    1.398   .     A
C986   C319    1.467   1_556 S
Cu989  O1007   1.951   .     S
Cu989  N999    2.025   .     S
Cu989  O1001   1.967   .     S
Cu989  Cu990   2.695   .     S
Cu989  O1005   1.951   .     S
Cu989  O1003   1.967   .     S
Cu990  N1000   2.025   .     S
Cu990  O1008   1.951   .     S
Cu990  O1004   1.967   .     S
Cu990  O1002   1.967   .     S
Cu990  O1006   1.951   .     S
O1009  C1010   1.414   .     S
C1010  H1012   1.115   .     S
C1010  H1011   1.108   .     S
C1010  H1013   1.108   .     S
O1014  C1015   1.415   .     S
C1015  H1016   1.109   .     S
C1015  H1017   1.114   .     S
C1015  H1018   1.109   .     S
O1019  C1020   1.414   .     S
C1020  H1023   1.108   .     S
C1020  H1022   1.115   .     S
C1020  H1021   1.108   .     S
O1024  C1025   1.415   .     S
C1025  H1027   1.114   .     S
C1025  H1028   1.109   .     S
C1025  H1026   1.109   .     S
O1029  H1030   0.992   .     S
O1031  H366    0.988   1_556 S
O1033  H1034   0.992   .     S
H1036  O369    0.988   1_556 S
C1037  C1062   1.452   .     S
C1037  O1078   1.299   .     A
C1037  O1075   1.295   .     A
C1038  O1077   1.295   .     A
C1038  O1076   1.299   .     A
C1038  C1061   1.452   .     S
C1039  O1082   1.296   .     A
C1039  O1079   1.300   .     A
C1039  C1057   1.456   .     S
C1040  C1058   1.456   .     S
C1040  O1081   1.300   .     A
C1040  O1080   1.296   .     A
C1041  O1083   1.387   .     S
C1041  N1074   1.369   .     A
C1042  N1073   1.374   .     A
C1042  O1088   1.382   .     S
C1042  C1265   1.439   .     S
C1043  N1074   1.369   .     A
C1043  O1093   1.387   .     S
C1044  N1073   1.374   .     A
C1044  O1098   1.382   .     S
C1044  C1263   1.439   .     S
C1045  H1069   1.078   .     S
C1045  C1062   1.398   .     A
C1046  H1070   1.083   .     S
C1046  C1061   1.403   .     A
C1046  C900    1.386   1_655 S
C1047  C1061   1.398   .     A
C1047  H1071   1.078   .     S
C1047  C897    1.380   1_655 S
C1048  H1072   1.083   .     S
C1048  C1062   1.403   .     A
C1049  C1053   1.400   .     A
C1049  C1059   1.407   .     A
C1049  O1103   1.382   .     S
C1050  C1054   1.391   .     A
C1050  C1060   1.419   .     A
C1050  O1105   1.382   .     S
C1051  C1055   1.400   .     A
C1051  C1060   1.407   .     A
C1051  O1107   1.382   .     S
C1052  C1056   1.391   .     A
C1052  C1059   1.419   .     A
C1052  O1109   1.382   .     S
C1053  H1065   1.083   .     S
C1053  C1057   1.396   .     A
C1054  H1066   1.084   .     S
C1054  C1058   1.398   .     A
C1055  H1067   1.083   .     S
C1055  C1058   1.396   .     A
C1056  H1068   1.084   .     S
C1056  C1057   1.398   .     A
C1060  C393    1.467   1_556 S
Cu1063 O1081   1.951   .     S
Cu1063 N1073   2.025   .     S
Cu1063 O1075   1.967   .     S
Cu1063 Cu1064  2.695   .     S
Cu1063 O1079   1.951   .     S
Cu1063 O1077   1.967   .     S
Cu1064 N1074   2.025   .     S
Cu1064 O1082   1.951   .     S
Cu1064 O1078   1.967   .     S
Cu1064 O1076   1.967   .     S
Cu1064 O1080   1.951   .     S
O1083  C1084   1.414   .     S
C1084  H1086   1.115   .     S
C1084  H1085   1.108   .     S
C1084  H1087   1.108   .     S
O1088  C1089   1.415   .     S
C1089  H1090   1.109   .     S
C1089  H1091   1.114   .     S
C1089  H1092   1.109   .     S
O1093  C1094   1.414   .     S
C1094  H1097   1.108   .     S
C1094  H1096   1.115   .     S
C1094  H1095   1.108   .     S
O1098  C1099   1.415   .     S
C1099  H1101   1.114   .     S
C1099  H1102   1.109   .     S
C1099  H1100   1.109   .     S
O1103  H1104   0.992   .     S
O1105  H440    0.988   1_556 S
O1107  H1108   0.992   .     S
H1110  O443    0.988   1_556 S
C1111  C1136   1.452   .     S
C1111  O1152   1.299   .     A
C1111  O1149   1.295   .     A
C1112  O1151   1.295   .     A
C1112  O1150   1.299   .     A
C1112  C1135   1.452   .     S
C1113  O1156   1.296   .     A
C1113  O1153   1.300   .     A
C1113  C1131   1.456   .     S
C1114  C1132   1.456   .     S
C1114  O1155   1.300   .     A
C1114  O1154   1.296   .     A
C1115  O1157   1.387   .     S
C1115  N1148   1.369   .     A
C1116  N1147   1.374   .     A
C1116  O1162   1.382   .     S
C1116  C673    1.439   1_565 S
C1117  N1148   1.369   .     A
C1117  O1167   1.387   .     S
C1118  N1147   1.374   .     A
C1118  O1172   1.382   .     S
C1118  C671    1.439   1_565 S
C1119  H1143   1.078   .     S
C1119  C1136   1.398   .     A
C1119  C1269   1.380   1_455 S
C1120  H1144   1.083   .     S
C1120  C1135   1.403   .     A
C1120  C1196   1.386   .     S
C1121  C1135   1.398   .     A
C1121  H1145   1.078   .     S
C1121  C1193   1.380   .     S
C1122  H1146   1.083   .     S
C1122  C1136   1.403   .     A
C1122  C1268   1.386   1_455 S
C1123  C1127   1.400   .     A
C1123  C1133   1.407   .     A
C1123  O1177   1.382   .     S
C1124  C1128   1.391   .     A
C1124  C1134   1.419   .     A
C1124  O1179   1.382   .     S
C1125  C1129   1.400   .     A
C1125  C1134   1.407   .     A
C1125  O1181   1.382   .     S
C1126  C1130   1.391   .     A
C1126  C1133   1.419   .     A
C1126  O1183   1.382   .     S
C1127  H1139   1.083   .     S
C1127  C1131   1.396   .     A
C1128  H1140   1.084   .     S
C1128  C1132   1.398   .     A
C1129  H1141   1.083   .     S
C1129  C1132   1.396   .     A
C1130  H1142   1.084   .     S
C1130  C1131   1.398   .     A
C1134  C467    1.467   1_556 S
Cu1137 O1155   1.951   .     S
Cu1137 N1147   2.025   .     S
Cu1137 O1149   1.967   .     S
Cu1137 Cu1138  2.695   .     S
Cu1137 O1153   1.951   .     S
Cu1137 O1151   1.967   .     S
Cu1138 N1148   2.025   .     S
Cu1138 O1156   1.951   .     S
Cu1138 O1152   1.967   .     S
Cu1138 O1150   1.967   .     S
Cu1138 O1154   1.951   .     S
O1157  C1158   1.414   .     S
C1158  H1160   1.115   .     S
C1158  H1159   1.108   .     S
C1158  H1161   1.108   .     S
O1162  C1163   1.415   .     S
C1163  H1164   1.109   .     S
C1163  H1165   1.114   .     S
C1163  H1166   1.109   .     S
O1167  C1168   1.414   .     S
C1168  H1171   1.108   .     S
C1168  H1170   1.115   .     S
C1168  H1169   1.108   .     S
O1172  C1173   1.415   .     S
C1173  H1175   1.114   .     S
C1173  H1176   1.109   .     S
C1173  H1174   1.109   .     S
O1177  H1178   0.992   .     S
O1179  H514    0.988   1_556 S
O1181  H1182   0.992   .     S
H1184  O517    0.988   1_556 S
C1185  C1210   1.452   .     S
C1185  O1226   1.299   .     A
C1185  O1223   1.295   .     A
C1186  O1225   1.295   .     A
C1186  O1224   1.299   .     A
C1186  C1209   1.452   .     S
C1187  O1230   1.296   .     A
C1187  O1227   1.300   .     A
C1187  C1205   1.456   .     S
C1188  C1206   1.456   .     S
C1188  O1229   1.300   .     A
C1188  O1228   1.296   .     A
C1189  O1231   1.387   .     S
C1189  N1222   1.369   .     A
C1190  N1221   1.374   .     A
C1190  O1236   1.382   .     S
C1190  C747    1.439   1_565 S
C1191  N1222   1.369   .     A
C1191  O1241   1.387   .     S
C1192  N1221   1.374   .     A
C1192  O1246   1.382   .     S
C1192  C745    1.439   1_565 S
C1193  H1217   1.078   .     S
C1193  C1210   1.398   .     A
C1194  H1218   1.083   .     S
C1194  C1209   1.403   .     A
C1194  C1270   1.386   .     S
C1195  C1209   1.398   .     A
C1195  H1219   1.078   .     S
C1195  C1267   1.380   .     S
C1196  H1220   1.083   .     S
C1196  C1210   1.403   .     A
C1197  C1201   1.400   .     A
C1197  C1207   1.407   .     A
C1197  O1251   1.382   .     S
C1198  C1202   1.391   .     A
C1198  C1208   1.419   .     A
C1198  O1253   1.382   .     S
C1199  C1203   1.400   .     A
C1199  C1208   1.407   .     A
C1199  O1255   1.382   .     S
C1200  C1204   1.391   .     A
C1200  C1207   1.419   .     A
C1200  O1257   1.382   .     S
C1201  H1213   1.083   .     S
C1201  C1205   1.396   .     A
C1202  H1214   1.084   .     S
C1202  C1206   1.398   .     A
C1203  H1215   1.083   .     S
C1203  C1206   1.396   .     A
C1204  H1216   1.084   .     S
C1204  C1205   1.398   .     A
C1208  C541    1.467   1_556 S
Cu1211 O1229   1.951   .     S
Cu1211 N1221   2.025   .     S
Cu1211 O1223   1.967   .     S
Cu1211 Cu1212  2.695   .     S
Cu1211 O1227   1.951   .     S
Cu1211 O1225   1.967   .     S
Cu1212 N1222   2.025   .     S
Cu1212 O1230   1.951   .     S
Cu1212 O1226   1.967   .     S
Cu1212 O1224   1.967   .     S
Cu1212 O1228   1.951   .     S
O1231  C1232   1.414   .     S
C1232  H1234   1.115   .     S
C1232  H1233   1.108   .     S
C1232  H1235   1.108   .     S
O1236  C1237   1.415   .     S
C1237  H1238   1.109   .     S
C1237  H1239   1.114   .     S
C1237  H1240   1.109   .     S
O1241  C1242   1.414   .     S
C1242  H1245   1.108   .     S
C1242  H1244   1.115   .     S
C1242  H1243   1.108   .     S
O1246  C1247   1.415   .     S
C1247  H1249   1.114   .     S
C1247  H1250   1.109   .     S
C1247  H1248   1.109   .     S
O1251  H1252   0.992   .     S
O1253  H588    0.988   1_556 S
O1255  H1256   0.992   .     S
H1258  O591    0.988   1_556 S
C1259  C1284   1.452   .     S
C1259  O1300   1.299   .     A
C1259  O1297   1.295   .     A
C1260  O1299   1.295   .     A
C1260  O1298   1.299   .     A
C1260  C1283   1.452   .     S
C1261  O1304   1.296   .     A
C1261  O1301   1.300   .     A
C1261  C1279   1.456   .     S
C1262  C1280   1.456   .     S
C1262  O1303   1.300   .     A
C1262  O1302   1.296   .     A
C1263  O1305   1.387   .     S
C1263  N1296   1.369   .     A
C1264  N1295   1.374   .     A
C1264  O1310   1.382   .     S
C1264  C821    1.439   1_565 S
C1265  N1296   1.369   .     A
C1265  O1315   1.387   .     S
C1266  N1295   1.374   .     A
C1266  O1320   1.382   .     S
C1266  C819    1.439   1_565 S
C1267  H1291   1.078   .     S
C1267  C1284   1.398   .     A
C1268  H1292   1.083   .     S
C1268  C1283   1.403   .     A
C1268  C1122   1.386   1_655 S
C1269  C1283   1.398   .     A
C1269  H1293   1.078   .     S
C1269  C1119   1.380   1_655 S
C1270  H1294   1.083   .     S
C1270  C1284   1.403   .     A
C1271  C1275   1.400   .     A
C1271  C1281   1.407   .     A
C1271  O1325   1.382   .     S
C1272  C1276   1.391   .     A
C1272  C1282   1.419   .     A
C1272  O1327   1.382   .     S
C1273  C1277   1.400   .     A
C1273  C1282   1.407   .     A
C1273  O1329   1.382   .     S
C1274  C1278   1.391   .     A
C1274  C1281   1.419   .     A
C1274  O1331   1.382   .     S
C1275  H1287   1.083   .     S
C1275  C1279   1.396   .     A
C1276  H1288   1.084   .     S
C1276  C1280   1.398   .     A
C1277  H1289   1.083   .     S
C1277  C1280   1.396   .     A
C1278  H1290   1.084   .     S
C1278  C1279   1.398   .     A
C1282  C615    1.467   1_556 S
Cu1285 O1303   1.951   .     S
Cu1285 N1295   2.025   .     S
Cu1285 O1297   1.967   .     S
Cu1285 Cu1286  2.695   .     S
Cu1285 O1301   1.951   .     S
Cu1285 O1299   1.967   .     S
Cu1286 N1296   2.025   .     S
Cu1286 O1304   1.951   .     S
Cu1286 O1300   1.967   .     S
Cu1286 O1298   1.967   .     S
Cu1286 O1302   1.951   .     S
O1305  C1306   1.414   .     S
C1306  H1308   1.115   .     S
C1306  H1307   1.108   .     S
C1306  H1309   1.108   .     S
O1310  C1311   1.415   .     S
C1311  H1312   1.109   .     S
C1311  H1313   1.114   .     S
C1311  H1314   1.109   .     S
O1315  C1316   1.414   .     S
C1316  H1319   1.108   .     S
C1316  H1318   1.115   .     S
C1316  H1317   1.108   .     S
O1320  C1321   1.415   .     S
C1321  H1323   1.114   .     S
C1321  H1324   1.109   .     S
C1321  H1322   1.109   .     S
O1325  H1326   0.992   .     S
O1327  H662    0.988   1_556 S
O1329  H1330   0.992   .     S
H1332  O665    0.988   1_556 S
