data_str_m3_o10_o18_pcu_sym.43
_audit_creation_date              2020-01-03
_audit_creation_method            'Materials Studio'
_symmetry_space_group_name_H-M    'P1'
_symmetry_Int_Tables_number       1
_symmetry_cell_setting            triclinic
loop_
_symmetry_equiv_pos_as_xyz
  x,y,z
_cell_length_a                    23.5185
_cell_length_b                    25.6936
_cell_length_c                    27.4012
_cell_angle_alpha                 93.4789
_cell_angle_beta                  92.3382
_cell_angle_gamma                 94.3682
loop_
_atom_site_label
_atom_site_type_symbol
_atom_site_fract_x
_atom_site_fract_y
_atom_site_fract_z
_atom_site_U_iso_or_equiv
_atom_site_adp_type
_atom_site_occupancy
Br1    Br    0.06446   0.08588   0.09926   0.00000  Uiso   1.00
Br2    Br    0.26777   0.24521   0.40199   0.00000  Uiso   1.00
C3     C     0.01510   0.26492   0.24878   0.00000  Uiso   1.00
C4     C     0.31252   0.16153   0.15877   0.00000  Uiso   1.00
C5     C     0.03076   0.17867   0.39415   0.00000  Uiso   1.00
C6     C     0.30237   0.15359   0.10596   0.00000  Uiso   1.00
C7     C     0.01941   0.22323   0.47293   0.00000  Uiso   1.00
C8     C     0.31285   0.10707   0.02793   0.00000  Uiso   1.00
C9     C     0.00009   0.21174   0.42447   0.00000  Uiso   1.00
C10    C     0.33249   0.11948   0.07619   0.00000  Uiso   1.00
C11    C     0.07794   0.15612   0.41322   0.00000  Uiso   1.00
C12    C     0.25521   0.17589   0.08660   0.00000  Uiso   1.00
C13    C     0.10141   0.17161   0.45987   0.00000  Uiso   1.00
C14    C     0.31823   0.06841   0.25121   0.00000  Uiso   1.00
C15    C     0.23111   0.15907   0.04047   0.00000  Uiso   1.00
C16    C     0.07043   0.20467   0.49037   0.00000  Uiso   1.00
C17    C     0.26183   0.12547   0.01033   0.00000  Uiso   1.00
C18    C     0.15544   0.15647   0.47628   0.00000  Uiso   1.00
C19    C     0.17683   0.17367   0.02421   0.00000  Uiso   1.00
C20    C     0.14254   0.20358   0.05480   0.00000  Uiso   1.00
C21    C     0.18945   0.12589   0.44599   0.00000  Uiso   1.00
C22    C     0.09077   0.21926   0.03781   0.00000  Uiso   1.00
C23    C     0.24117   0.11016   0.46312   0.00000  Uiso   1.00
C24    C     0.02293   0.31952   0.24803   0.00000  Uiso   1.00
C25    C     0.31040   0.01381   0.25195   0.00000  Uiso   1.00
C26    C     0.02079   0.17166   0.34125   0.00000  Uiso   1.00
H27    H     0.06651   0.24307   0.06206   0.00000  Uiso   1.00
H28    H     0.26725   0.32988   0.25572   0.00000  Uiso   1.00
H29    H     0.16243   0.12460   0.21367   0.00000  Uiso   1.00
H30    H     0.17090   0.20873   0.28633   0.00000  Uiso   1.00
H31    H     0.26517   0.08580   0.43913   0.00000  Uiso   1.00
H32    H     0.23693   0.20505   0.10960   0.00000  Uiso   1.00
H33    H     0.09675   0.12794   0.38957   0.00000  Uiso   1.00
H34    H     0.32919   0.24852   0.49638   0.00000  Uiso   1.00
H35    H     0.00279   0.08116   0.00484   0.00000  Uiso   1.00
H36    H     0.15380   0.21537   0.09250   0.00000  Uiso   1.00
H37    H     0.17792   0.11322   0.40855   0.00000  Uiso   1.00
H38    H     0.06607   0.00345   0.24425   0.00000  Uiso   1.00
N39    N     0.14695   0.15216   0.23740   0.00000  Uiso   1.00
N40    N     0.18638   0.18117   0.26261   0.00000  Uiso   1.00
O41    O     0.29719   0.24631   0.25310   0.00000  Uiso   1.00
O42    O     0.03614   0.08702   0.24691   0.00000  Uiso   1.00
O43    O     0.05822   0.23702   0.24502   0.00000  Uiso   1.00
O44    O     0.27512   0.09632   0.25499   0.00000  Uiso   1.00
O45    O     0.30328   0.17397   0.32247   0.00000  Uiso   1.00
O46    O     0.03005   0.15937   0.17753   0.00000  Uiso   1.00
O47    O     0.06431   0.16467   0.31439   0.00000  Uiso   1.00
O48    O     0.26902   0.16866   0.18561   0.00000  Uiso   1.00
Zn49   Zn    0.27033   0.17287   0.25540   0.00000  Uiso   1.00
Zn50   Zn    0.06300   0.16046   0.24461   0.00000  Uiso   1.00
Br51   Br    0.39779   0.08588   0.09926   0.00000  Uiso   1.00
Br52   Br    0.60110   0.24521   0.40199   0.00000  Uiso   1.00
C53    C     0.34843   0.26492   0.24878   0.00000  Uiso   1.00
C54    C     0.64585   0.16153   0.15877   0.00000  Uiso   1.00
C55    C     0.36409   0.17867   0.39415   0.00000  Uiso   1.00
C56    C     0.63570   0.15359   0.10596   0.00000  Uiso   1.00
C57    C     0.35275   0.22323   0.47293   0.00000  Uiso   1.00
C58    C     0.64619   0.10707   0.02793   0.00000  Uiso   1.00
C59    C     0.33343   0.21174   0.42447   0.00000  Uiso   1.00
C60    C     0.66583   0.11948   0.07619   0.00000  Uiso   1.00
C61    C     0.41127   0.15612   0.41322   0.00000  Uiso   1.00
C62    C     0.58855   0.17589   0.08660   0.00000  Uiso   1.00
C63    C     0.43474   0.17161   0.45987   0.00000  Uiso   1.00
C64    C     0.65156   0.06841   0.25121   0.00000  Uiso   1.00
C65    C     0.56444   0.15907   0.04047   0.00000  Uiso   1.00
C66    C     0.40376   0.20467   0.49037   0.00000  Uiso   1.00
C67    C     0.59516   0.12547   0.01033   0.00000  Uiso   1.00
C68    C     0.48877   0.15647   0.47628   0.00000  Uiso   1.00
C69    C     0.51016   0.17367   0.02421   0.00000  Uiso   1.00
C70    C     0.47588   0.20358   0.05480   0.00000  Uiso   1.00
C71    C     0.52278   0.12589   0.44599   0.00000  Uiso   1.00
C72    C     0.42410   0.21926   0.03781   0.00000  Uiso   1.00
C73    C     0.57450   0.11016   0.46312   0.00000  Uiso   1.00
C74    C     0.35626   0.31952   0.24803   0.00000  Uiso   1.00
C75    C     0.64374   0.01381   0.25195   0.00000  Uiso   1.00
C76    C     0.35412   0.17166   0.34125   0.00000  Uiso   1.00
H77    H     0.39984   0.24307   0.06206   0.00000  Uiso   1.00
H78    H     0.60059   0.32988   0.25572   0.00000  Uiso   1.00
H79    H     0.49577   0.12460   0.21367   0.00000  Uiso   1.00
H80    H     0.50423   0.20873   0.28633   0.00000  Uiso   1.00
H81    H     0.59850   0.08580   0.43913   0.00000  Uiso   1.00
H82    H     0.57026   0.20505   0.10960   0.00000  Uiso   1.00
H83    H     0.43009   0.12794   0.38957   0.00000  Uiso   1.00
H84    H     0.66252   0.24852   0.49638   0.00000  Uiso   1.00
H85    H     0.33612   0.08116   0.00484   0.00000  Uiso   1.00
H86    H     0.48713   0.21537   0.09250   0.00000  Uiso   1.00
H87    H     0.51126   0.11322   0.40855   0.00000  Uiso   1.00
H88    H     0.39941   0.00345   0.24425   0.00000  Uiso   1.00
N89    N     0.48029   0.15216   0.23740   0.00000  Uiso   1.00
N90    N     0.51971   0.18117   0.26261   0.00000  Uiso   1.00
O91    O     0.63052   0.24631   0.25310   0.00000  Uiso   1.00
O92    O     0.36948   0.08702   0.24691   0.00000  Uiso   1.00
O93    O     0.39155   0.23702   0.24502   0.00000  Uiso   1.00
O94    O     0.60845   0.09632   0.25499   0.00000  Uiso   1.00
O95    O     0.63662   0.17397   0.32247   0.00000  Uiso   1.00
O96    O     0.36338   0.15937   0.17753   0.00000  Uiso   1.00
O97    O     0.39764   0.16467   0.31439   0.00000  Uiso   1.00
O98    O     0.60236   0.16866   0.18561   0.00000  Uiso   1.00
Zn99   Zn    0.60366   0.17287   0.25540   0.00000  Uiso   1.00
Zn100  Zn    0.39634   0.16046   0.24461   0.00000  Uiso   1.00
Br101  Br    0.73113   0.08588   0.09926   0.00000  Uiso   1.00
Br102  Br    0.93444   0.24521   0.40199   0.00000  Uiso   1.00
C103   C     0.68177   0.26492   0.24878   0.00000  Uiso   1.00
C104   C     0.97918   0.16153   0.15877   0.00000  Uiso   1.00
C105   C     0.69743   0.17867   0.39415   0.00000  Uiso   1.00
C106   C     0.96904   0.15359   0.10596   0.00000  Uiso   1.00
C107   C     0.68608   0.22323   0.47293   0.00000  Uiso   1.00
C108   C     0.97952   0.10707   0.02793   0.00000  Uiso   1.00
C109   C     0.66676   0.21174   0.42447   0.00000  Uiso   1.00
C110   C     0.99916   0.11948   0.07619   0.00000  Uiso   1.00
C111   C     0.74460   0.15612   0.41322   0.00000  Uiso   1.00
C112   C     0.92188   0.17589   0.08660   0.00000  Uiso   1.00
C113   C     0.76808   0.17161   0.45987   0.00000  Uiso   1.00
C114   C     0.98490   0.06841   0.25121   0.00000  Uiso   1.00
C115   C     0.89777   0.15907   0.04047   0.00000  Uiso   1.00
C116   C     0.73709   0.20467   0.49037   0.00000  Uiso   1.00
C117   C     0.92849   0.12547   0.01033   0.00000  Uiso   1.00
C118   C     0.82211   0.15647   0.47628   0.00000  Uiso   1.00
C119   C     0.84350   0.17367   0.02421   0.00000  Uiso   1.00
C120   C     0.80921   0.20358   0.05480   0.00000  Uiso   1.00
C121   C     0.85612   0.12589   0.44599   0.00000  Uiso   1.00
C122   C     0.75744   0.21926   0.03781   0.00000  Uiso   1.00
C123   C     0.90783   0.11016   0.46312   0.00000  Uiso   1.00
C124   C     0.68959   0.31952   0.24803   0.00000  Uiso   1.00
C125   C     0.97707   0.01381   0.25195   0.00000  Uiso   1.00
C126   C     0.68746   0.17166   0.34125   0.00000  Uiso   1.00
H127   H     0.73317   0.24307   0.06206   0.00000  Uiso   1.00
H128   H     0.93392   0.32988   0.25572   0.00000  Uiso   1.00
H129   H     0.82910   0.12460   0.21367   0.00000  Uiso   1.00
H130   H     0.83756   0.20873   0.28633   0.00000  Uiso   1.00
H131   H     0.93184   0.08580   0.43913   0.00000  Uiso   1.00
H132   H     0.90359   0.20505   0.10960   0.00000  Uiso   1.00
H133   H     0.76342   0.12794   0.38957   0.00000  Uiso   1.00
H134   H     0.99585   0.24852   0.49638   0.00000  Uiso   1.00
H135   H     0.66946   0.08116   0.00484   0.00000  Uiso   1.00
H136   H     0.82047   0.21537   0.09250   0.00000  Uiso   1.00
H137   H     0.84459   0.11322   0.40855   0.00000  Uiso   1.00
H138   H     0.73274   0.00345   0.24425   0.00000  Uiso   1.00
N139   N     0.81362   0.15216   0.23740   0.00000  Uiso   1.00
N140   N     0.85305   0.18117   0.26261   0.00000  Uiso   1.00
O141   O     0.96386   0.24631   0.25310   0.00000  Uiso   1.00
O142   O     0.70281   0.08702   0.24691   0.00000  Uiso   1.00
O143   O     0.72488   0.23702   0.24502   0.00000  Uiso   1.00
O144   O     0.94178   0.09632   0.25499   0.00000  Uiso   1.00
O145   O     0.96995   0.17397   0.32247   0.00000  Uiso   1.00
O146   O     0.69672   0.15937   0.17753   0.00000  Uiso   1.00
O147   O     0.73098   0.16467   0.31439   0.00000  Uiso   1.00
O148   O     0.93569   0.16866   0.18561   0.00000  Uiso   1.00
Zn149  Zn    0.93700   0.17287   0.25540   0.00000  Uiso   1.00
Zn150  Zn    0.72967   0.16046   0.24461   0.00000  Uiso   1.00
Br151  Br    0.06446   0.41921   0.09926   0.00000  Uiso   1.00
Br152  Br    0.26777   0.57854   0.40199   0.00000  Uiso   1.00
C153   C     0.01510   0.59825   0.24878   0.00000  Uiso   1.00
C154   C     0.31252   0.49486   0.15877   0.00000  Uiso   1.00
C155   C     0.03076   0.51200   0.39415   0.00000  Uiso   1.00
C156   C     0.30237   0.48692   0.10596   0.00000  Uiso   1.00
C157   C     0.01941   0.55656   0.47293   0.00000  Uiso   1.00
C158   C     0.31285   0.44040   0.02793   0.00000  Uiso   1.00
C159   C     0.00009   0.54508   0.42447   0.00000  Uiso   1.00
C160   C     0.33249   0.45281   0.07619   0.00000  Uiso   1.00
C161   C     0.07794   0.48945   0.41322   0.00000  Uiso   1.00
C162   C     0.25521   0.50923   0.08660   0.00000  Uiso   1.00
C163   C     0.10141   0.50494   0.45987   0.00000  Uiso   1.00
C164   C     0.31823   0.40175   0.25121   0.00000  Uiso   1.00
C165   C     0.23111   0.49240   0.04047   0.00000  Uiso   1.00
C166   C     0.07043   0.53800   0.49037   0.00000  Uiso   1.00
C167   C     0.26183   0.45880   0.01033   0.00000  Uiso   1.00
C168   C     0.15544   0.48981   0.47628   0.00000  Uiso   1.00
C169   C     0.17683   0.50700   0.02421   0.00000  Uiso   1.00
C170   C     0.14254   0.53691   0.05480   0.00000  Uiso   1.00
C171   C     0.18945   0.45923   0.44599   0.00000  Uiso   1.00
C172   C     0.09077   0.55260   0.03781   0.00000  Uiso   1.00
C173   C     0.24117   0.44349   0.46312   0.00000  Uiso   1.00
C174   C     0.02293   0.65285   0.24803   0.00000  Uiso   1.00
C175   C     0.31040   0.34714   0.25195   0.00000  Uiso   1.00
C176   C     0.02079   0.50499   0.34125   0.00000  Uiso   1.00
H177   H     0.06651   0.57641   0.06206   0.00000  Uiso   1.00
H178   H     0.26725   0.66321   0.25572   0.00000  Uiso   1.00
H179   H     0.16243   0.45794   0.21367   0.00000  Uiso   1.00
H180   H     0.17090   0.54206   0.28633   0.00000  Uiso   1.00
H181   H     0.26517   0.41913   0.43913   0.00000  Uiso   1.00
H182   H     0.23693   0.53838   0.10960   0.00000  Uiso   1.00
H183   H     0.09675   0.46128   0.38957   0.00000  Uiso   1.00
H184   H     0.32919   0.58186   0.49638   0.00000  Uiso   1.00
H185   H     0.00279   0.41450   0.00484   0.00000  Uiso   1.00
H186   H     0.15380   0.54870   0.09250   0.00000  Uiso   1.00
H187   H     0.17792   0.44656   0.40855   0.00000  Uiso   1.00
H188   H     0.06607   0.33679   0.24425   0.00000  Uiso   1.00
N189   N     0.14695   0.48550   0.23740   0.00000  Uiso   1.00
N190   N     0.18638   0.51450   0.26261   0.00000  Uiso   1.00
O191   O     0.29719   0.57964   0.25310   0.00000  Uiso   1.00
O192   O     0.03614   0.42036   0.24691   0.00000  Uiso   1.00
O193   O     0.05822   0.57035   0.24502   0.00000  Uiso   1.00
O194   O     0.27512   0.42965   0.25499   0.00000  Uiso   1.00
O195   O     0.30328   0.50730   0.32247   0.00000  Uiso   1.00
O196   O     0.03005   0.49270   0.17753   0.00000  Uiso   1.00
O197   O     0.06431   0.49801   0.31439   0.00000  Uiso   1.00
O198   O     0.26902   0.50199   0.18561   0.00000  Uiso   1.00
Zn199  Zn    0.27033   0.50621   0.25540   0.00000  Uiso   1.00
Zn200  Zn    0.06300   0.49379   0.24461   0.00000  Uiso   1.00
Br201  Br    0.39779   0.41921   0.09926   0.00000  Uiso   1.00
Br202  Br    0.60110   0.57854   0.40199   0.00000  Uiso   1.00
C203   C     0.34843   0.59825   0.24878   0.00000  Uiso   1.00
C204   C     0.64585   0.49486   0.15877   0.00000  Uiso   1.00
C205   C     0.36409   0.51200   0.39415   0.00000  Uiso   1.00
C206   C     0.63570   0.48692   0.10596   0.00000  Uiso   1.00
C207   C     0.35275   0.55656   0.47293   0.00000  Uiso   1.00
C208   C     0.64619   0.44040   0.02793   0.00000  Uiso   1.00
C209   C     0.33343   0.54508   0.42447   0.00000  Uiso   1.00
C210   C     0.66583   0.45281   0.07619   0.00000  Uiso   1.00
C211   C     0.41127   0.48945   0.41322   0.00000  Uiso   1.00
C212   C     0.58855   0.50923   0.08660   0.00000  Uiso   1.00
C213   C     0.43474   0.50494   0.45987   0.00000  Uiso   1.00
C214   C     0.65156   0.40175   0.25121   0.00000  Uiso   1.00
C215   C     0.56444   0.49240   0.04047   0.00000  Uiso   1.00
C216   C     0.40376   0.53800   0.49037   0.00000  Uiso   1.00
C217   C     0.59516   0.45880   0.01033   0.00000  Uiso   1.00
C218   C     0.48877   0.48981   0.47628   0.00000  Uiso   1.00
C219   C     0.51016   0.50700   0.02421   0.00000  Uiso   1.00
C220   C     0.47588   0.53691   0.05480   0.00000  Uiso   1.00
C221   C     0.52278   0.45923   0.44599   0.00000  Uiso   1.00
C222   C     0.42410   0.55260   0.03781   0.00000  Uiso   1.00
C223   C     0.57450   0.44349   0.46312   0.00000  Uiso   1.00
C224   C     0.35626   0.65285   0.24803   0.00000  Uiso   1.00
C225   C     0.64374   0.34714   0.25195   0.00000  Uiso   1.00
C226   C     0.35412   0.50499   0.34125   0.00000  Uiso   1.00
H227   H     0.39984   0.57641   0.06206   0.00000  Uiso   1.00
H228   H     0.60059   0.66321   0.25572   0.00000  Uiso   1.00
H229   H     0.49577   0.45794   0.21367   0.00000  Uiso   1.00
H230   H     0.50423   0.54206   0.28633   0.00000  Uiso   1.00
H231   H     0.59850   0.41913   0.43913   0.00000  Uiso   1.00
H232   H     0.57026   0.53838   0.10960   0.00000  Uiso   1.00
H233   H     0.43009   0.46128   0.38957   0.00000  Uiso   1.00
H234   H     0.66252   0.58186   0.49638   0.00000  Uiso   1.00
H235   H     0.33612   0.41450   0.00484   0.00000  Uiso   1.00
H236   H     0.48713   0.54870   0.09250   0.00000  Uiso   1.00
H237   H     0.51126   0.44656   0.40855   0.00000  Uiso   1.00
H238   H     0.39941   0.33679   0.24425   0.00000  Uiso   1.00
N239   N     0.48029   0.48550   0.23740   0.00000  Uiso   1.00
N240   N     0.51971   0.51450   0.26261   0.00000  Uiso   1.00
O241   O     0.63052   0.57964   0.25310   0.00000  Uiso   1.00
O242   O     0.36948   0.42036   0.24691   0.00000  Uiso   1.00
O243   O     0.39155   0.57035   0.24502   0.00000  Uiso   1.00
O244   O     0.60845   0.42965   0.25499   0.00000  Uiso   1.00
O245   O     0.63662   0.50730   0.32247   0.00000  Uiso   1.00
O246   O     0.36338   0.49270   0.17753   0.00000  Uiso   1.00
O247   O     0.39764   0.49801   0.31439   0.00000  Uiso   1.00
O248   O     0.60236   0.50199   0.18561   0.00000  Uiso   1.00
Zn249  Zn    0.60366   0.50621   0.25540   0.00000  Uiso   1.00
Zn250  Zn    0.39634   0.49379   0.24461   0.00000  Uiso   1.00
Br251  Br    0.73113   0.41921   0.09926   0.00000  Uiso   1.00
Br252  Br    0.93444   0.57854   0.40199   0.00000  Uiso   1.00
C253   C     0.68177   0.59825   0.24878   0.00000  Uiso   1.00
C254   C     0.97918   0.49486   0.15877   0.00000  Uiso   1.00
C255   C     0.69743   0.51200   0.39415   0.00000  Uiso   1.00
C256   C     0.96904   0.48692   0.10596   0.00000  Uiso   1.00
C257   C     0.68608   0.55656   0.47293   0.00000  Uiso   1.00
C258   C     0.97952   0.44040   0.02793   0.00000  Uiso   1.00
C259   C     0.66676   0.54508   0.42447   0.00000  Uiso   1.00
C260   C     0.99916   0.45281   0.07619   0.00000  Uiso   1.00
C261   C     0.74460   0.48945   0.41322   0.00000  Uiso   1.00
C262   C     0.92188   0.50923   0.08660   0.00000  Uiso   1.00
C263   C     0.76808   0.50494   0.45987   0.00000  Uiso   1.00
C264   C     0.98490   0.40175   0.25121   0.00000  Uiso   1.00
C265   C     0.89777   0.49240   0.04047   0.00000  Uiso   1.00
C266   C     0.73709   0.53800   0.49037   0.00000  Uiso   1.00
C267   C     0.92849   0.45880   0.01033   0.00000  Uiso   1.00
C268   C     0.82211   0.48981   0.47628   0.00000  Uiso   1.00
C269   C     0.84350   0.50700   0.02421   0.00000  Uiso   1.00
C270   C     0.80921   0.53691   0.05480   0.00000  Uiso   1.00
C271   C     0.85612   0.45923   0.44599   0.00000  Uiso   1.00
C272   C     0.75744   0.55260   0.03781   0.00000  Uiso   1.00
C273   C     0.90783   0.44349   0.46312   0.00000  Uiso   1.00
C274   C     0.68959   0.65285   0.24803   0.00000  Uiso   1.00
C275   C     0.97707   0.34714   0.25195   0.00000  Uiso   1.00
C276   C     0.68746   0.50499   0.34125   0.00000  Uiso   1.00
H277   H     0.73317   0.57641   0.06206   0.00000  Uiso   1.00
H278   H     0.93392   0.66321   0.25572   0.00000  Uiso   1.00
H279   H     0.82910   0.45794   0.21367   0.00000  Uiso   1.00
H280   H     0.83756   0.54206   0.28633   0.00000  Uiso   1.00
H281   H     0.93184   0.41913   0.43913   0.00000  Uiso   1.00
H282   H     0.90359   0.53838   0.10960   0.00000  Uiso   1.00
H283   H     0.76342   0.46128   0.38957   0.00000  Uiso   1.00
H284   H     0.99585   0.58186   0.49638   0.00000  Uiso   1.00
H285   H     0.66946   0.41450   0.00484   0.00000  Uiso   1.00
H286   H     0.82047   0.54870   0.09250   0.00000  Uiso   1.00
H287   H     0.84459   0.44656   0.40855   0.00000  Uiso   1.00
H288   H     0.73274   0.33679   0.24425   0.00000  Uiso   1.00
N289   N     0.81362   0.48550   0.23740   0.00000  Uiso   1.00
N290   N     0.85305   0.51450   0.26261   0.00000  Uiso   1.00
O291   O     0.96386   0.57964   0.25310   0.00000  Uiso   1.00
O292   O     0.70281   0.42036   0.24691   0.00000  Uiso   1.00
O293   O     0.72488   0.57035   0.24502   0.00000  Uiso   1.00
O294   O     0.94178   0.42965   0.25499   0.00000  Uiso   1.00
O295   O     0.96995   0.50730   0.32247   0.00000  Uiso   1.00
O296   O     0.69672   0.49270   0.17753   0.00000  Uiso   1.00
O297   O     0.73098   0.49801   0.31439   0.00000  Uiso   1.00
O298   O     0.93569   0.50199   0.18561   0.00000  Uiso   1.00
Zn299  Zn    0.93700   0.50621   0.25540   0.00000  Uiso   1.00
Zn300  Zn    0.72967   0.49379   0.24461   0.00000  Uiso   1.00
Br301  Br    0.06446   0.75255   0.09926   0.00000  Uiso   1.00
Br302  Br    0.26777   0.91188   0.40199   0.00000  Uiso   1.00
C303   C     0.01510   0.93159   0.24878   0.00000  Uiso   1.00
C304   C     0.31252   0.82819   0.15877   0.00000  Uiso   1.00
C305   C     0.03076   0.84533   0.39415   0.00000  Uiso   1.00
C306   C     0.30237   0.82025   0.10596   0.00000  Uiso   1.00
C307   C     0.01941   0.88989   0.47293   0.00000  Uiso   1.00
C308   C     0.31285   0.77373   0.02793   0.00000  Uiso   1.00
C309   C     0.00009   0.87841   0.42447   0.00000  Uiso   1.00
C310   C     0.33249   0.78615   0.07619   0.00000  Uiso   1.00
C311   C     0.07794   0.82278   0.41322   0.00000  Uiso   1.00
C312   C     0.25521   0.84256   0.08660   0.00000  Uiso   1.00
C313   C     0.10141   0.83828   0.45987   0.00000  Uiso   1.00
C314   C     0.31823   0.73508   0.25121   0.00000  Uiso   1.00
C315   C     0.23111   0.82573   0.04047   0.00000  Uiso   1.00
C316   C     0.07043   0.87133   0.49037   0.00000  Uiso   1.00
C317   C     0.26183   0.79213   0.01033   0.00000  Uiso   1.00
C318   C     0.15544   0.82314   0.47628   0.00000  Uiso   1.00
C319   C     0.17683   0.84033   0.02421   0.00000  Uiso   1.00
C320   C     0.14254   0.87024   0.05480   0.00000  Uiso   1.00
C321   C     0.18945   0.79256   0.44599   0.00000  Uiso   1.00
C322   C     0.09077   0.88593   0.03781   0.00000  Uiso   1.00
C323   C     0.24117   0.77682   0.46312   0.00000  Uiso   1.00
C324   C     0.02293   0.98619   0.24803   0.00000  Uiso   1.00
C325   C     0.31040   0.68048   0.25195   0.00000  Uiso   1.00
C326   C     0.02079   0.83833   0.34125   0.00000  Uiso   1.00
H327   H     0.06651   0.90974   0.06206   0.00000  Uiso   1.00
H328   H     0.26725   0.99655   0.25572   0.00000  Uiso   1.00
H329   H     0.16243   0.79127   0.21367   0.00000  Uiso   1.00
H330   H     0.17090   0.87540   0.28633   0.00000  Uiso   1.00
H331   H     0.26517   0.75246   0.43913   0.00000  Uiso   1.00
H332   H     0.23693   0.87172   0.10960   0.00000  Uiso   1.00
H333   H     0.09675   0.79461   0.38957   0.00000  Uiso   1.00
H334   H     0.32919   0.91519   0.49638   0.00000  Uiso   1.00
H335   H     0.00279   0.74783   0.00484   0.00000  Uiso   1.00
H336   H     0.15380   0.88204   0.09250   0.00000  Uiso   1.00
H337   H     0.17792   0.77989   0.40855   0.00000  Uiso   1.00
H338   H     0.06607   0.67012   0.24425   0.00000  Uiso   1.00
N339   N     0.14695   0.81883   0.23740   0.00000  Uiso   1.00
N340   N     0.18638   0.84784   0.26261   0.00000  Uiso   1.00
O341   O     0.29719   0.91298   0.25310   0.00000  Uiso   1.00
O342   O     0.03614   0.75369   0.24691   0.00000  Uiso   1.00
O343   O     0.05822   0.90368   0.24502   0.00000  Uiso   1.00
O344   O     0.27512   0.76298   0.25499   0.00000  Uiso   1.00
O345   O     0.30328   0.84063   0.32247   0.00000  Uiso   1.00
O346   O     0.03005   0.82603   0.17753   0.00000  Uiso   1.00
O347   O     0.06431   0.83134   0.31439   0.00000  Uiso   1.00
O348   O     0.26902   0.83533   0.18561   0.00000  Uiso   1.00
Zn349  Zn    0.27033   0.83954   0.25540   0.00000  Uiso   1.00
Zn350  Zn    0.06300   0.82713   0.24461   0.00000  Uiso   1.00
Br351  Br    0.39779   0.75255   0.09926   0.00000  Uiso   1.00
Br352  Br    0.60110   0.91188   0.40199   0.00000  Uiso   1.00
C353   C     0.34843   0.93159   0.24878   0.00000  Uiso   1.00
C354   C     0.64585   0.82819   0.15877   0.00000  Uiso   1.00
C355   C     0.36409   0.84533   0.39415   0.00000  Uiso   1.00
C356   C     0.63570   0.82025   0.10596   0.00000  Uiso   1.00
C357   C     0.35275   0.88989   0.47293   0.00000  Uiso   1.00
C358   C     0.64619   0.77373   0.02793   0.00000  Uiso   1.00
C359   C     0.33343   0.87841   0.42447   0.00000  Uiso   1.00
C360   C     0.66583   0.78615   0.07619   0.00000  Uiso   1.00
C361   C     0.41127   0.82278   0.41322   0.00000  Uiso   1.00
C362   C     0.58855   0.84256   0.08660   0.00000  Uiso   1.00
C363   C     0.43474   0.83828   0.45987   0.00000  Uiso   1.00
C364   C     0.65156   0.73508   0.25121   0.00000  Uiso   1.00
C365   C     0.56444   0.82573   0.04047   0.00000  Uiso   1.00
C366   C     0.40376   0.87133   0.49037   0.00000  Uiso   1.00
C367   C     0.59516   0.79213   0.01033   0.00000  Uiso   1.00
C368   C     0.48877   0.82314   0.47628   0.00000  Uiso   1.00
C369   C     0.51016   0.84033   0.02421   0.00000  Uiso   1.00
C370   C     0.47588   0.87024   0.05480   0.00000  Uiso   1.00
C371   C     0.52278   0.79256   0.44599   0.00000  Uiso   1.00
C372   C     0.42410   0.88593   0.03781   0.00000  Uiso   1.00
C373   C     0.57450   0.77682   0.46312   0.00000  Uiso   1.00
C374   C     0.35626   0.98619   0.24803   0.00000  Uiso   1.00
C375   C     0.64374   0.68048   0.25195   0.00000  Uiso   1.00
C376   C     0.35412   0.83833   0.34125   0.00000  Uiso   1.00
H377   H     0.39984   0.90974   0.06206   0.00000  Uiso   1.00
H378   H     0.60059   0.99655   0.25572   0.00000  Uiso   1.00
H379   H     0.49577   0.79127   0.21367   0.00000  Uiso   1.00
H380   H     0.50423   0.87540   0.28633   0.00000  Uiso   1.00
H381   H     0.59850   0.75246   0.43913   0.00000  Uiso   1.00
H382   H     0.57026   0.87172   0.10960   0.00000  Uiso   1.00
H383   H     0.43009   0.79461   0.38957   0.00000  Uiso   1.00
H384   H     0.66252   0.91519   0.49638   0.00000  Uiso   1.00
H385   H     0.33612   0.74783   0.00484   0.00000  Uiso   1.00
H386   H     0.48713   0.88204   0.09250   0.00000  Uiso   1.00
H387   H     0.51126   0.77989   0.40855   0.00000  Uiso   1.00
H388   H     0.39941   0.67012   0.24425   0.00000  Uiso   1.00
N389   N     0.48029   0.81883   0.23740   0.00000  Uiso   1.00
N390   N     0.51971   0.84784   0.26261   0.00000  Uiso   1.00
O391   O     0.63052   0.91298   0.25310   0.00000  Uiso   1.00
O392   O     0.36948   0.75369   0.24691   0.00000  Uiso   1.00
O393   O     0.39155   0.90368   0.24502   0.00000  Uiso   1.00
O394   O     0.60845   0.76298   0.25499   0.00000  Uiso   1.00
O395   O     0.63662   0.84063   0.32247   0.00000  Uiso   1.00
O396   O     0.36338   0.82603   0.17753   0.00000  Uiso   1.00
O397   O     0.39764   0.83134   0.31439   0.00000  Uiso   1.00
O398   O     0.60236   0.83533   0.18561   0.00000  Uiso   1.00
Zn399  Zn    0.60366   0.83954   0.25540   0.00000  Uiso   1.00
Zn400  Zn    0.39634   0.82713   0.24461   0.00000  Uiso   1.00
Br401  Br    0.73113   0.75255   0.09926   0.00000  Uiso   1.00
Br402  Br    0.93444   0.91188   0.40199   0.00000  Uiso   1.00
C403   C     0.68177   0.93159   0.24878   0.00000  Uiso   1.00
C404   C     0.97918   0.82819   0.15877   0.00000  Uiso   1.00
C405   C     0.69743   0.84533   0.39415   0.00000  Uiso   1.00
C406   C     0.96904   0.82025   0.10596   0.00000  Uiso   1.00
C407   C     0.68608   0.88989   0.47293   0.00000  Uiso   1.00
C408   C     0.97952   0.77373   0.02793   0.00000  Uiso   1.00
C409   C     0.66676   0.87841   0.42447   0.00000  Uiso   1.00
C410   C     0.99916   0.78615   0.07619   0.00000  Uiso   1.00
C411   C     0.74460   0.82278   0.41322   0.00000  Uiso   1.00
C412   C     0.92188   0.84256   0.08660   0.00000  Uiso   1.00
C413   C     0.76808   0.83828   0.45987   0.00000  Uiso   1.00
C414   C     0.98490   0.73508   0.25121   0.00000  Uiso   1.00
C415   C     0.89777   0.82573   0.04047   0.00000  Uiso   1.00
C416   C     0.73709   0.87133   0.49037   0.00000  Uiso   1.00
C417   C     0.92849   0.79213   0.01033   0.00000  Uiso   1.00
C418   C     0.82211   0.82314   0.47628   0.00000  Uiso   1.00
C419   C     0.84350   0.84033   0.02421   0.00000  Uiso   1.00
C420   C     0.80921   0.87024   0.05480   0.00000  Uiso   1.00
C421   C     0.85612   0.79256   0.44599   0.00000  Uiso   1.00
C422   C     0.75744   0.88593   0.03781   0.00000  Uiso   1.00
C423   C     0.90783   0.77682   0.46312   0.00000  Uiso   1.00
C424   C     0.68959   0.98619   0.24803   0.00000  Uiso   1.00
C425   C     0.97707   0.68048   0.25195   0.00000  Uiso   1.00
C426   C     0.68746   0.83833   0.34125   0.00000  Uiso   1.00
H427   H     0.73317   0.90974   0.06206   0.00000  Uiso   1.00
H428   H     0.93392   0.99655   0.25572   0.00000  Uiso   1.00
H429   H     0.82910   0.79127   0.21367   0.00000  Uiso   1.00
H430   H     0.83756   0.87540   0.28633   0.00000  Uiso   1.00
H431   H     0.93184   0.75246   0.43913   0.00000  Uiso   1.00
H432   H     0.90359   0.87172   0.10960   0.00000  Uiso   1.00
H433   H     0.76342   0.79461   0.38957   0.00000  Uiso   1.00
H434   H     0.99585   0.91519   0.49638   0.00000  Uiso   1.00
H435   H     0.66946   0.74783   0.00484   0.00000  Uiso   1.00
H436   H     0.82047   0.88204   0.09250   0.00000  Uiso   1.00
H437   H     0.84459   0.77989   0.40855   0.00000  Uiso   1.00
H438   H     0.73274   0.67012   0.24425   0.00000  Uiso   1.00
N439   N     0.81362   0.81883   0.23740   0.00000  Uiso   1.00
N440   N     0.85305   0.84784   0.26261   0.00000  Uiso   1.00
O441   O     0.96386   0.91298   0.25310   0.00000  Uiso   1.00
O442   O     0.70281   0.75369   0.24691   0.00000  Uiso   1.00
O443   O     0.72488   0.90368   0.24502   0.00000  Uiso   1.00
O444   O     0.94178   0.76298   0.25499   0.00000  Uiso   1.00
O445   O     0.96995   0.84063   0.32247   0.00000  Uiso   1.00
O446   O     0.69672   0.82603   0.17753   0.00000  Uiso   1.00
O447   O     0.73098   0.83134   0.31439   0.00000  Uiso   1.00
O448   O     0.93569   0.83533   0.18561   0.00000  Uiso   1.00
Zn449  Zn    0.93700   0.83954   0.25540   0.00000  Uiso   1.00
Zn450  Zn    0.72967   0.82713   0.24461   0.00000  Uiso   1.00
Br451  Br    0.06446   0.08588   0.59926   0.00000  Uiso   1.00
Br452  Br    0.26777   0.24521   0.90199   0.00000  Uiso   1.00
C453   C     0.01510   0.26492   0.74878   0.00000  Uiso   1.00
C454   C     0.31252   0.16153   0.65877   0.00000  Uiso   1.00
C455   C     0.03076   0.17867   0.89415   0.00000  Uiso   1.00
C456   C     0.30237   0.15359   0.60596   0.00000  Uiso   1.00
C457   C     0.01941   0.22323   0.97293   0.00000  Uiso   1.00
C458   C     0.31285   0.10707   0.52793   0.00000  Uiso   1.00
C459   C     0.00009   0.21174   0.92447   0.00000  Uiso   1.00
C460   C     0.33249   0.11948   0.57619   0.00000  Uiso   1.00
C461   C     0.07794   0.15612   0.91322   0.00000  Uiso   1.00
C462   C     0.25521   0.17589   0.58660   0.00000  Uiso   1.00
C463   C     0.10141   0.17161   0.95987   0.00000  Uiso   1.00
C464   C     0.31823   0.06841   0.75121   0.00000  Uiso   1.00
C465   C     0.23111   0.15907   0.54047   0.00000  Uiso   1.00
C466   C     0.07043   0.20467   0.99037   0.00000  Uiso   1.00
C467   C     0.26183   0.12547   0.51033   0.00000  Uiso   1.00
C468   C     0.15544   0.15647   0.97628   0.00000  Uiso   1.00
C469   C     0.17683   0.17367   0.52421   0.00000  Uiso   1.00
C470   C     0.14254   0.20358   0.55480   0.00000  Uiso   1.00
C471   C     0.18945   0.12589   0.94599   0.00000  Uiso   1.00
C472   C     0.09077   0.21926   0.53781   0.00000  Uiso   1.00
C473   C     0.24117   0.11016   0.96312   0.00000  Uiso   1.00
C474   C     0.02293   0.31952   0.74803   0.00000  Uiso   1.00
C475   C     0.31040   0.01381   0.75195   0.00000  Uiso   1.00
C476   C     0.02079   0.17166   0.84125   0.00000  Uiso   1.00
H477   H     0.06651   0.24307   0.56206   0.00000  Uiso   1.00
H478   H     0.26725   0.32988   0.75572   0.00000  Uiso   1.00
H479   H     0.16243   0.12460   0.71367   0.00000  Uiso   1.00
H480   H     0.17090   0.20873   0.78633   0.00000  Uiso   1.00
H481   H     0.26517   0.08580   0.93913   0.00000  Uiso   1.00
H482   H     0.23693   0.20505   0.60960   0.00000  Uiso   1.00
H483   H     0.09675   0.12794   0.88957   0.00000  Uiso   1.00
H484   H     0.32919   0.24852   0.99638   0.00000  Uiso   1.00
H485   H     0.00279   0.08116   0.50484   0.00000  Uiso   1.00
H486   H     0.15380   0.21537   0.59250   0.00000  Uiso   1.00
H487   H     0.17792   0.11322   0.90855   0.00000  Uiso   1.00
H488   H     0.06607   0.00345   0.74425   0.00000  Uiso   1.00
N489   N     0.14695   0.15216   0.73740   0.00000  Uiso   1.00
N490   N     0.18638   0.18117   0.76261   0.00000  Uiso   1.00
O491   O     0.29719   0.24631   0.75310   0.00000  Uiso   1.00
O492   O     0.03614   0.08702   0.74691   0.00000  Uiso   1.00
O493   O     0.05822   0.23702   0.74502   0.00000  Uiso   1.00
O494   O     0.27512   0.09632   0.75499   0.00000  Uiso   1.00
O495   O     0.30328   0.17397   0.82247   0.00000  Uiso   1.00
O496   O     0.03005   0.15937   0.67753   0.00000  Uiso   1.00
O497   O     0.06431   0.16467   0.81439   0.00000  Uiso   1.00
O498   O     0.26902   0.16866   0.68561   0.00000  Uiso   1.00
Zn499  Zn    0.27033   0.17287   0.75540   0.00000  Uiso   1.00
Zn500  Zn    0.06300   0.16046   0.74461   0.00000  Uiso   1.00
Br501  Br    0.39779   0.08588   0.59926   0.00000  Uiso   1.00
Br502  Br    0.60110   0.24521   0.90199   0.00000  Uiso   1.00
C503   C     0.34843   0.26492   0.74878   0.00000  Uiso   1.00
C504   C     0.64585   0.16153   0.65877   0.00000  Uiso   1.00
C505   C     0.36409   0.17867   0.89415   0.00000  Uiso   1.00
C506   C     0.63570   0.15359   0.60596   0.00000  Uiso   1.00
C507   C     0.35275   0.22323   0.97293   0.00000  Uiso   1.00
C508   C     0.64619   0.10707   0.52793   0.00000  Uiso   1.00
C509   C     0.33343   0.21174   0.92447   0.00000  Uiso   1.00
C510   C     0.66583   0.11948   0.57619   0.00000  Uiso   1.00
C511   C     0.41127   0.15612   0.91322   0.00000  Uiso   1.00
C512   C     0.58855   0.17589   0.58660   0.00000  Uiso   1.00
C513   C     0.43474   0.17161   0.95987   0.00000  Uiso   1.00
C514   C     0.65156   0.06841   0.75121   0.00000  Uiso   1.00
C515   C     0.56444   0.15907   0.54047   0.00000  Uiso   1.00
C516   C     0.40376   0.20467   0.99037   0.00000  Uiso   1.00
C517   C     0.59516   0.12547   0.51033   0.00000  Uiso   1.00
C518   C     0.48877   0.15647   0.97628   0.00000  Uiso   1.00
C519   C     0.51016   0.17367   0.52421   0.00000  Uiso   1.00
C520   C     0.47588   0.20358   0.55480   0.00000  Uiso   1.00
C521   C     0.52278   0.12589   0.94599   0.00000  Uiso   1.00
C522   C     0.42410   0.21926   0.53781   0.00000  Uiso   1.00
C523   C     0.57450   0.11016   0.96312   0.00000  Uiso   1.00
C524   C     0.35626   0.31952   0.74803   0.00000  Uiso   1.00
C525   C     0.64374   0.01381   0.75195   0.00000  Uiso   1.00
C526   C     0.35412   0.17166   0.84125   0.00000  Uiso   1.00
H527   H     0.39984   0.24307   0.56206   0.00000  Uiso   1.00
H528   H     0.60059   0.32988   0.75572   0.00000  Uiso   1.00
H529   H     0.49577   0.12460   0.71367   0.00000  Uiso   1.00
H530   H     0.50423   0.20873   0.78633   0.00000  Uiso   1.00
H531   H     0.59850   0.08580   0.93913   0.00000  Uiso   1.00
H532   H     0.57026   0.20505   0.60960   0.00000  Uiso   1.00
H533   H     0.43009   0.12794   0.88957   0.00000  Uiso   1.00
H534   H     0.66252   0.24852   0.99638   0.00000  Uiso   1.00
H535   H     0.33612   0.08116   0.50484   0.00000  Uiso   1.00
H536   H     0.48713   0.21537   0.59250   0.00000  Uiso   1.00
H537   H     0.51126   0.11322   0.90855   0.00000  Uiso   1.00
H538   H     0.39941   0.00345   0.74425   0.00000  Uiso   1.00
N539   N     0.48029   0.15216   0.73740   0.00000  Uiso   1.00
N540   N     0.51971   0.18117   0.76261   0.00000  Uiso   1.00
O541   O     0.63052   0.24631   0.75310   0.00000  Uiso   1.00
O542   O     0.36948   0.08702   0.74691   0.00000  Uiso   1.00
O543   O     0.39155   0.23702   0.74502   0.00000  Uiso   1.00
O544   O     0.60845   0.09632   0.75499   0.00000  Uiso   1.00
O545   O     0.63662   0.17397   0.82247   0.00000  Uiso   1.00
O546   O     0.36338   0.15937   0.67753   0.00000  Uiso   1.00
O547   O     0.39764   0.16467   0.81439   0.00000  Uiso   1.00
O548   O     0.60236   0.16866   0.68561   0.00000  Uiso   1.00
Zn549  Zn    0.60366   0.17287   0.75540   0.00000  Uiso   1.00
Zn550  Zn    0.39634   0.16046   0.74461   0.00000  Uiso   1.00
Br551  Br    0.73113   0.08588   0.59926   0.00000  Uiso   1.00
Br552  Br    0.93444   0.24521   0.90199   0.00000  Uiso   1.00
C553   C     0.68177   0.26492   0.74878   0.00000  Uiso   1.00
C554   C     0.97918   0.16153   0.65877   0.00000  Uiso   1.00
C555   C     0.69743   0.17867   0.89415   0.00000  Uiso   1.00
C556   C     0.96904   0.15359   0.60596   0.00000  Uiso   1.00
C557   C     0.68608   0.22323   0.97293   0.00000  Uiso   1.00
C558   C     0.97952   0.10707   0.52793   0.00000  Uiso   1.00
C559   C     0.66676   0.21174   0.92447   0.00000  Uiso   1.00
C560   C     0.99916   0.11948   0.57619   0.00000  Uiso   1.00
C561   C     0.74460   0.15612   0.91322   0.00000  Uiso   1.00
C562   C     0.92188   0.17589   0.58660   0.00000  Uiso   1.00
C563   C     0.76808   0.17161   0.95987   0.00000  Uiso   1.00
C564   C     0.98490   0.06841   0.75121   0.00000  Uiso   1.00
C565   C     0.89777   0.15907   0.54047   0.00000  Uiso   1.00
C566   C     0.73709   0.20467   0.99037   0.00000  Uiso   1.00
C567   C     0.92849   0.12547   0.51033   0.00000  Uiso   1.00
C568   C     0.82211   0.15647   0.97628   0.00000  Uiso   1.00
C569   C     0.84350   0.17367   0.52421   0.00000  Uiso   1.00
C570   C     0.80921   0.20358   0.55480   0.00000  Uiso   1.00
C571   C     0.85612   0.12589   0.94599   0.00000  Uiso   1.00
C572   C     0.75744   0.21926   0.53781   0.00000  Uiso   1.00
C573   C     0.90783   0.11016   0.96312   0.00000  Uiso   1.00
C574   C     0.68959   0.31952   0.74803   0.00000  Uiso   1.00
C575   C     0.97707   0.01381   0.75195   0.00000  Uiso   1.00
C576   C     0.68746   0.17166   0.84125   0.00000  Uiso   1.00
H577   H     0.73317   0.24307   0.56206   0.00000  Uiso   1.00
H578   H     0.93392   0.32988   0.75572   0.00000  Uiso   1.00
H579   H     0.82910   0.12460   0.71367   0.00000  Uiso   1.00
H580   H     0.83756   0.20873   0.78633   0.00000  Uiso   1.00
H581   H     0.93184   0.08580   0.93913   0.00000  Uiso   1.00
H582   H     0.90359   0.20505   0.60960   0.00000  Uiso   1.00
H583   H     0.76342   0.12794   0.88957   0.00000  Uiso   1.00
H584   H     0.99585   0.24852   0.99638   0.00000  Uiso   1.00
H585   H     0.66946   0.08116   0.50484   0.00000  Uiso   1.00
H586   H     0.82047   0.21537   0.59250   0.00000  Uiso   1.00
H587   H     0.84459   0.11322   0.90855   0.00000  Uiso   1.00
H588   H     0.73274   0.00345   0.74425   0.00000  Uiso   1.00
N589   N     0.81362   0.15216   0.73740   0.00000  Uiso   1.00
N590   N     0.85305   0.18117   0.76261   0.00000  Uiso   1.00
O591   O     0.96386   0.24631   0.75310   0.00000  Uiso   1.00
O592   O     0.70281   0.08702   0.74691   0.00000  Uiso   1.00
O593   O     0.72488   0.23702   0.74502   0.00000  Uiso   1.00
O594   O     0.94178   0.09632   0.75499   0.00000  Uiso   1.00
O595   O     0.96995   0.17397   0.82247   0.00000  Uiso   1.00
O596   O     0.69672   0.15937   0.67753   0.00000  Uiso   1.00
O597   O     0.73098   0.16467   0.81439   0.00000  Uiso   1.00
O598   O     0.93569   0.16866   0.68561   0.00000  Uiso   1.00
Zn599  Zn    0.93700   0.17287   0.75540   0.00000  Uiso   1.00
Zn600  Zn    0.72967   0.16046   0.74461   0.00000  Uiso   1.00
Br601  Br    0.06446   0.41921   0.59926   0.00000  Uiso   1.00
Br602  Br    0.26777   0.57854   0.90199   0.00000  Uiso   1.00
C603   C     0.01510   0.59825   0.74878   0.00000  Uiso   1.00
C604   C     0.31252   0.49486   0.65877   0.00000  Uiso   1.00
C605   C     0.03076   0.51200   0.89415   0.00000  Uiso   1.00
C606   C     0.30237   0.48692   0.60596   0.00000  Uiso   1.00
C607   C     0.01941   0.55656   0.97293   0.00000  Uiso   1.00
C608   C     0.31285   0.44040   0.52793   0.00000  Uiso   1.00
C609   C     0.00009   0.54508   0.92447   0.00000  Uiso   1.00
C610   C     0.33249   0.45281   0.57619   0.00000  Uiso   1.00
C611   C     0.07794   0.48945   0.91322   0.00000  Uiso   1.00
C612   C     0.25521   0.50923   0.58660   0.00000  Uiso   1.00
C613   C     0.10141   0.50494   0.95987   0.00000  Uiso   1.00
C614   C     0.31823   0.40175   0.75121   0.00000  Uiso   1.00
C615   C     0.23111   0.49240   0.54047   0.00000  Uiso   1.00
C616   C     0.07043   0.53800   0.99037   0.00000  Uiso   1.00
C617   C     0.26183   0.45880   0.51033   0.00000  Uiso   1.00
C618   C     0.15544   0.48981   0.97628   0.00000  Uiso   1.00
C619   C     0.17683   0.50700   0.52421   0.00000  Uiso   1.00
C620   C     0.14254   0.53691   0.55480   0.00000  Uiso   1.00
C621   C     0.18945   0.45923   0.94599   0.00000  Uiso   1.00
C622   C     0.09077   0.55260   0.53781   0.00000  Uiso   1.00
C623   C     0.24117   0.44349   0.96312   0.00000  Uiso   1.00
C624   C     0.02293   0.65285   0.74803   0.00000  Uiso   1.00
C625   C     0.31040   0.34714   0.75195   0.00000  Uiso   1.00
C626   C     0.02079   0.50499   0.84125   0.00000  Uiso   1.00
H627   H     0.06651   0.57641   0.56206   0.00000  Uiso   1.00
H628   H     0.26725   0.66321   0.75572   0.00000  Uiso   1.00
H629   H     0.16243   0.45794   0.71367   0.00000  Uiso   1.00
H630   H     0.17090   0.54206   0.78633   0.00000  Uiso   1.00
H631   H     0.26517   0.41913   0.93913   0.00000  Uiso   1.00
H632   H     0.23693   0.53838   0.60960   0.00000  Uiso   1.00
H633   H     0.09675   0.46128   0.88957   0.00000  Uiso   1.00
H634   H     0.32919   0.58186   0.99638   0.00000  Uiso   1.00
H635   H     0.00279   0.41450   0.50484   0.00000  Uiso   1.00
H636   H     0.15380   0.54870   0.59250   0.00000  Uiso   1.00
H637   H     0.17792   0.44656   0.90855   0.00000  Uiso   1.00
H638   H     0.06607   0.33679   0.74425   0.00000  Uiso   1.00
N639   N     0.14695   0.48550   0.73740   0.00000  Uiso   1.00
N640   N     0.18638   0.51450   0.76261   0.00000  Uiso   1.00
O641   O     0.29719   0.57964   0.75310   0.00000  Uiso   1.00
O642   O     0.03614   0.42036   0.74691   0.00000  Uiso   1.00
O643   O     0.05822   0.57035   0.74502   0.00000  Uiso   1.00
O644   O     0.27512   0.42965   0.75499   0.00000  Uiso   1.00
O645   O     0.30328   0.50730   0.82247   0.00000  Uiso   1.00
O646   O     0.03005   0.49270   0.67753   0.00000  Uiso   1.00
O647   O     0.06431   0.49801   0.81439   0.00000  Uiso   1.00
O648   O     0.26902   0.50199   0.68561   0.00000  Uiso   1.00
Zn649  Zn    0.27033   0.50621   0.75540   0.00000  Uiso   1.00
Zn650  Zn    0.06300   0.49379   0.74461   0.00000  Uiso   1.00
Br651  Br    0.39779   0.41921   0.59926   0.00000  Uiso   1.00
Br652  Br    0.60110   0.57854   0.90199   0.00000  Uiso   1.00
C653   C     0.34843   0.59825   0.74878   0.00000  Uiso   1.00
C654   C     0.64585   0.49486   0.65877   0.00000  Uiso   1.00
C655   C     0.36409   0.51200   0.89415   0.00000  Uiso   1.00
C656   C     0.63570   0.48692   0.60596   0.00000  Uiso   1.00
C657   C     0.35275   0.55656   0.97293   0.00000  Uiso   1.00
C658   C     0.64619   0.44040   0.52793   0.00000  Uiso   1.00
C659   C     0.33343   0.54508   0.92447   0.00000  Uiso   1.00
C660   C     0.66583   0.45281   0.57619   0.00000  Uiso   1.00
C661   C     0.41127   0.48945   0.91322   0.00000  Uiso   1.00
C662   C     0.58855   0.50923   0.58660   0.00000  Uiso   1.00
C663   C     0.43474   0.50494   0.95987   0.00000  Uiso   1.00
C664   C     0.65156   0.40175   0.75121   0.00000  Uiso   1.00
C665   C     0.56444   0.49240   0.54047   0.00000  Uiso   1.00
C666   C     0.40376   0.53800   0.99037   0.00000  Uiso   1.00
C667   C     0.59516   0.45880   0.51033   0.00000  Uiso   1.00
C668   C     0.48877   0.48981   0.97628   0.00000  Uiso   1.00
C669   C     0.51016   0.50700   0.52421   0.00000  Uiso   1.00
C670   C     0.47588   0.53691   0.55480   0.00000  Uiso   1.00
C671   C     0.52278   0.45923   0.94599   0.00000  Uiso   1.00
C672   C     0.42410   0.55260   0.53781   0.00000  Uiso   1.00
C673   C     0.57450   0.44349   0.96312   0.00000  Uiso   1.00
C674   C     0.35626   0.65285   0.74803   0.00000  Uiso   1.00
C675   C     0.64374   0.34714   0.75195   0.00000  Uiso   1.00
C676   C     0.35412   0.50499   0.84125   0.00000  Uiso   1.00
H677   H     0.39984   0.57641   0.56206   0.00000  Uiso   1.00
H678   H     0.60059   0.66321   0.75572   0.00000  Uiso   1.00
H679   H     0.49577   0.45794   0.71367   0.00000  Uiso   1.00
H680   H     0.50423   0.54206   0.78633   0.00000  Uiso   1.00
H681   H     0.59850   0.41913   0.93913   0.00000  Uiso   1.00
H682   H     0.57026   0.53838   0.60960   0.00000  Uiso   1.00
H683   H     0.43009   0.46128   0.88957   0.00000  Uiso   1.00
H684   H     0.66252   0.58186   0.99638   0.00000  Uiso   1.00
H685   H     0.33612   0.41450   0.50484   0.00000  Uiso   1.00
H686   H     0.48713   0.54870   0.59250   0.00000  Uiso   1.00
H687   H     0.51126   0.44656   0.90855   0.00000  Uiso   1.00
H688   H     0.39941   0.33679   0.74425   0.00000  Uiso   1.00
N689   N     0.48029   0.48550   0.73740   0.00000  Uiso   1.00
N690   N     0.51971   0.51450   0.76261   0.00000  Uiso   1.00
O691   O     0.63052   0.57964   0.75310   0.00000  Uiso   1.00
O692   O     0.36948   0.42036   0.74691   0.00000  Uiso   1.00
O693   O     0.39155   0.57035   0.74502   0.00000  Uiso   1.00
O694   O     0.60845   0.42965   0.75499   0.00000  Uiso   1.00
O695   O     0.63662   0.50730   0.82247   0.00000  Uiso   1.00
O696   O     0.36338   0.49270   0.67753   0.00000  Uiso   1.00
O697   O     0.39764   0.49801   0.81439   0.00000  Uiso   1.00
O698   O     0.60236   0.50199   0.68561   0.00000  Uiso   1.00
Zn699  Zn    0.60366   0.50621   0.75540   0.00000  Uiso   1.00
Zn700  Zn    0.39634   0.49379   0.74461   0.00000  Uiso   1.00
Br701  Br    0.73113   0.41921   0.59926   0.00000  Uiso   1.00
Br702  Br    0.93444   0.57854   0.90199   0.00000  Uiso   1.00
C703   C     0.68177   0.59825   0.74878   0.00000  Uiso   1.00
C704   C     0.97918   0.49486   0.65877   0.00000  Uiso   1.00
C705   C     0.69743   0.51200   0.89415   0.00000  Uiso   1.00
C706   C     0.96904   0.48692   0.60596   0.00000  Uiso   1.00
C707   C     0.68608   0.55656   0.97293   0.00000  Uiso   1.00
C708   C     0.97952   0.44040   0.52793   0.00000  Uiso   1.00
C709   C     0.66676   0.54508   0.92447   0.00000  Uiso   1.00
C710   C     0.99916   0.45281   0.57619   0.00000  Uiso   1.00
C711   C     0.74460   0.48945   0.91322   0.00000  Uiso   1.00
C712   C     0.92188   0.50923   0.58660   0.00000  Uiso   1.00
C713   C     0.76808   0.50494   0.95987   0.00000  Uiso   1.00
C714   C     0.98490   0.40175   0.75121   0.00000  Uiso   1.00
C715   C     0.89777   0.49240   0.54047   0.00000  Uiso   1.00
C716   C     0.73709   0.53800   0.99037   0.00000  Uiso   1.00
C717   C     0.92849   0.45880   0.51033   0.00000  Uiso   1.00
C718   C     0.82211   0.48981   0.97628   0.00000  Uiso   1.00
C719   C     0.84350   0.50700   0.52421   0.00000  Uiso   1.00
C720   C     0.80921   0.53691   0.55480   0.00000  Uiso   1.00
C721   C     0.85612   0.45923   0.94599   0.00000  Uiso   1.00
C722   C     0.75744   0.55260   0.53781   0.00000  Uiso   1.00
C723   C     0.90783   0.44349   0.96312   0.00000  Uiso   1.00
C724   C     0.68959   0.65285   0.74803   0.00000  Uiso   1.00
C725   C     0.97707   0.34714   0.75195   0.00000  Uiso   1.00
C726   C     0.68746   0.50499   0.84125   0.00000  Uiso   1.00
H727   H     0.73317   0.57641   0.56206   0.00000  Uiso   1.00
H728   H     0.93392   0.66321   0.75572   0.00000  Uiso   1.00
H729   H     0.82910   0.45794   0.71367   0.00000  Uiso   1.00
H730   H     0.83756   0.54206   0.78633   0.00000  Uiso   1.00
H731   H     0.93184   0.41913   0.93913   0.00000  Uiso   1.00
H732   H     0.90359   0.53838   0.60960   0.00000  Uiso   1.00
H733   H     0.76342   0.46128   0.88957   0.00000  Uiso   1.00
H734   H     0.99585   0.58186   0.99638   0.00000  Uiso   1.00
H735   H     0.66946   0.41450   0.50484   0.00000  Uiso   1.00
H736   H     0.82047   0.54870   0.59250   0.00000  Uiso   1.00
H737   H     0.84459   0.44656   0.90855   0.00000  Uiso   1.00
H738   H     0.73274   0.33679   0.74425   0.00000  Uiso   1.00
N739   N     0.81362   0.48550   0.73740   0.00000  Uiso   1.00
N740   N     0.85305   0.51450   0.76261   0.00000  Uiso   1.00
O741   O     0.96386   0.57964   0.75310   0.00000  Uiso   1.00
O742   O     0.70281   0.42036   0.74691   0.00000  Uiso   1.00
O743   O     0.72488   0.57035   0.74502   0.00000  Uiso   1.00
O744   O     0.94178   0.42965   0.75499   0.00000  Uiso   1.00
O745   O     0.96995   0.50730   0.82247   0.00000  Uiso   1.00
O746   O     0.69672   0.49270   0.67753   0.00000  Uiso   1.00
O747   O     0.73098   0.49801   0.81439   0.00000  Uiso   1.00
O748   O     0.93569   0.50199   0.68561   0.00000  Uiso   1.00
Zn749  Zn    0.93700   0.50621   0.75540   0.00000  Uiso   1.00
Zn750  Zn    0.72967   0.49379   0.74461   0.00000  Uiso   1.00
Br751  Br    0.06446   0.75255   0.59926   0.00000  Uiso   1.00
Br752  Br    0.26777   0.91188   0.90199   0.00000  Uiso   1.00
C753   C     0.01510   0.93159   0.74878   0.00000  Uiso   1.00
C754   C     0.31252   0.82819   0.65877   0.00000  Uiso   1.00
C755   C     0.03076   0.84533   0.89415   0.00000  Uiso   1.00
C756   C     0.30237   0.82025   0.60596   0.00000  Uiso   1.00
C757   C     0.01941   0.88989   0.97293   0.00000  Uiso   1.00
C758   C     0.31285   0.77373   0.52793   0.00000  Uiso   1.00
C759   C     0.00009   0.87841   0.92447   0.00000  Uiso   1.00
C760   C     0.33249   0.78615   0.57619   0.00000  Uiso   1.00
C761   C     0.07794   0.82278   0.91322   0.00000  Uiso   1.00
C762   C     0.25521   0.84256   0.58660   0.00000  Uiso   1.00
C763   C     0.10141   0.83828   0.95987   0.00000  Uiso   1.00
C764   C     0.31823   0.73508   0.75121   0.00000  Uiso   1.00
C765   C     0.23111   0.82573   0.54047   0.00000  Uiso   1.00
C766   C     0.07043   0.87133   0.99037   0.00000  Uiso   1.00
C767   C     0.26183   0.79213   0.51033   0.00000  Uiso   1.00
C768   C     0.15544   0.82314   0.97628   0.00000  Uiso   1.00
C769   C     0.17683   0.84033   0.52421   0.00000  Uiso   1.00
C770   C     0.14254   0.87024   0.55480   0.00000  Uiso   1.00
C771   C     0.18945   0.79256   0.94599   0.00000  Uiso   1.00
C772   C     0.09077   0.88593   0.53781   0.00000  Uiso   1.00
C773   C     0.24117   0.77682   0.96312   0.00000  Uiso   1.00
C774   C     0.02293   0.98619   0.74803   0.00000  Uiso   1.00
C775   C     0.31040   0.68048   0.75195   0.00000  Uiso   1.00
C776   C     0.02079   0.83833   0.84125   0.00000  Uiso   1.00
H777   H     0.06651   0.90974   0.56206   0.00000  Uiso   1.00
H778   H     0.26725   0.99655   0.75572   0.00000  Uiso   1.00
H779   H     0.16243   0.79127   0.71367   0.00000  Uiso   1.00
H780   H     0.17090   0.87540   0.78633   0.00000  Uiso   1.00
H781   H     0.26517   0.75246   0.93913   0.00000  Uiso   1.00
H782   H     0.23693   0.87172   0.60960   0.00000  Uiso   1.00
H783   H     0.09675   0.79461   0.88957   0.00000  Uiso   1.00
H784   H     0.32919   0.91519   0.99638   0.00000  Uiso   1.00
H785   H     0.00279   0.74783   0.50484   0.00000  Uiso   1.00
H786   H     0.15380   0.88204   0.59250   0.00000  Uiso   1.00
H787   H     0.17792   0.77989   0.90855   0.00000  Uiso   1.00
H788   H     0.06607   0.67012   0.74425   0.00000  Uiso   1.00
N789   N     0.14695   0.81883   0.73740   0.00000  Uiso   1.00
N790   N     0.18638   0.84784   0.76261   0.00000  Uiso   1.00
O791   O     0.29719   0.91298   0.75310   0.00000  Uiso   1.00
O792   O     0.03614   0.75369   0.74691   0.00000  Uiso   1.00
O793   O     0.05822   0.90368   0.74502   0.00000  Uiso   1.00
O794   O     0.27512   0.76298   0.75499   0.00000  Uiso   1.00
O795   O     0.30328   0.84063   0.82247   0.00000  Uiso   1.00
O796   O     0.03005   0.82603   0.67753   0.00000  Uiso   1.00
O797   O     0.06431   0.83134   0.81439   0.00000  Uiso   1.00
O798   O     0.26902   0.83533   0.68561   0.00000  Uiso   1.00
Zn799  Zn    0.27033   0.83954   0.75540   0.00000  Uiso   1.00
Zn800  Zn    0.06300   0.82713   0.74461   0.00000  Uiso   1.00
Br801  Br    0.39779   0.75255   0.59926   0.00000  Uiso   1.00
Br802  Br    0.60110   0.91188   0.90199   0.00000  Uiso   1.00
C803   C     0.34843   0.93159   0.74878   0.00000  Uiso   1.00
C804   C     0.64585   0.82819   0.65877   0.00000  Uiso   1.00
C805   C     0.36409   0.84533   0.89415   0.00000  Uiso   1.00
C806   C     0.63570   0.82025   0.60596   0.00000  Uiso   1.00
C807   C     0.35275   0.88989   0.97293   0.00000  Uiso   1.00
C808   C     0.64619   0.77373   0.52793   0.00000  Uiso   1.00
C809   C     0.33343   0.87841   0.92447   0.00000  Uiso   1.00
C810   C     0.66583   0.78615   0.57619   0.00000  Uiso   1.00
C811   C     0.41127   0.82278   0.91322   0.00000  Uiso   1.00
C812   C     0.58855   0.84256   0.58660   0.00000  Uiso   1.00
C813   C     0.43474   0.83828   0.95987   0.00000  Uiso   1.00
C814   C     0.65156   0.73508   0.75121   0.00000  Uiso   1.00
C815   C     0.56444   0.82573   0.54047   0.00000  Uiso   1.00
C816   C     0.40376   0.87133   0.99037   0.00000  Uiso   1.00
C817   C     0.59516   0.79213   0.51033   0.00000  Uiso   1.00
C818   C     0.48877   0.82314   0.97628   0.00000  Uiso   1.00
C819   C     0.51016   0.84033   0.52421   0.00000  Uiso   1.00
C820   C     0.47588   0.87024   0.55480   0.00000  Uiso   1.00
C821   C     0.52278   0.79256   0.94599   0.00000  Uiso   1.00
C822   C     0.42410   0.88593   0.53781   0.00000  Uiso   1.00
C823   C     0.57450   0.77682   0.96312   0.00000  Uiso   1.00
C824   C     0.35626   0.98619   0.74803   0.00000  Uiso   1.00
C825   C     0.64374   0.68048   0.75195   0.00000  Uiso   1.00
C826   C     0.35412   0.83833   0.84125   0.00000  Uiso   1.00
H827   H     0.39984   0.90974   0.56206   0.00000  Uiso   1.00
H828   H     0.60059   0.99655   0.75572   0.00000  Uiso   1.00
H829   H     0.49577   0.79127   0.71367   0.00000  Uiso   1.00
H830   H     0.50423   0.87540   0.78633   0.00000  Uiso   1.00
H831   H     0.59850   0.75246   0.93913   0.00000  Uiso   1.00
H832   H     0.57026   0.87172   0.60960   0.00000  Uiso   1.00
H833   H     0.43009   0.79461   0.88957   0.00000  Uiso   1.00
H834   H     0.66252   0.91519   0.99638   0.00000  Uiso   1.00
H835   H     0.33612   0.74783   0.50484   0.00000  Uiso   1.00
H836   H     0.48713   0.88204   0.59250   0.00000  Uiso   1.00
H837   H     0.51126   0.77989   0.90855   0.00000  Uiso   1.00
H838   H     0.39941   0.67012   0.74425   0.00000  Uiso   1.00
N839   N     0.48029   0.81883   0.73740   0.00000  Uiso   1.00
N840   N     0.51971   0.84784   0.76261   0.00000  Uiso   1.00
O841   O     0.63052   0.91298   0.75310   0.00000  Uiso   1.00
O842   O     0.36948   0.75369   0.74691   0.00000  Uiso   1.00
O843   O     0.39155   0.90368   0.74502   0.00000  Uiso   1.00
O844   O     0.60845   0.76298   0.75499   0.00000  Uiso   1.00
O845   O     0.63662   0.84063   0.82247   0.00000  Uiso   1.00
O846   O     0.36338   0.82603   0.67753   0.00000  Uiso   1.00
O847   O     0.39764   0.83134   0.81439   0.00000  Uiso   1.00
O848   O     0.60236   0.83533   0.68561   0.00000  Uiso   1.00
Zn849  Zn    0.60366   0.83954   0.75540   0.00000  Uiso   1.00
Zn850  Zn    0.39634   0.82713   0.74461   0.00000  Uiso   1.00
Br851  Br    0.73113   0.75255   0.59926   0.00000  Uiso   1.00
Br852  Br    0.93444   0.91188   0.90199   0.00000  Uiso   1.00
C853   C     0.68177   0.93159   0.74878   0.00000  Uiso   1.00
C854   C     0.97918   0.82819   0.65877   0.00000  Uiso   1.00
C855   C     0.69743   0.84533   0.89415   0.00000  Uiso   1.00
C856   C     0.96904   0.82025   0.60596   0.00000  Uiso   1.00
C857   C     0.68608   0.88989   0.97293   0.00000  Uiso   1.00
C858   C     0.97952   0.77373   0.52793   0.00000  Uiso   1.00
C859   C     0.66676   0.87841   0.92447   0.00000  Uiso   1.00
C860   C     0.99916   0.78615   0.57619   0.00000  Uiso   1.00
C861   C     0.74460   0.82278   0.91322   0.00000  Uiso   1.00
C862   C     0.92188   0.84256   0.58660   0.00000  Uiso   1.00
C863   C     0.76808   0.83828   0.95987   0.00000  Uiso   1.00
C864   C     0.98490   0.73508   0.75121   0.00000  Uiso   1.00
C865   C     0.89777   0.82573   0.54047   0.00000  Uiso   1.00
C866   C     0.73709   0.87133   0.99037   0.00000  Uiso   1.00
C867   C     0.92849   0.79213   0.51033   0.00000  Uiso   1.00
C868   C     0.82211   0.82314   0.97628   0.00000  Uiso   1.00
C869   C     0.84350   0.84033   0.52421   0.00000  Uiso   1.00
C870   C     0.80921   0.87024   0.55480   0.00000  Uiso   1.00
C871   C     0.85612   0.79256   0.94599   0.00000  Uiso   1.00
C872   C     0.75744   0.88593   0.53781   0.00000  Uiso   1.00
C873   C     0.90783   0.77682   0.96312   0.00000  Uiso   1.00
C874   C     0.68959   0.98619   0.74803   0.00000  Uiso   1.00
C875   C     0.97707   0.68048   0.75195   0.00000  Uiso   1.00
C876   C     0.68746   0.83833   0.84125   0.00000  Uiso   1.00
H877   H     0.73317   0.90974   0.56206   0.00000  Uiso   1.00
H878   H     0.93392   0.99655   0.75572   0.00000  Uiso   1.00
H879   H     0.82910   0.79127   0.71367   0.00000  Uiso   1.00
H880   H     0.83756   0.87540   0.78633   0.00000  Uiso   1.00
H881   H     0.93184   0.75246   0.93913   0.00000  Uiso   1.00
H882   H     0.90359   0.87172   0.60960   0.00000  Uiso   1.00
H883   H     0.76342   0.79461   0.88957   0.00000  Uiso   1.00
H884   H     0.99585   0.91519   0.99638   0.00000  Uiso   1.00
H885   H     0.66946   0.74783   0.50484   0.00000  Uiso   1.00
H886   H     0.82047   0.88204   0.59250   0.00000  Uiso   1.00
H887   H     0.84459   0.77989   0.90855   0.00000  Uiso   1.00
H888   H     0.73274   0.67012   0.74425   0.00000  Uiso   1.00
N889   N     0.81362   0.81883   0.73740   0.00000  Uiso   1.00
N890   N     0.85305   0.84784   0.76261   0.00000  Uiso   1.00
O891   O     0.96386   0.91298   0.75310   0.00000  Uiso   1.00
O892   O     0.70281   0.75369   0.74691   0.00000  Uiso   1.00
O893   O     0.72488   0.90368   0.74502   0.00000  Uiso   1.00
O894   O     0.94178   0.76298   0.75499   0.00000  Uiso   1.00
O895   O     0.96995   0.84063   0.82247   0.00000  Uiso   1.00
O896   O     0.69672   0.82603   0.67753   0.00000  Uiso   1.00
O897   O     0.73098   0.83134   0.81439   0.00000  Uiso   1.00
O898   O     0.93569   0.83533   0.68561   0.00000  Uiso   1.00
Zn899  Zn    0.93700   0.83954   0.75540   0.00000  Uiso   1.00
Zn900  Zn    0.72967   0.82713   0.74461   0.00000  Uiso   1.00
loop_
_geom_bond_atom_site_label_1
_geom_bond_atom_site_label_2
_geom_bond_distance
_geom_bond_site_symmetry_2
_ccdc_geom_bond_type
Br1    C110    1.922   1_455 S
Br2    C59     1.922   .     S
C3     O43     1.290   .     A
C3     C24     1.402   .     S
C3     O141    1.275   1_455 S
C4     C6      1.457   .     S
C4     O48     1.302   .     A
C4     O96     1.289   .     S
C5     C9      1.410   .     A
C5     C26     1.457   .     S
C5     C11     1.388   .     A
C6     C10     1.411   .     A
C6     C12     1.388   .     A
C7     C9      1.393   .     A
C7     C16     1.401   .     A
C7     H134    1.084   1_455 S
C8     C10     1.393   .     A
C8     C17     1.401   .     A
C8     H85     1.084   .     S
C9     Br102   1.922   1_455 S
C10    Br51    1.922   .     S
C11    C13     1.394   .     A
C11    H33     1.075   .     S
C12    C15     1.394   .     A
C12    H32     1.076   .     S
C13    C18     1.421   .     A
C13    C16     1.417   .     A
C14    C25     1.402   .     S
C14    O44     1.290   .     A
C14    O92     1.275   .     S
C15    C19     1.420   .     A
C15    C17     1.417   .     A
C16    C472    1.386   .     S
C17    C473    1.386   1_554 S
C18    C21     1.420   .     A
C18    C469    1.419   .     S
C19    C20     1.419   .     A
C19    C468    1.419   1_554 S
C20    C22     1.383   .     A
C20    H36     1.075   .     S
C21    C23     1.384   .     A
C21    H37     1.075   .     S
C22    H27     1.085   .     S
C22    C466    1.386   1_554 S
C23    H31     1.085   .     S
C23    C467    1.386   .     S
C24    C275    1.340   1_455 S
C24    H188    1.088   .     S
C25    C374    1.340   1_545 S
C25    H328    1.088   1_545 S
C26    O47     1.302   .     A
C26    O145    1.289   1_455 S
H28    C175    1.088   .     S
H29    N39     1.029   .     S
H30    N40     1.029   .     S
H34    C57     1.084   .     S
H35    C108    1.084   1_455 S
H38    C324    1.088   1_545 S
N39    Zn50    2.018   .     S
N39    N40     1.293   .     D
N40    Zn49    2.018   .     S
O41    Zn49    1.949   .     S
O41    C53     1.275   .     S
O42    Zn50    1.949   .     S
O42    C114    1.275   1_455 S
O43    Zn50    1.978   .     S
O44    Zn49    1.978   .     S
O45    Zn49    1.963   .     S
O45    C76     1.289   .     S
O46    Zn50    1.963   .     S
O46    C104    1.289   1_455 S
O47    Zn50    1.908   .     S
O48    Zn49    1.908   .     S
Br52   C109    1.922   .     S
C53    O93     1.290   .     A
C53    C74     1.402   .     S
C54    C56     1.457   .     S
C54    O98     1.302   .     A
C54    O146    1.289   .     S
C55    C59     1.410   .     A
C55    C76     1.457   .     S
C55    C61     1.388   .     A
C56    C60     1.411   .     A
C56    C62     1.388   .     A
C57    C59     1.393   .     A
C57    C66     1.401   .     A
C58    C60     1.393   .     A
C58    C67     1.401   .     A
C58    H135    1.084   .     S
C60    Br101   1.922   .     S
C61    C63     1.394   .     A
C61    H83     1.075   .     S
C62    C65     1.394   .     A
C62    H82     1.076   .     S
C63    C68     1.421   .     A
C63    C66     1.417   .     A
C64    C75     1.402   .     S
C64    O94     1.290   .     A
C64    O142    1.275   .     S
C65    C69     1.420   .     A
C65    C67     1.417   .     A
C66    C522    1.386   .     S
C67    C523    1.386   1_554 S
C68    C71     1.420   .     A
C68    C519    1.419   .     S
C69    C70     1.419   .     A
C69    C518    1.419   1_554 S
C70    C72     1.383   .     A
C70    H86     1.075   .     S
C71    C73     1.384   .     A
C71    H87     1.075   .     S
C72    H77     1.085   .     S
C72    C516    1.386   1_554 S
C73    H81     1.085   .     S
C73    C517    1.386   .     S
C74    C175    1.340   .     S
C74    H238    1.088   .     S
C75    C424    1.340   1_545 S
C75    H378    1.088   1_545 S
C76    O97     1.302   .     A
H78    C225    1.088   .     S
H79    N89     1.029   .     S
H80    N90     1.029   .     S
H84    C107    1.084   .     S
H88    C374    1.088   1_545 S
N89    Zn100   2.018   .     S
N89    N90     1.293   .     D
N90    Zn99    2.018   .     S
O91    Zn99    1.949   .     S
O91    C103    1.275   .     S
O92    Zn100   1.949   .     S
O93    Zn100   1.978   .     S
O94    Zn99    1.978   .     S
O95    Zn99    1.963   .     S
O95    C126    1.289   .     S
O96    Zn100   1.963   .     S
O97    Zn100   1.908   .     S
O98    Zn99    1.908   .     S
Br102  C9      1.922   1_655 S
C103   O143    1.290   .     A
C103   C124    1.402   .     S
C104   C106    1.457   .     S
C104   O148    1.302   .     A
C104   O46     1.289   1_655 S
C105   C109    1.410   .     A
C105   C126    1.457   .     S
C105   C111    1.388   .     A
C106   C110    1.411   .     A
C106   C112    1.388   .     A
C107   C109    1.393   .     A
C107   C116    1.401   .     A
C108   C110    1.393   .     A
C108   C117    1.401   .     A
C108   H35     1.084   1_655 S
C110   Br1     1.922   1_655 S
C111   C113    1.394   .     A
C111   H133    1.075   .     S
C112   C115    1.394   .     A
C112   H132    1.076   .     S
C113   C118    1.421   .     A
C113   C116    1.417   .     A
C114   C125    1.402   .     S
C114   O144    1.290   .     A
C114   O42     1.275   1_655 S
C115   C119    1.420   .     A
C115   C117    1.417   .     A
C116   C572    1.386   .     S
C117   C573    1.386   1_554 S
C118   C121    1.420   .     A
C118   C569    1.419   .     S
C119   C120    1.419   .     A
C119   C568    1.419   1_554 S
C120   C122    1.383   .     A
C120   H136    1.075   .     S
C121   C123    1.384   .     A
C121   H137    1.075   .     S
C122   H127    1.085   .     S
C122   C566    1.386   1_554 S
C123   H131    1.085   .     S
C123   C567    1.386   .     S
C124   C225    1.340   .     S
C124   H288    1.088   .     S
C125   C324    1.340   1_645 S
C125   H428    1.088   1_545 S
C126   O147    1.302   .     A
H128   C275    1.088   .     S
H129   N139    1.029   .     S
H130   N140    1.029   .     S
H134   C7      1.084   1_655 S
H138   C424    1.088   1_545 S
N139   Zn150   2.018   .     S
N139   N140    1.293   .     D
N140   Zn149   2.018   .     S
O141   Zn149   1.949   .     S
O141   C3      1.275   1_655 S
O142   Zn150   1.949   .     S
O143   Zn150   1.978   .     S
O144   Zn149   1.978   .     S
O145   Zn149   1.963   .     S
O145   C26     1.289   1_655 S
O146   Zn150   1.963   .     S
O147   Zn150   1.908   .     S
O148   Zn149   1.908   .     S
Br151  C260    1.922   1_455 S
Br152  C209    1.922   .     S
C153   O193    1.290   .     A
C153   C174    1.402   .     S
C153   O291    1.275   1_455 S
C154   C156    1.457   .     S
C154   O198    1.302   .     A
C154   O246    1.289   .     S
C155   C159    1.410   .     A
C155   C176    1.457   .     S
C155   C161    1.388   .     A
C156   C160    1.411   .     A
C156   C162    1.388   .     A
C157   C159    1.393   .     A
C157   C166    1.401   .     A
C157   H284    1.084   1_455 S
C158   C160    1.393   .     A
C158   C167    1.401   .     A
C158   H235    1.084   .     S
C159   Br252   1.922   1_455 S
C160   Br201   1.922   .     S
C161   C163    1.394   .     A
C161   H183    1.075   .     S
C162   C165    1.394   .     A
C162   H182    1.076   .     S
C163   C168    1.421   .     A
C163   C166    1.417   .     A
C164   C175    1.402   .     S
C164   O194    1.290   .     A
C164   O242    1.275   .     S
C165   C169    1.420   .     A
C165   C167    1.417   .     A
C166   C622    1.386   .     S
C167   C623    1.386   1_554 S
C168   C171    1.420   .     A
C168   C619    1.419   .     S
C169   C170    1.419   .     A
C169   C618    1.419   1_554 S
C170   C172    1.383   .     A
C170   H186    1.075   .     S
C171   C173    1.384   .     A
C171   H187    1.075   .     S
C172   H177    1.085   .     S
C172   C616    1.386   1_554 S
C173   H181    1.085   .     S
C173   C617    1.386   .     S
C174   C425    1.340   1_455 S
C174   H338    1.088   .     S
C176   O197    1.302   .     A
C176   O295    1.289   1_455 S
H178   C325    1.088   .     S
H179   N189    1.029   .     S
H180   N190    1.029   .     S
H184   C207    1.084   .     S
H185   C258    1.084   1_455 S
N189   Zn200   2.018   .     S
N189   N190    1.293   .     D
N190   Zn199   2.018   .     S
O191   Zn199   1.949   .     S
O191   C203    1.275   .     S
O192   Zn200   1.949   .     S
O192   C264    1.275   1_455 S
O193   Zn200   1.978   .     S
O194   Zn199   1.978   .     S
O195   Zn199   1.963   .     S
O195   C226    1.289   .     S
O196   Zn200   1.963   .     S
O196   C254    1.289   1_455 S
O197   Zn200   1.908   .     S
O198   Zn199   1.908   .     S
Br202  C259    1.922   .     S
C203   O243    1.290   .     A
C203   C224    1.402   .     S
C204   C206    1.457   .     S
C204   O248    1.302   .     A
C204   O296    1.289   .     S
C205   C209    1.410   .     A
C205   C226    1.457   .     S
C205   C211    1.388   .     A
C206   C210    1.411   .     A
C206   C212    1.388   .     A
C207   C209    1.393   .     A
C207   C216    1.401   .     A
C208   C210    1.393   .     A
C208   C217    1.401   .     A
C208   H285    1.084   .     S
C210   Br251   1.922   .     S
C211   C213    1.394   .     A
C211   H233    1.075   .     S
C212   C215    1.394   .     A
C212   H232    1.076   .     S
C213   C218    1.421   .     A
C213   C216    1.417   .     A
C214   C225    1.402   .     S
C214   O244    1.290   .     A
C214   O292    1.275   .     S
C215   C219    1.420   .     A
C215   C217    1.417   .     A
C216   C672    1.386   .     S
C217   C673    1.386   1_554 S
C218   C221    1.420   .     A
C218   C669    1.419   .     S
C219   C220    1.419   .     A
C219   C668    1.419   1_554 S
C220   C222    1.383   .     A
C220   H236    1.075   .     S
C221   C223    1.384   .     A
C221   H237    1.075   .     S
C222   H227    1.085   .     S
C222   C666    1.386   1_554 S
C223   H231    1.085   .     S
C223   C667    1.386   .     S
C224   C325    1.340   .     S
C224   H388    1.088   .     S
C226   O247    1.302   .     A
H228   C375    1.088   .     S
H229   N239    1.029   .     S
H230   N240    1.029   .     S
H234   C257    1.084   .     S
N239   Zn250   2.018   .     S
N239   N240    1.293   .     D
N240   Zn249   2.018   .     S
O241   Zn249   1.949   .     S
O241   C253    1.275   .     S
O242   Zn250   1.949   .     S
O243   Zn250   1.978   .     S
O244   Zn249   1.978   .     S
O245   Zn249   1.963   .     S
O245   C276    1.289   .     S
O246   Zn250   1.963   .     S
O247   Zn250   1.908   .     S
O248   Zn249   1.908   .     S
Br252  C159    1.922   1_655 S
C253   O293    1.290   .     A
C253   C274    1.402   .     S
C254   C256    1.457   .     S
C254   O298    1.302   .     A
C254   O196    1.289   1_655 S
C255   C259    1.410   .     A
C255   C276    1.457   .     S
C255   C261    1.388   .     A
C256   C260    1.411   .     A
C256   C262    1.388   .     A
C257   C259    1.393   .     A
C257   C266    1.401   .     A
C258   C260    1.393   .     A
C258   C267    1.401   .     A
C258   H185    1.084   1_655 S
C260   Br151   1.922   1_655 S
C261   C263    1.394   .     A
C261   H283    1.075   .     S
C262   C265    1.394   .     A
C262   H282    1.076   .     S
C263   C268    1.421   .     A
C263   C266    1.417   .     A
C264   C275    1.402   .     S
C264   O294    1.290   .     A
C264   O192    1.275   1_655 S
C265   C269    1.420   .     A
C265   C267    1.417   .     A
C266   C722    1.386   .     S
C267   C723    1.386   1_554 S
C268   C271    1.420   .     A
C268   C719    1.419   .     S
C269   C270    1.419   .     A
C269   C718    1.419   1_554 S
C270   C272    1.383   .     A
C270   H286    1.075   .     S
C271   C273    1.384   .     A
C271   H287    1.075   .     S
C272   H277    1.085   .     S
C272   C716    1.386   1_554 S
C273   H281    1.085   .     S
C273   C717    1.386   .     S
C274   C375    1.340   .     S
C274   H438    1.088   .     S
C275   C24     1.340   1_655 S
C276   O297    1.302   .     A
H278   C425    1.088   .     S
H279   N289    1.029   .     S
H280   N290    1.029   .     S
H284   C157    1.084   1_655 S
N289   Zn300   2.018   .     S
N289   N290    1.293   .     D
N290   Zn299   2.018   .     S
O291   Zn299   1.949   .     S
O291   C153    1.275   1_655 S
O292   Zn300   1.949   .     S
O293   Zn300   1.978   .     S
O294   Zn299   1.978   .     S
O295   Zn299   1.963   .     S
O295   C176    1.289   1_655 S
O296   Zn300   1.963   .     S
O297   Zn300   1.908   .     S
O298   Zn299   1.908   .     S
Br301  C410    1.922   1_455 S
Br302  C359    1.922   .     S
C303   O343    1.290   .     A
C303   C324    1.402   .     S
C303   O441    1.275   1_455 S
C304   C306    1.457   .     S
C304   O348    1.302   .     A
C304   O396    1.289   .     S
C305   C309    1.410   .     A
C305   C326    1.457   .     S
C305   C311    1.388   .     A
C306   C310    1.411   .     A
C306   C312    1.388   .     A
C307   C309    1.393   .     A
C307   C316    1.401   .     A
C307   H434    1.084   1_455 S
C308   C310    1.393   .     A
C308   C317    1.401   .     A
C308   H385    1.084   .     S
C309   Br402   1.922   1_455 S
C310   Br351   1.922   .     S
C311   C313    1.394   .     A
C311   H333    1.075   .     S
C312   C315    1.394   .     A
C312   H332    1.076   .     S
C313   C318    1.421   .     A
C313   C316    1.417   .     A
C314   C325    1.402   .     S
C314   O344    1.290   .     A
C314   O392    1.275   .     S
C315   C319    1.420   .     A
C315   C317    1.417   .     A
C316   C772    1.386   .     S
C317   C773    1.386   1_554 S
C318   C321    1.420   .     A
C318   C769    1.419   .     S
C319   C320    1.419   .     A
C319   C768    1.419   1_554 S
C320   C322    1.383   .     A
C320   H336    1.075   .     S
C321   C323    1.384   .     A
C321   H337    1.075   .     S
C322   H327    1.085   .     S
C322   C766    1.386   1_554 S
C323   H331    1.085   .     S
C323   C767    1.386   .     S
C324   C125    1.340   1_465 S
C324   H38     1.088   1_565 S
C326   O347    1.302   .     A
C326   O445    1.289   1_455 S
H328   C25     1.088   1_565 S
H329   N339    1.029   .     S
H330   N340    1.029   .     S
H334   C357    1.084   .     S
H335   C408    1.084   1_455 S
N339   Zn350   2.018   .     S
N339   N340    1.293   .     D
N340   Zn349   2.018   .     S
O341   Zn349   1.949   .     S
O341   C353    1.275   .     S
O342   Zn350   1.949   .     S
O342   C414    1.275   1_455 S
O343   Zn350   1.978   .     S
O344   Zn349   1.978   .     S
O345   Zn349   1.963   .     S
O345   C376    1.289   .     S
O346   Zn350   1.963   .     S
O346   C404    1.289   1_455 S
O347   Zn350   1.908   .     S
O348   Zn349   1.908   .     S
Br352  C409    1.922   .     S
C353   O393    1.290   .     A
C353   C374    1.402   .     S
C354   C356    1.457   .     S
C354   O398    1.302   .     A
C354   O446    1.289   .     S
C355   C359    1.410   .     A
C355   C376    1.457   .     S
C355   C361    1.388   .     A
C356   C360    1.411   .     A
C356   C362    1.388   .     A
C357   C359    1.393   .     A
C357   C366    1.401   .     A
C358   C360    1.393   .     A
C358   C367    1.401   .     A
C358   H435    1.084   .     S
C360   Br401   1.922   .     S
C361   C363    1.394   .     A
C361   H383    1.075   .     S
C362   C365    1.394   .     A
C362   H382    1.076   .     S
C363   C368    1.421   .     A
C363   C366    1.417   .     A
C364   C375    1.402   .     S
C364   O394    1.290   .     A
C364   O442    1.275   .     S
C365   C369    1.420   .     A
C365   C367    1.417   .     A
C366   C822    1.386   .     S
C367   C823    1.386   1_554 S
C368   C371    1.420   .     A
C368   C819    1.419   .     S
C369   C370    1.419   .     A
C369   C818    1.419   1_554 S
C370   C372    1.383   .     A
C370   H386    1.075   .     S
C371   C373    1.384   .     A
C371   H387    1.075   .     S
C372   H377    1.085   .     S
C372   C816    1.386   1_554 S
C373   H381    1.085   .     S
C373   C817    1.386   .     S
C374   C25     1.340   1_565 S
C374   H88     1.088   1_565 S
C376   O397    1.302   .     A
H378   C75     1.088   1_565 S
H379   N389    1.029   .     S
H380   N390    1.029   .     S
H384   C407    1.084   .     S
N389   Zn400   2.018   .     S
N389   N390    1.293   .     D
N390   Zn399   2.018   .     S
O391   Zn399   1.949   .     S
O391   C403    1.275   .     S
O392   Zn400   1.949   .     S
O393   Zn400   1.978   .     S
O394   Zn399   1.978   .     S
O395   Zn399   1.963   .     S
O395   C426    1.289   .     S
O396   Zn400   1.963   .     S
O397   Zn400   1.908   .     S
O398   Zn399   1.908   .     S
Br402  C309    1.922   1_655 S
C403   O443    1.290   .     A
C403   C424    1.402   .     S
C404   C406    1.457   .     S
C404   O448    1.302   .     A
C404   O346    1.289   1_655 S
C405   C409    1.410   .     A
C405   C426    1.457   .     S
C405   C411    1.388   .     A
C406   C410    1.411   .     A
C406   C412    1.388   .     A
C407   C409    1.393   .     A
C407   C416    1.401   .     A
C408   C410    1.393   .     A
C408   C417    1.401   .     A
C408   H335    1.084   1_655 S
C410   Br301   1.922   1_655 S
C411   C413    1.394   .     A
C411   H433    1.075   .     S
C412   C415    1.394   .     A
C412   H432    1.076   .     S
C413   C418    1.421   .     A
C413   C416    1.417   .     A
C414   C425    1.402   .     S
C414   O444    1.290   .     A
C414   O342    1.275   1_655 S
C415   C419    1.420   .     A
C415   C417    1.417   .     A
C416   C872    1.386   .     S
C417   C873    1.386   1_554 S
C418   C421    1.420   .     A
C418   C869    1.419   .     S
C419   C420    1.419   .     A
C419   C868    1.419   1_554 S
C420   C422    1.383   .     A
C420   H436    1.075   .     S
C421   C423    1.384   .     A
C421   H437    1.075   .     S
C422   H427    1.085   .     S
C422   C866    1.386   1_554 S
C423   H431    1.085   .     S
C423   C867    1.386   .     S
C424   C75     1.340   1_565 S
C424   H138    1.088   1_565 S
C425   C174    1.340   1_655 S
C426   O447    1.302   .     A
H428   C125    1.088   1_565 S
H429   N439    1.029   .     S
H430   N440    1.029   .     S
H434   C307    1.084   1_655 S
N439   Zn450   2.018   .     S
N439   N440    1.293   .     D
N440   Zn449   2.018   .     S
O441   Zn449   1.949   .     S
O441   C303    1.275   1_655 S
O442   Zn450   1.949   .     S
O443   Zn450   1.978   .     S
O444   Zn449   1.978   .     S
O445   Zn449   1.963   .     S
O445   C326    1.289   1_655 S
O446   Zn450   1.963   .     S
O447   Zn450   1.908   .     S
O448   Zn449   1.908   .     S
Br451  C560    1.922   1_455 S
Br452  C509    1.922   .     S
C453   O493    1.290   .     A
C453   C474    1.402   .     S
C453   O591    1.275   1_455 S
C454   C456    1.457   .     S
C454   O498    1.302   .     A
C454   O546    1.289   .     S
C455   C459    1.410   .     A
C455   C476    1.457   .     S
C455   C461    1.388   .     A
C456   C460    1.411   .     A
C456   C462    1.388   .     A
C457   C459    1.393   .     A
C457   C466    1.401   .     A
C457   H584    1.084   1_455 S
C458   C460    1.393   .     A
C458   C467    1.401   .     A
C458   H535    1.084   .     S
C459   Br552   1.922   1_455 S
C460   Br501   1.922   .     S
C461   C463    1.394   .     A
C461   H483    1.075   .     S
C462   C465    1.394   .     A
C462   H482    1.076   .     S
C463   C468    1.421   .     A
C463   C466    1.417   .     A
C464   C475    1.402   .     S
C464   O494    1.290   .     A
C464   O542    1.275   .     S
C465   C469    1.420   .     A
C465   C467    1.417   .     A
C466   C22     1.386   1_556 S
C468   C471    1.420   .     A
C468   C19     1.419   1_556 S
C469   C470    1.419   .     A
C470   C472    1.383   .     A
C470   H486    1.075   .     S
C471   C473    1.384   .     A
C471   H487    1.075   .     S
C472   H477    1.085   .     S
C473   H481    1.085   .     S
C473   C17     1.386   1_556 S
C474   C725    1.340   1_455 S
C474   H638    1.088   .     S
C475   C824    1.340   1_545 S
C475   H778    1.088   1_545 S
C476   O497    1.302   .     A
C476   O595    1.289   1_455 S
H478   C625    1.088   .     S
H479   N489    1.029   .     S
H480   N490    1.029   .     S
H484   C507    1.084   .     S
H485   C558    1.084   1_455 S
H488   C774    1.088   1_545 S
N489   Zn500   2.018   .     S
N489   N490    1.293   .     D
N490   Zn499   2.018   .     S
O491   Zn499   1.949   .     S
O491   C503    1.275   .     S
O492   Zn500   1.949   .     S
O492   C564    1.275   1_455 S
O493   Zn500   1.978   .     S
O494   Zn499   1.978   .     S
O495   Zn499   1.963   .     S
O495   C526    1.289   .     S
O496   Zn500   1.963   .     S
O496   C554    1.289   1_455 S
O497   Zn500   1.908   .     S
O498   Zn499   1.908   .     S
Br502  C559    1.922   .     S
C503   O543    1.290   .     A
C503   C524    1.402   .     S
C504   C506    1.457   .     S
C504   O548    1.302   .     A
C504   O596    1.289   .     S
C505   C509    1.410   .     A
C505   C526    1.457   .     S
C505   C511    1.388   .     A
C506   C510    1.411   .     A
C506   C512    1.388   .     A
C507   C509    1.393   .     A
C507   C516    1.401   .     A
C508   C510    1.393   .     A
C508   C517    1.401   .     A
C508   H585    1.084   .     S
C510   Br551   1.922   .     S
C511   C513    1.394   .     A
C511   H533    1.075   .     S
C512   C515    1.394   .     A
C512   H532    1.076   .     S
C513   C518    1.421   .     A
C513   C516    1.417   .     A
C514   C525    1.402   .     S
C514   O544    1.290   .     A
C514   O592    1.275   .     S
C515   C519    1.420   .     A
C515   C517    1.417   .     A
C516   C72     1.386   1_556 S
C518   C521    1.420   .     A
C518   C69     1.419   1_556 S
C519   C520    1.419   .     A
C520   C522    1.383   .     A
C520   H536    1.075   .     S
C521   C523    1.384   .     A
C521   H537    1.075   .     S
C522   H527    1.085   .     S
C523   H531    1.085   .     S
C523   C67     1.386   1_556 S
C524   C625    1.340   .     S
C524   H688    1.088   .     S
C525   C874    1.340   1_545 S
C525   H828    1.088   1_545 S
C526   O547    1.302   .     A
H528   C675    1.088   .     S
H529   N539    1.029   .     S
H530   N540    1.029   .     S
H534   C557    1.084   .     S
H538   C824    1.088   1_545 S
N539   Zn550   2.018   .     S
N539   N540    1.293   .     D
N540   Zn549   2.018   .     S
O541   Zn549   1.949   .     S
O541   C553    1.275   .     S
O542   Zn550   1.949   .     S
O543   Zn550   1.978   .     S
O544   Zn549   1.978   .     S
O545   Zn549   1.963   .     S
O545   C576    1.289   .     S
O546   Zn550   1.963   .     S
O547   Zn550   1.908   .     S
O548   Zn549   1.908   .     S
Br552  C459    1.922   1_655 S
C553   O593    1.290   .     A
C553   C574    1.402   .     S
C554   C556    1.457   .     S
C554   O598    1.302   .     A
C554   O496    1.289   1_655 S
C555   C559    1.410   .     A
C555   C576    1.457   .     S
C555   C561    1.388   .     A
C556   C560    1.411   .     A
C556   C562    1.388   .     A
C557   C559    1.393   .     A
C557   C566    1.401   .     A
C558   C560    1.393   .     A
C558   C567    1.401   .     A
C558   H485    1.084   1_655 S
C560   Br451   1.922   1_655 S
C561   C563    1.394   .     A
C561   H583    1.075   .     S
C562   C565    1.394   .     A
C562   H582    1.076   .     S
C563   C568    1.421   .     A
C563   C566    1.417   .     A
C564   C575    1.402   .     S
C564   O594    1.290   .     A
C564   O492    1.275   1_655 S
C565   C569    1.420   .     A
C565   C567    1.417   .     A
C566   C122    1.386   1_556 S
C568   C571    1.420   .     A
C568   C119    1.419   1_556 S
C569   C570    1.419   .     A
C570   C572    1.383   .     A
C570   H586    1.075   .     S
C571   C573    1.384   .     A
C571   H587    1.075   .     S
C572   H577    1.085   .     S
C573   H581    1.085   .     S
C573   C117    1.386   1_556 S
C574   C675    1.340   .     S
C574   H738    1.088   .     S
C575   C774    1.340   1_645 S
C575   H878    1.088   1_545 S
C576   O597    1.302   .     A
H578   C725    1.088   .     S
H579   N589    1.029   .     S
H580   N590    1.029   .     S
H584   C457    1.084   1_655 S
H588   C874    1.088   1_545 S
N589   Zn600   2.018   .     S
N589   N590    1.293   .     D
N590   Zn599   2.018   .     S
O591   Zn599   1.949   .     S
O591   C453    1.275   1_655 S
O592   Zn600   1.949   .     S
O593   Zn600   1.978   .     S
O594   Zn599   1.978   .     S
O595   Zn599   1.963   .     S
O595   C476    1.289   1_655 S
O596   Zn600   1.963   .     S
O597   Zn600   1.908   .     S
O598   Zn599   1.908   .     S
Br601  C710    1.922   1_455 S
Br602  C659    1.922   .     S
C603   O643    1.290   .     A
C603   C624    1.402   .     S
C603   O741    1.275   1_455 S
C604   C606    1.457   .     S
C604   O648    1.302   .     A
C604   O696    1.289   .     S
C605   C609    1.410   .     A
C605   C626    1.457   .     S
C605   C611    1.388   .     A
C606   C610    1.411   .     A
C606   C612    1.388   .     A
C607   C609    1.393   .     A
C607   C616    1.401   .     A
C607   H734    1.084   1_455 S
C608   C610    1.393   .     A
C608   C617    1.401   .     A
C608   H685    1.084   .     S
C609   Br702   1.922   1_455 S
C610   Br651   1.922   .     S
C611   C613    1.394   .     A
C611   H633    1.075   .     S
C612   C615    1.394   .     A
C612   H632    1.076   .     S
C613   C618    1.421   .     A
C613   C616    1.417   .     A
C614   C625    1.402   .     S
C614   O644    1.290   .     A
C614   O692    1.275   .     S
C615   C619    1.420   .     A
C615   C617    1.417   .     A
C616   C172    1.386   1_556 S
C618   C621    1.420   .     A
C618   C169    1.419   1_556 S
C619   C620    1.419   .     A
C620   C622    1.383   .     A
C620   H636    1.075   .     S
C621   C623    1.384   .     A
C621   H637    1.075   .     S
C622   H627    1.085   .     S
C623   H631    1.085   .     S
C623   C167    1.386   1_556 S
C624   C875    1.340   1_455 S
C624   H788    1.088   .     S
C626   O647    1.302   .     A
C626   O745    1.289   1_455 S
H628   C775    1.088   .     S
H629   N639    1.029   .     S
H630   N640    1.029   .     S
H634   C657    1.084   .     S
H635   C708    1.084   1_455 S
N639   Zn650   2.018   .     S
N639   N640    1.293   .     D
N640   Zn649   2.018   .     S
O641   Zn649   1.949   .     S
O641   C653    1.275   .     S
O642   Zn650   1.949   .     S
O642   C714    1.275   1_455 S
O643   Zn650   1.978   .     S
O644   Zn649   1.978   .     S
O645   Zn649   1.963   .     S
O645   C676    1.289   .     S
O646   Zn650   1.963   .     S
O646   C704    1.289   1_455 S
O647   Zn650   1.908   .     S
O648   Zn649   1.908   .     S
Br652  C709    1.922   .     S
C653   O693    1.290   .     A
C653   C674    1.402   .     S
C654   C656    1.457   .     S
C654   O698    1.302   .     A
C654   O746    1.289   .     S
C655   C659    1.410   .     A
C655   C676    1.457   .     S
C655   C661    1.388   .     A
C656   C660    1.411   .     A
C656   C662    1.388   .     A
C657   C659    1.393   .     A
C657   C666    1.401   .     A
C658   C660    1.393   .     A
C658   C667    1.401   .     A
C658   H735    1.084   .     S
C660   Br701   1.922   .     S
C661   C663    1.394   .     A
C661   H683    1.075   .     S
C662   C665    1.394   .     A
C662   H682    1.076   .     S
C663   C668    1.421   .     A
C663   C666    1.417   .     A
C664   C675    1.402   .     S
C664   O694    1.290   .     A
C664   O742    1.275   .     S
C665   C669    1.420   .     A
C665   C667    1.417   .     A
C666   C222    1.386   1_556 S
C668   C671    1.420   .     A
C668   C219    1.419   1_556 S
C669   C670    1.419   .     A
C670   C672    1.383   .     A
C670   H686    1.075   .     S
C671   C673    1.384   .     A
C671   H687    1.075   .     S
C672   H677    1.085   .     S
C673   H681    1.085   .     S
C673   C217    1.386   1_556 S
C674   C775    1.340   .     S
C674   H838    1.088   .     S
C676   O697    1.302   .     A
H678   C825    1.088   .     S
H679   N689    1.029   .     S
H680   N690    1.029   .     S
H684   C707    1.084   .     S
N689   Zn700   2.018   .     S
N689   N690    1.293   .     D
N690   Zn699   2.018   .     S
O691   Zn699   1.949   .     S
O691   C703    1.275   .     S
O692   Zn700   1.949   .     S
O693   Zn700   1.978   .     S
O694   Zn699   1.978   .     S
O695   Zn699   1.963   .     S
O695   C726    1.289   .     S
O696   Zn700   1.963   .     S
O697   Zn700   1.908   .     S
O698   Zn699   1.908   .     S
Br702  C609    1.922   1_655 S
C703   O743    1.290   .     A
C703   C724    1.402   .     S
C704   C706    1.457   .     S
C704   O748    1.302   .     A
C704   O646    1.289   1_655 S
C705   C709    1.410   .     A
C705   C726    1.457   .     S
C705   C711    1.388   .     A
C706   C710    1.411   .     A
C706   C712    1.388   .     A
C707   C709    1.393   .     A
C707   C716    1.401   .     A
C708   C710    1.393   .     A
C708   C717    1.401   .     A
C708   H635    1.084   1_655 S
C710   Br601   1.922   1_655 S
C711   C713    1.394   .     A
C711   H733    1.075   .     S
C712   C715    1.394   .     A
C712   H732    1.076   .     S
C713   C718    1.421   .     A
C713   C716    1.417   .     A
C714   C725    1.402   .     S
C714   O744    1.290   .     A
C714   O642    1.275   1_655 S
C715   C719    1.420   .     A
C715   C717    1.417   .     A
C716   C272    1.386   1_556 S
C718   C721    1.420   .     A
C718   C269    1.419   1_556 S
C719   C720    1.419   .     A
C720   C722    1.383   .     A
C720   H736    1.075   .     S
C721   C723    1.384   .     A
C721   H737    1.075   .     S
C722   H727    1.085   .     S
C723   H731    1.085   .     S
C723   C267    1.386   1_556 S
C724   C825    1.340   .     S
C724   H888    1.088   .     S
C725   C474    1.340   1_655 S
C726   O747    1.302   .     A
H728   C875    1.088   .     S
H729   N739    1.029   .     S
H730   N740    1.029   .     S
H734   C607    1.084   1_655 S
N739   Zn750   2.018   .     S
N739   N740    1.293   .     D
N740   Zn749   2.018   .     S
O741   Zn749   1.949   .     S
O741   C603    1.275   1_655 S
O742   Zn750   1.949   .     S
O743   Zn750   1.978   .     S
O744   Zn749   1.978   .     S
O745   Zn749   1.963   .     S
O745   C626    1.289   1_655 S
O746   Zn750   1.963   .     S
O747   Zn750   1.908   .     S
O748   Zn749   1.908   .     S
Br751  C860    1.922   1_455 S
Br752  C809    1.922   .     S
C753   O793    1.290   .     A
C753   C774    1.402   .     S
C753   O891    1.275   1_455 S
C754   C756    1.457   .     S
C754   O798    1.302   .     A
C754   O846    1.289   .     S
C755   C759    1.410   .     A
C755   C776    1.457   .     S
C755   C761    1.388   .     A
C756   C760    1.411   .     A
C756   C762    1.388   .     A
C757   C759    1.393   .     A
C757   C766    1.401   .     A
C757   H884    1.084   1_455 S
C758   C760    1.393   .     A
C758   C767    1.401   .     A
C758   H835    1.084   .     S
C759   Br852   1.922   1_455 S
C760   Br801   1.922   .     S
C761   C763    1.394   .     A
C761   H783    1.075   .     S
C762   C765    1.394   .     A
C762   H782    1.076   .     S
C763   C768    1.421   .     A
C763   C766    1.417   .     A
C764   C775    1.402   .     S
C764   O794    1.290   .     A
C764   O842    1.275   .     S
C765   C769    1.420   .     A
C765   C767    1.417   .     A
C766   C322    1.386   1_556 S
C768   C771    1.420   .     A
C768   C319    1.419   1_556 S
C769   C770    1.419   .     A
C770   C772    1.383   .     A
C770   H786    1.075   .     S
C771   C773    1.384   .     A
C771   H787    1.075   .     S
C772   H777    1.085   .     S
C773   H781    1.085   .     S
C773   C317    1.386   1_556 S
C774   C575    1.340   1_465 S
C774   H488    1.088   1_565 S
C776   O797    1.302   .     A
C776   O895    1.289   1_455 S
H778   C475    1.088   1_565 S
H779   N789    1.029   .     S
H780   N790    1.029   .     S
H784   C807    1.084   .     S
H785   C858    1.084   1_455 S
N789   Zn800   2.018   .     S
N789   N790    1.293   .     D
N790   Zn799   2.018   .     S
O791   Zn799   1.949   .     S
O791   C803    1.275   .     S
O792   Zn800   1.949   .     S
O792   C864    1.275   1_455 S
O793   Zn800   1.978   .     S
O794   Zn799   1.978   .     S
O795   Zn799   1.963   .     S
O795   C826    1.289   .     S
O796   Zn800   1.963   .     S
O796   C854    1.289   1_455 S
O797   Zn800   1.908   .     S
O798   Zn799   1.908   .     S
Br802  C859    1.922   .     S
C803   O843    1.290   .     A
C803   C824    1.402   .     S
C804   C806    1.457   .     S
C804   O848    1.302   .     A
C804   O896    1.289   .     S
C805   C809    1.410   .     A
C805   C826    1.457   .     S
C805   C811    1.388   .     A
C806   C810    1.411   .     A
C806   C812    1.388   .     A
C807   C809    1.393   .     A
C807   C816    1.401   .     A
C808   C810    1.393   .     A
C808   C817    1.401   .     A
C808   H885    1.084   .     S
C810   Br851   1.922   .     S
C811   C813    1.394   .     A
C811   H833    1.075   .     S
C812   C815    1.394   .     A
C812   H832    1.076   .     S
C813   C818    1.421   .     A
C813   C816    1.417   .     A
C814   C825    1.402   .     S
C814   O844    1.290   .     A
C814   O892    1.275   .     S
C815   C819    1.420   .     A
C815   C817    1.417   .     A
C816   C372    1.386   1_556 S
C818   C821    1.420   .     A
C818   C369    1.419   1_556 S
C819   C820    1.419   .     A
C820   C822    1.383   .     A
C820   H836    1.075   .     S
C821   C823    1.384   .     A
C821   H837    1.075   .     S
C822   H827    1.085   .     S
C823   H831    1.085   .     S
C823   C367    1.386   1_556 S
C824   C475    1.340   1_565 S
C824   H538    1.088   1_565 S
C826   O847    1.302   .     A
H828   C525    1.088   1_565 S
H829   N839    1.029   .     S
H830   N840    1.029   .     S
H834   C857    1.084   .     S
N839   Zn850   2.018   .     S
N839   N840    1.293   .     D
N840   Zn849   2.018   .     S
O841   Zn849   1.949   .     S
O841   C853    1.275   .     S
O842   Zn850   1.949   .     S
O843   Zn850   1.978   .     S
O844   Zn849   1.978   .     S
O845   Zn849   1.963   .     S
O845   C876    1.289   .     S
O846   Zn850   1.963   .     S
O847   Zn850   1.908   .     S
O848   Zn849   1.908   .     S
Br852  C759    1.922   1_655 S
C853   O893    1.290   .     A
C853   C874    1.402   .     S
C854   C856    1.457   .     S
C854   O898    1.302   .     A
C854   O796    1.289   1_655 S
C855   C859    1.410   .     A
C855   C876    1.457   .     S
C855   C861    1.388   .     A
C856   C860    1.411   .     A
C856   C862    1.388   .     A
C857   C859    1.393   .     A
C857   C866    1.401   .     A
C858   C860    1.393   .     A
C858   C867    1.401   .     A
C858   H785    1.084   1_655 S
C860   Br751   1.922   1_655 S
C861   C863    1.394   .     A
C861   H883    1.075   .     S
C862   C865    1.394   .     A
C862   H882    1.076   .     S
C863   C868    1.421   .     A
C863   C866    1.417   .     A
C864   C875    1.402   .     S
C864   O894    1.290   .     A
C864   O792    1.275   1_655 S
C865   C869    1.420   .     A
C865   C867    1.417   .     A
C866   C422    1.386   1_556 S
C868   C871    1.420   .     A
C868   C419    1.419   1_556 S
C869   C870    1.419   .     A
C870   C872    1.383   .     A
C870   H886    1.075   .     S
C871   C873    1.384   .     A
C871   H887    1.075   .     S
C872   H877    1.085   .     S
C873   H881    1.085   .     S
C873   C417    1.386   1_556 S
C874   C525    1.340   1_565 S
C874   H588    1.088   1_565 S
C875   C624    1.340   1_655 S
C876   O897    1.302   .     A
H878   C575    1.088   1_565 S
H879   N889    1.029   .     S
H880   N890    1.029   .     S
H884   C757    1.084   1_655 S
N889   Zn900   2.018   .     S
N889   N890    1.293   .     D
N890   Zn899   2.018   .     S
O891   Zn899   1.949   .     S
O891   C753    1.275   1_655 S
O892   Zn900   1.949   .     S
O893   Zn900   1.978   .     S
O894   Zn899   1.978   .     S
O895   Zn899   1.963   .     S
O895   C776    1.289   1_655 S
O896   Zn900   1.963   .     S
O897   Zn900   1.908   .     S
O898   Zn899   1.908   .     S
