data_str_m2_o10_o16_pcu_sym.36
_audit_creation_date              2020-01-03
_audit_creation_method            'Materials Studio'
_symmetry_space_group_name_H-M    'P1'
_symmetry_Int_Tables_number       1
_symmetry_cell_setting            triclinic
loop_
_symmetry_equiv_pos_as_xyz
  x,y,z
_cell_length_a                    22.5888
_cell_length_b                    26.2426
_cell_length_c                    27.0337
_cell_angle_alpha                 96.1257
_cell_angle_beta                  79.3135
_cell_angle_gamma                 102.6012
loop_
_atom_site_label
_atom_site_type_symbol
_atom_site_fract_x
_atom_site_fract_y
_atom_site_fract_z
_atom_site_U_iso_or_equiv
_atom_site_adp_type
_atom_site_occupancy
C1     C     0.18073   0.26657   0.25349   0.00000  Uiso   1.00
C2     C     0.11637   0.15081   0.39984   0.00000  Uiso   1.00
C3     C     0.18422   0.32262   0.26102   0.00000  Uiso   1.00
C4     C     0.13400   0.16300   0.34654   0.00000  Uiso   1.00
C5     C     0.15187   0.01163   0.23504   0.00000  Uiso   1.00
C6     C     0.15296   0.06684   0.24595   0.00000  Uiso   1.00
C7     C     0.19910   0.16834   0.15320   0.00000  Uiso   1.00
C8     C     0.28919   0.21690   0.03117   0.00000  Uiso   1.00
C9     C     0.21768   0.17117   0.09810   0.00000  Uiso   1.00
C10    C     0.06597   0.10980   0.41287   0.00000  Uiso   1.00
C11    C     0.06968   0.07644   0.44874   0.00000  Uiso   1.00
C12    C     0.15621   0.13938   0.47510   0.00000  Uiso   1.00
C13    C     0.11735   0.08888   0.47783   0.00000  Uiso   1.00
C14    C     0.12644   0.31970   0.18913   0.00000  Uiso   1.00
C15    C     0.00783   0.22216   0.29672   0.00000  Uiso   1.00
C16    C     0.32510   0.10913   0.20551   0.00000  Uiso   1.00
C17    C     0.11048   0.12804   0.08236   0.00000  Uiso   1.00
C18    C     0.29431   0.08996   0.41626   0.00000  Uiso   1.00
C19    C     0.08116   0.01198   0.02118   0.00000  Uiso   1.00
C20    C     0.16122   0.28230   0.41614   0.00000  Uiso   1.00
C21    C     0.26452   0.01282   0.30776   0.00000  Uiso   1.00
C22    C     0.15895   0.16879   0.43351   0.00000  Uiso   1.00
C23    C     0.19366   0.16130   0.01224   0.00000  Uiso   1.00
C24    C     0.24616   0.20073   0.49875   0.00000  Uiso   1.00
C25    C     0.25155   0.22718   0.45561   0.00000  Uiso   1.00
C26    C     0.20461   0.21539   0.42668   0.00000  Uiso   1.00
C27    C     0.17598   0.15081   0.06391   0.00000  Uiso   1.00
C28    C     0.27586   0.20078   0.08000   0.00000  Uiso   1.00
Cu29   Cu    0.10710   0.16105   0.24435   0.00000  Uiso   1.00
Cu30   Cu    0.22623   0.17228   0.25564   0.00000  Uiso   1.00
H31    H     0.30867   0.21635   0.10515   0.00000  Uiso   1.00
H32    H     0.27887   0.04822   0.42489   0.00000  Uiso   1.00
H33    H     0.26018   0.09987   0.39614   0.00000  Uiso   1.00
H34    H     0.07126   0.31687   0.48900   0.00000  Uiso   1.00
H35    H     0.03939   0.02724   0.03905   0.00000  Uiso   1.00
H36    H     0.09360   0.32386   0.04966   0.00000  Uiso   1.00
H37    H     0.17751   0.30568   0.44961   0.00000  Uiso   1.00
H38    H     0.11410   0.25855   0.42672   0.00000  Uiso   1.00
H39    H     0.15795   0.31010   0.38923   0.00000  Uiso   1.00
H40    H     0.29060   0.32987   0.27313   0.00000  Uiso   1.00
H41    H     0.26410   0.32269   0.33946   0.00000  Uiso   1.00
H42    H     0.28834   0.26096   0.44770   0.00000  Uiso   1.00
H43    H     0.29067   0.05279   0.31554   0.00000  Uiso   1.00
H44    H     0.33150   0.24445   0.01983   0.00000  Uiso   1.00
H45    H     0.03661   0.03990   0.45152   0.00000  Uiso   1.00
H46    H     0.05962   0.31146   0.14691   0.00000  Uiso   1.00
H47    H     0.02430   0.24679   0.36691   0.00000  Uiso   1.00
H48    H     0.29625   0.08105   0.14017   0.00000  Uiso   1.00
H49    H     0.02390   0.12245   0.06934   0.00000  Uiso   1.00
H50    H     0.29409   0.11540   0.45197   0.00000  Uiso   1.00
N51    N     0.31574   0.18074   0.26416   0.00000  Uiso   1.00
N52    N     0.01759   0.15259   0.23584   0.00000  Uiso   1.00
O53    O     0.12797   0.23807   0.24633   0.00000  Uiso   1.00
O54    O     0.07224   0.33075   0.17906   0.00000  Uiso   1.00
O55    O     0.02430   0.26633   0.28224   0.00000  Uiso   1.00
O56    O     0.00580   0.21395   0.34723   0.00000  Uiso   1.00
O57    O     0.31969   0.06521   0.21846   0.00000  Uiso   1.00
O58    O     0.31481   0.11539   0.15768   0.00000  Uiso   1.00
O59    O     0.09659   0.09073   0.10868   0.00000  Uiso   1.00
O60    O     0.06499   0.14767   0.06618   0.00000  Uiso   1.00
O61    O     0.01897   0.09760   0.38441   0.00000  Uiso   1.00
O62    O     0.13152   0.05270   0.00592   0.00000  Uiso   1.00
O63    O     0.20309   0.25075   0.39285   0.00000  Uiso   1.00
O64    O     0.22858   0.24755   0.25586   0.00000  Uiso   1.00
O65    O     0.20390   0.01630   0.30433   0.00000  Uiso   1.00
O66    O     0.09181   0.15960   0.31839   0.00000  Uiso   1.00
O67    O     0.19242   0.16908   0.32793   0.00000  Uiso   1.00
O68    O     0.10476   0.08578   0.24414   0.00000  Uiso   1.00
O69    O     0.20536   0.09526   0.25367   0.00000  Uiso   1.00
O70    O     0.14092   0.16425   0.17207   0.00000  Uiso   1.00
O71    O     0.24152   0.17373   0.18160   0.00000  Uiso   1.00
O72    O     0.15376   0.29061   0.15948   0.00000  Uiso   1.00
C73    C     0.51406   0.26657   0.25349   0.00000  Uiso   1.00
C74    C     0.44971   0.15081   0.39984   0.00000  Uiso   1.00
C75    C     0.51755   0.32262   0.26102   0.00000  Uiso   1.00
C76    C     0.46733   0.16300   0.34654   0.00000  Uiso   1.00
C77    C     0.48520   0.01163   0.23504   0.00000  Uiso   1.00
C78    C     0.48629   0.06684   0.24595   0.00000  Uiso   1.00
C79    C     0.53243   0.16834   0.15320   0.00000  Uiso   1.00
C80    C     0.62252   0.21690   0.03117   0.00000  Uiso   1.00
C81    C     0.55101   0.17117   0.09810   0.00000  Uiso   1.00
C82    C     0.39930   0.10980   0.41287   0.00000  Uiso   1.00
C83    C     0.40301   0.07644   0.44874   0.00000  Uiso   1.00
C84    C     0.48954   0.13938   0.47510   0.00000  Uiso   1.00
C85    C     0.45068   0.08888   0.47783   0.00000  Uiso   1.00
C86    C     0.45977   0.31970   0.18913   0.00000  Uiso   1.00
C87    C     0.34116   0.22216   0.29672   0.00000  Uiso   1.00
C88    C     0.65843   0.10913   0.20551   0.00000  Uiso   1.00
C89    C     0.44382   0.12804   0.08236   0.00000  Uiso   1.00
C90    C     0.62764   0.08996   0.41626   0.00000  Uiso   1.00
C91    C     0.41449   0.01198   0.02118   0.00000  Uiso   1.00
C92    C     0.49455   0.28230   0.41614   0.00000  Uiso   1.00
C93    C     0.59786   0.01282   0.30776   0.00000  Uiso   1.00
C94    C     0.49229   0.16879   0.43351   0.00000  Uiso   1.00
C95    C     0.52699   0.16130   0.01224   0.00000  Uiso   1.00
C96    C     0.57950   0.20073   0.49875   0.00000  Uiso   1.00
C97    C     0.58489   0.22718   0.45561   0.00000  Uiso   1.00
C98    C     0.53794   0.21539   0.42668   0.00000  Uiso   1.00
C99    C     0.50931   0.15081   0.06391   0.00000  Uiso   1.00
C100   C     0.60919   0.20078   0.08000   0.00000  Uiso   1.00
Cu101  Cu    0.44043   0.16105   0.24435   0.00000  Uiso   1.00
Cu102  Cu    0.55957   0.17228   0.25564   0.00000  Uiso   1.00
H103   H     0.64201   0.21635   0.10515   0.00000  Uiso   1.00
H104   H     0.61220   0.04822   0.42489   0.00000  Uiso   1.00
H105   H     0.59351   0.09987   0.39614   0.00000  Uiso   1.00
H106   H     0.40460   0.31687   0.48900   0.00000  Uiso   1.00
H107   H     0.37272   0.02724   0.03905   0.00000  Uiso   1.00
H108   H     0.42693   0.32386   0.04966   0.00000  Uiso   1.00
H109   H     0.51084   0.30568   0.44961   0.00000  Uiso   1.00
H110   H     0.44743   0.25855   0.42672   0.00000  Uiso   1.00
H111   H     0.49128   0.31010   0.38923   0.00000  Uiso   1.00
H112   H     0.62393   0.32987   0.27313   0.00000  Uiso   1.00
H113   H     0.59743   0.32269   0.33946   0.00000  Uiso   1.00
H114   H     0.62168   0.26096   0.44770   0.00000  Uiso   1.00
H115   H     0.62401   0.05279   0.31554   0.00000  Uiso   1.00
H116   H     0.66483   0.24445   0.01983   0.00000  Uiso   1.00
H117   H     0.36994   0.03990   0.45152   0.00000  Uiso   1.00
H118   H     0.39295   0.31146   0.14691   0.00000  Uiso   1.00
H119   H     0.35764   0.24679   0.36691   0.00000  Uiso   1.00
H120   H     0.62958   0.08105   0.14017   0.00000  Uiso   1.00
H121   H     0.35723   0.12245   0.06934   0.00000  Uiso   1.00
H122   H     0.62742   0.11540   0.45197   0.00000  Uiso   1.00
N123   N     0.64908   0.18074   0.26416   0.00000  Uiso   1.00
N124   N     0.35092   0.15259   0.23584   0.00000  Uiso   1.00
O125   O     0.46131   0.23807   0.24633   0.00000  Uiso   1.00
O126   O     0.40558   0.33075   0.17906   0.00000  Uiso   1.00
O127   O     0.35763   0.26633   0.28224   0.00000  Uiso   1.00
O128   O     0.33913   0.21395   0.34723   0.00000  Uiso   1.00
O129   O     0.65303   0.06521   0.21846   0.00000  Uiso   1.00
O130   O     0.64814   0.11539   0.15768   0.00000  Uiso   1.00
O131   O     0.42993   0.09073   0.10868   0.00000  Uiso   1.00
O132   O     0.39833   0.14767   0.06618   0.00000  Uiso   1.00
O133   O     0.35231   0.09760   0.38441   0.00000  Uiso   1.00
O134   O     0.46485   0.05270   0.00592   0.00000  Uiso   1.00
O135   O     0.53643   0.25075   0.39285   0.00000  Uiso   1.00
O136   O     0.56191   0.24755   0.25586   0.00000  Uiso   1.00
O137   O     0.53724   0.01630   0.30433   0.00000  Uiso   1.00
O138   O     0.42515   0.15960   0.31839   0.00000  Uiso   1.00
O139   O     0.52575   0.16908   0.32793   0.00000  Uiso   1.00
O140   O     0.43809   0.08578   0.24414   0.00000  Uiso   1.00
O141   O     0.53869   0.09526   0.25367   0.00000  Uiso   1.00
O142   O     0.47425   0.16425   0.17207   0.00000  Uiso   1.00
O143   O     0.57485   0.17373   0.18160   0.00000  Uiso   1.00
O144   O     0.48709   0.29061   0.15948   0.00000  Uiso   1.00
C145   C     0.84739   0.26657   0.25349   0.00000  Uiso   1.00
C146   C     0.78304   0.15081   0.39984   0.00000  Uiso   1.00
C147   C     0.85088   0.32262   0.26102   0.00000  Uiso   1.00
C148   C     0.80067   0.16300   0.34654   0.00000  Uiso   1.00
C149   C     0.81854   0.01163   0.23504   0.00000  Uiso   1.00
C150   C     0.81962   0.06684   0.24595   0.00000  Uiso   1.00
C151   C     0.86577   0.16834   0.15320   0.00000  Uiso   1.00
C152   C     0.95586   0.21690   0.03117   0.00000  Uiso   1.00
C153   C     0.88434   0.17117   0.09810   0.00000  Uiso   1.00
C154   C     0.73263   0.10980   0.41287   0.00000  Uiso   1.00
C155   C     0.73635   0.07644   0.44874   0.00000  Uiso   1.00
C156   C     0.82287   0.13938   0.47510   0.00000  Uiso   1.00
C157   C     0.78401   0.08888   0.47783   0.00000  Uiso   1.00
C158   C     0.79311   0.31970   0.18913   0.00000  Uiso   1.00
C159   C     0.67449   0.22216   0.29672   0.00000  Uiso   1.00
C160   C     0.99177   0.10913   0.20551   0.00000  Uiso   1.00
C161   C     0.77715   0.12804   0.08236   0.00000  Uiso   1.00
C162   C     0.96097   0.08996   0.41626   0.00000  Uiso   1.00
C163   C     0.74783   0.01198   0.02118   0.00000  Uiso   1.00
C164   C     0.82788   0.28230   0.41614   0.00000  Uiso   1.00
C165   C     0.93119   0.01282   0.30776   0.00000  Uiso   1.00
C166   C     0.82562   0.16879   0.43351   0.00000  Uiso   1.00
C167   C     0.86033   0.16130   0.01224   0.00000  Uiso   1.00
C168   C     0.91283   0.20073   0.49875   0.00000  Uiso   1.00
C169   C     0.91822   0.22718   0.45561   0.00000  Uiso   1.00
C170   C     0.87128   0.21539   0.42668   0.00000  Uiso   1.00
C171   C     0.84265   0.15081   0.06391   0.00000  Uiso   1.00
C172   C     0.94253   0.20078   0.08000   0.00000  Uiso   1.00
Cu173  Cu    0.77377   0.16105   0.24435   0.00000  Uiso   1.00
Cu174  Cu    0.89290   0.17228   0.25564   0.00000  Uiso   1.00
H175   H     0.97534   0.21635   0.10515   0.00000  Uiso   1.00
H176   H     0.94553   0.04822   0.42489   0.00000  Uiso   1.00
H177   H     0.92684   0.09987   0.39614   0.00000  Uiso   1.00
H178   H     0.73793   0.31687   0.48900   0.00000  Uiso   1.00
H179   H     0.70606   0.02724   0.03905   0.00000  Uiso   1.00
H180   H     0.76027   0.32386   0.04966   0.00000  Uiso   1.00
H181   H     0.84417   0.30568   0.44961   0.00000  Uiso   1.00
H182   H     0.78077   0.25855   0.42672   0.00000  Uiso   1.00
H183   H     0.82461   0.31010   0.38923   0.00000  Uiso   1.00
H184   H     0.95727   0.32987   0.27313   0.00000  Uiso   1.00
H185   H     0.93076   0.32269   0.33946   0.00000  Uiso   1.00
H186   H     0.95501   0.26096   0.44770   0.00000  Uiso   1.00
H187   H     0.95734   0.05279   0.31554   0.00000  Uiso   1.00
H188   H     0.99816   0.24445   0.01983   0.00000  Uiso   1.00
H189   H     0.70327   0.03990   0.45152   0.00000  Uiso   1.00
H190   H     0.72629   0.31146   0.14691   0.00000  Uiso   1.00
H191   H     0.69097   0.24679   0.36691   0.00000  Uiso   1.00
H192   H     0.96291   0.08105   0.14017   0.00000  Uiso   1.00
H193   H     0.69056   0.12245   0.06934   0.00000  Uiso   1.00
H194   H     0.96076   0.11540   0.45197   0.00000  Uiso   1.00
N195   N     0.98241   0.18074   0.26416   0.00000  Uiso   1.00
N196   N     0.68426   0.15259   0.23584   0.00000  Uiso   1.00
O197   O     0.79464   0.23807   0.24633   0.00000  Uiso   1.00
O198   O     0.73891   0.33075   0.17906   0.00000  Uiso   1.00
O199   O     0.69097   0.26633   0.28224   0.00000  Uiso   1.00
O200   O     0.67246   0.21395   0.34723   0.00000  Uiso   1.00
O201   O     0.98636   0.06521   0.21846   0.00000  Uiso   1.00
O202   O     0.98148   0.11539   0.15768   0.00000  Uiso   1.00
O203   O     0.76326   0.09073   0.10868   0.00000  Uiso   1.00
O204   O     0.73166   0.14767   0.06618   0.00000  Uiso   1.00
O205   O     0.68564   0.09760   0.38441   0.00000  Uiso   1.00
O206   O     0.79819   0.05270   0.00592   0.00000  Uiso   1.00
O207   O     0.86976   0.25075   0.39285   0.00000  Uiso   1.00
O208   O     0.89524   0.24755   0.25586   0.00000  Uiso   1.00
O209   O     0.87057   0.01630   0.30433   0.00000  Uiso   1.00
O210   O     0.75848   0.15960   0.31839   0.00000  Uiso   1.00
O211   O     0.85908   0.16908   0.32793   0.00000  Uiso   1.00
O212   O     0.77142   0.08578   0.24414   0.00000  Uiso   1.00
O213   O     0.87203   0.09526   0.25367   0.00000  Uiso   1.00
O214   O     0.80758   0.16425   0.17207   0.00000  Uiso   1.00
O215   O     0.90819   0.17373   0.18160   0.00000  Uiso   1.00
O216   O     0.82042   0.29061   0.15948   0.00000  Uiso   1.00
C217   C     0.18073   0.59991   0.25349   0.00000  Uiso   1.00
C218   C     0.11637   0.48415   0.39984   0.00000  Uiso   1.00
C219   C     0.18422   0.65595   0.26102   0.00000  Uiso   1.00
C220   C     0.13400   0.49634   0.34654   0.00000  Uiso   1.00
C221   C     0.15187   0.34496   0.23504   0.00000  Uiso   1.00
C222   C     0.15296   0.40017   0.24595   0.00000  Uiso   1.00
C223   C     0.19910   0.50167   0.15320   0.00000  Uiso   1.00
C224   C     0.28919   0.55023   0.03117   0.00000  Uiso   1.00
C225   C     0.21768   0.50451   0.09810   0.00000  Uiso   1.00
C226   C     0.06597   0.44314   0.41287   0.00000  Uiso   1.00
C227   C     0.06968   0.40977   0.44874   0.00000  Uiso   1.00
C228   C     0.15621   0.47272   0.47510   0.00000  Uiso   1.00
C229   C     0.11735   0.42221   0.47783   0.00000  Uiso   1.00
C230   C     0.12644   0.65303   0.18913   0.00000  Uiso   1.00
C231   C     0.00783   0.55550   0.29672   0.00000  Uiso   1.00
C232   C     0.32510   0.44247   0.20551   0.00000  Uiso   1.00
C233   C     0.11048   0.46137   0.08236   0.00000  Uiso   1.00
C234   C     0.29431   0.42329   0.41626   0.00000  Uiso   1.00
C235   C     0.08116   0.34531   0.02118   0.00000  Uiso   1.00
C236   C     0.16122   0.61563   0.41614   0.00000  Uiso   1.00
C237   C     0.26452   0.34615   0.30776   0.00000  Uiso   1.00
C238   C     0.15895   0.50212   0.43351   0.00000  Uiso   1.00
C239   C     0.19366   0.49463   0.01224   0.00000  Uiso   1.00
C240   C     0.24616   0.53406   0.49875   0.00000  Uiso   1.00
C241   C     0.25155   0.56051   0.45561   0.00000  Uiso   1.00
C242   C     0.20461   0.54873   0.42668   0.00000  Uiso   1.00
C243   C     0.17598   0.48414   0.06391   0.00000  Uiso   1.00
C244   C     0.27586   0.53412   0.08000   0.00000  Uiso   1.00
Cu245  Cu    0.10710   0.49439   0.24435   0.00000  Uiso   1.00
Cu246  Cu    0.22623   0.50561   0.25564   0.00000  Uiso   1.00
H247   H     0.30867   0.54968   0.10515   0.00000  Uiso   1.00
H248   H     0.27887   0.38156   0.42489   0.00000  Uiso   1.00
H249   H     0.26018   0.43320   0.39614   0.00000  Uiso   1.00
H250   H     0.07126   0.65020   0.48900   0.00000  Uiso   1.00
H251   H     0.03939   0.36057   0.03905   0.00000  Uiso   1.00
H252   H     0.09360   0.65719   0.04966   0.00000  Uiso   1.00
H253   H     0.17751   0.63902   0.44961   0.00000  Uiso   1.00
H254   H     0.11410   0.59188   0.42672   0.00000  Uiso   1.00
H255   H     0.15795   0.64344   0.38923   0.00000  Uiso   1.00
H256   H     0.29060   0.66320   0.27313   0.00000  Uiso   1.00
H257   H     0.26410   0.65602   0.33946   0.00000  Uiso   1.00
H258   H     0.28834   0.59430   0.44770   0.00000  Uiso   1.00
H259   H     0.29067   0.38612   0.31554   0.00000  Uiso   1.00
H260   H     0.33150   0.57779   0.01983   0.00000  Uiso   1.00
H261   H     0.03661   0.37323   0.45152   0.00000  Uiso   1.00
H262   H     0.05962   0.64480   0.14691   0.00000  Uiso   1.00
H263   H     0.02430   0.58013   0.36691   0.00000  Uiso   1.00
H264   H     0.29625   0.41438   0.14017   0.00000  Uiso   1.00
H265   H     0.02390   0.45578   0.06934   0.00000  Uiso   1.00
H266   H     0.29409   0.44874   0.45197   0.00000  Uiso   1.00
N267   N     0.31574   0.51407   0.26416   0.00000  Uiso   1.00
N268   N     0.01759   0.48593   0.23584   0.00000  Uiso   1.00
O269   O     0.12797   0.57141   0.24633   0.00000  Uiso   1.00
O270   O     0.07224   0.66408   0.17906   0.00000  Uiso   1.00
O271   O     0.02430   0.59967   0.28224   0.00000  Uiso   1.00
O272   O     0.00580   0.54729   0.34723   0.00000  Uiso   1.00
O273   O     0.31969   0.39855   0.21846   0.00000  Uiso   1.00
O274   O     0.31481   0.44872   0.15768   0.00000  Uiso   1.00
O275   O     0.09659   0.42406   0.10868   0.00000  Uiso   1.00
O276   O     0.06499   0.48100   0.06618   0.00000  Uiso   1.00
O277   O     0.01897   0.43093   0.38441   0.00000  Uiso   1.00
O278   O     0.13152   0.38603   0.00592   0.00000  Uiso   1.00
O279   O     0.20309   0.58409   0.39285   0.00000  Uiso   1.00
O280   O     0.22858   0.58089   0.25586   0.00000  Uiso   1.00
O281   O     0.20390   0.34963   0.30433   0.00000  Uiso   1.00
O282   O     0.09181   0.49293   0.31839   0.00000  Uiso   1.00
O283   O     0.19242   0.50241   0.32793   0.00000  Uiso   1.00
O284   O     0.10476   0.41911   0.24414   0.00000  Uiso   1.00
O285   O     0.20536   0.42859   0.25367   0.00000  Uiso   1.00
O286   O     0.14092   0.49759   0.17207   0.00000  Uiso   1.00
O287   O     0.24152   0.50707   0.18160   0.00000  Uiso   1.00
O288   O     0.15376   0.62394   0.15948   0.00000  Uiso   1.00
C289   C     0.51406   0.59991   0.25349   0.00000  Uiso   1.00
C290   C     0.44971   0.48415   0.39984   0.00000  Uiso   1.00
C291   C     0.51755   0.65595   0.26102   0.00000  Uiso   1.00
C292   C     0.46733   0.49634   0.34654   0.00000  Uiso   1.00
C293   C     0.48520   0.34496   0.23504   0.00000  Uiso   1.00
C294   C     0.48629   0.40017   0.24595   0.00000  Uiso   1.00
C295   C     0.53243   0.50167   0.15320   0.00000  Uiso   1.00
C296   C     0.62252   0.55023   0.03117   0.00000  Uiso   1.00
C297   C     0.55101   0.50451   0.09810   0.00000  Uiso   1.00
C298   C     0.39930   0.44314   0.41287   0.00000  Uiso   1.00
C299   C     0.40301   0.40977   0.44874   0.00000  Uiso   1.00
C300   C     0.48954   0.47272   0.47510   0.00000  Uiso   1.00
C301   C     0.45068   0.42221   0.47783   0.00000  Uiso   1.00
C302   C     0.45977   0.65303   0.18913   0.00000  Uiso   1.00
C303   C     0.34116   0.55550   0.29672   0.00000  Uiso   1.00
C304   C     0.65843   0.44247   0.20551   0.00000  Uiso   1.00
C305   C     0.44382   0.46137   0.08236   0.00000  Uiso   1.00
C306   C     0.62764   0.42329   0.41626   0.00000  Uiso   1.00
C307   C     0.41449   0.34531   0.02118   0.00000  Uiso   1.00
C308   C     0.49455   0.61563   0.41614   0.00000  Uiso   1.00
C309   C     0.59786   0.34615   0.30776   0.00000  Uiso   1.00
C310   C     0.49229   0.50212   0.43351   0.00000  Uiso   1.00
C311   C     0.52699   0.49463   0.01224   0.00000  Uiso   1.00
C312   C     0.57950   0.53406   0.49875   0.00000  Uiso   1.00
C313   C     0.58489   0.56051   0.45561   0.00000  Uiso   1.00
C314   C     0.53794   0.54873   0.42668   0.00000  Uiso   1.00
C315   C     0.50931   0.48414   0.06391   0.00000  Uiso   1.00
C316   C     0.60919   0.53412   0.08000   0.00000  Uiso   1.00
Cu317  Cu    0.44043   0.49439   0.24435   0.00000  Uiso   1.00
Cu318  Cu    0.55957   0.50561   0.25564   0.00000  Uiso   1.00
H319   H     0.64201   0.54968   0.10515   0.00000  Uiso   1.00
H320   H     0.61220   0.38156   0.42489   0.00000  Uiso   1.00
H321   H     0.59351   0.43320   0.39614   0.00000  Uiso   1.00
H322   H     0.40460   0.65020   0.48900   0.00000  Uiso   1.00
H323   H     0.37272   0.36057   0.03905   0.00000  Uiso   1.00
H324   H     0.42693   0.65719   0.04966   0.00000  Uiso   1.00
H325   H     0.51084   0.63902   0.44961   0.00000  Uiso   1.00
H326   H     0.44743   0.59188   0.42672   0.00000  Uiso   1.00
H327   H     0.49128   0.64344   0.38923   0.00000  Uiso   1.00
H328   H     0.62393   0.66320   0.27313   0.00000  Uiso   1.00
H329   H     0.59743   0.65602   0.33946   0.00000  Uiso   1.00
H330   H     0.62168   0.59430   0.44770   0.00000  Uiso   1.00
H331   H     0.62401   0.38612   0.31554   0.00000  Uiso   1.00
H332   H     0.66483   0.57779   0.01983   0.00000  Uiso   1.00
H333   H     0.36994   0.37323   0.45152   0.00000  Uiso   1.00
H334   H     0.39295   0.64480   0.14691   0.00000  Uiso   1.00
H335   H     0.35764   0.58013   0.36691   0.00000  Uiso   1.00
H336   H     0.62958   0.41438   0.14017   0.00000  Uiso   1.00
H337   H     0.35723   0.45578   0.06934   0.00000  Uiso   1.00
H338   H     0.62742   0.44874   0.45197   0.00000  Uiso   1.00
N339   N     0.64908   0.51407   0.26416   0.00000  Uiso   1.00
N340   N     0.35092   0.48593   0.23584   0.00000  Uiso   1.00
O341   O     0.46131   0.57141   0.24633   0.00000  Uiso   1.00
O342   O     0.40558   0.66408   0.17906   0.00000  Uiso   1.00
O343   O     0.35763   0.59967   0.28224   0.00000  Uiso   1.00
O344   O     0.33913   0.54729   0.34723   0.00000  Uiso   1.00
O345   O     0.65303   0.39855   0.21846   0.00000  Uiso   1.00
O346   O     0.64814   0.44872   0.15768   0.00000  Uiso   1.00
O347   O     0.42993   0.42406   0.10868   0.00000  Uiso   1.00
O348   O     0.39833   0.48100   0.06618   0.00000  Uiso   1.00
O349   O     0.35231   0.43093   0.38441   0.00000  Uiso   1.00
O350   O     0.46485   0.38603   0.00592   0.00000  Uiso   1.00
O351   O     0.53643   0.58409   0.39285   0.00000  Uiso   1.00
O352   O     0.56191   0.58089   0.25586   0.00000  Uiso   1.00
O353   O     0.53724   0.34963   0.30433   0.00000  Uiso   1.00
O354   O     0.42515   0.49293   0.31839   0.00000  Uiso   1.00
O355   O     0.52575   0.50241   0.32793   0.00000  Uiso   1.00
O356   O     0.43809   0.41911   0.24414   0.00000  Uiso   1.00
O357   O     0.53869   0.42859   0.25367   0.00000  Uiso   1.00
O358   O     0.47425   0.49759   0.17207   0.00000  Uiso   1.00
O359   O     0.57485   0.50707   0.18160   0.00000  Uiso   1.00
O360   O     0.48709   0.62394   0.15948   0.00000  Uiso   1.00
C361   C     0.84739   0.59991   0.25349   0.00000  Uiso   1.00
C362   C     0.78304   0.48415   0.39984   0.00000  Uiso   1.00
C363   C     0.85088   0.65595   0.26102   0.00000  Uiso   1.00
C364   C     0.80067   0.49634   0.34654   0.00000  Uiso   1.00
C365   C     0.81854   0.34496   0.23504   0.00000  Uiso   1.00
C366   C     0.81962   0.40017   0.24595   0.00000  Uiso   1.00
C367   C     0.86577   0.50167   0.15320   0.00000  Uiso   1.00
C368   C     0.95586   0.55023   0.03117   0.00000  Uiso   1.00
C369   C     0.88434   0.50451   0.09810   0.00000  Uiso   1.00
C370   C     0.73263   0.44314   0.41287   0.00000  Uiso   1.00
C371   C     0.73635   0.40977   0.44874   0.00000  Uiso   1.00
C372   C     0.82287   0.47272   0.47510   0.00000  Uiso   1.00
C373   C     0.78401   0.42221   0.47783   0.00000  Uiso   1.00
C374   C     0.79311   0.65303   0.18913   0.00000  Uiso   1.00
C375   C     0.67449   0.55550   0.29672   0.00000  Uiso   1.00
C376   C     0.99177   0.44247   0.20551   0.00000  Uiso   1.00
C377   C     0.77715   0.46137   0.08236   0.00000  Uiso   1.00
C378   C     0.96097   0.42329   0.41626   0.00000  Uiso   1.00
C379   C     0.74783   0.34531   0.02118   0.00000  Uiso   1.00
C380   C     0.82788   0.61563   0.41614   0.00000  Uiso   1.00
C381   C     0.93119   0.34615   0.30776   0.00000  Uiso   1.00
C382   C     0.82562   0.50212   0.43351   0.00000  Uiso   1.00
C383   C     0.86033   0.49463   0.01224   0.00000  Uiso   1.00
C384   C     0.91283   0.53406   0.49875   0.00000  Uiso   1.00
C385   C     0.91822   0.56051   0.45561   0.00000  Uiso   1.00
C386   C     0.87128   0.54873   0.42668   0.00000  Uiso   1.00
C387   C     0.84265   0.48414   0.06391   0.00000  Uiso   1.00
C388   C     0.94253   0.53412   0.08000   0.00000  Uiso   1.00
Cu389  Cu    0.77377   0.49439   0.24435   0.00000  Uiso   1.00
Cu390  Cu    0.89290   0.50561   0.25564   0.00000  Uiso   1.00
H391   H     0.97534   0.54968   0.10515   0.00000  Uiso   1.00
H392   H     0.94553   0.38156   0.42489   0.00000  Uiso   1.00
H393   H     0.92684   0.43320   0.39614   0.00000  Uiso   1.00
H394   H     0.73793   0.65020   0.48900   0.00000  Uiso   1.00
H395   H     0.70606   0.36057   0.03905   0.00000  Uiso   1.00
H396   H     0.76027   0.65719   0.04966   0.00000  Uiso   1.00
H397   H     0.84417   0.63902   0.44961   0.00000  Uiso   1.00
H398   H     0.78077   0.59188   0.42672   0.00000  Uiso   1.00
H399   H     0.82461   0.64344   0.38923   0.00000  Uiso   1.00
H400   H     0.95727   0.66320   0.27313   0.00000  Uiso   1.00
H401   H     0.93076   0.65602   0.33946   0.00000  Uiso   1.00
H402   H     0.95501   0.59430   0.44770   0.00000  Uiso   1.00
H403   H     0.95734   0.38612   0.31554   0.00000  Uiso   1.00
H404   H     0.99816   0.57779   0.01983   0.00000  Uiso   1.00
H405   H     0.70327   0.37323   0.45152   0.00000  Uiso   1.00
H406   H     0.72629   0.64480   0.14691   0.00000  Uiso   1.00
H407   H     0.69097   0.58013   0.36691   0.00000  Uiso   1.00
H408   H     0.96291   0.41438   0.14017   0.00000  Uiso   1.00
H409   H     0.69056   0.45578   0.06934   0.00000  Uiso   1.00
H410   H     0.96076   0.44874   0.45197   0.00000  Uiso   1.00
N411   N     0.98241   0.51407   0.26416   0.00000  Uiso   1.00
N412   N     0.68426   0.48593   0.23584   0.00000  Uiso   1.00
O413   O     0.79464   0.57141   0.24633   0.00000  Uiso   1.00
O414   O     0.73891   0.66408   0.17906   0.00000  Uiso   1.00
O415   O     0.69097   0.59967   0.28224   0.00000  Uiso   1.00
O416   O     0.67246   0.54729   0.34723   0.00000  Uiso   1.00
O417   O     0.98636   0.39855   0.21846   0.00000  Uiso   1.00
O418   O     0.98148   0.44872   0.15768   0.00000  Uiso   1.00
O419   O     0.76326   0.42406   0.10868   0.00000  Uiso   1.00
O420   O     0.73166   0.48100   0.06618   0.00000  Uiso   1.00
O421   O     0.68564   0.43093   0.38441   0.00000  Uiso   1.00
O422   O     0.79819   0.38603   0.00592   0.00000  Uiso   1.00
O423   O     0.86976   0.58409   0.39285   0.00000  Uiso   1.00
O424   O     0.89524   0.58089   0.25586   0.00000  Uiso   1.00
O425   O     0.87057   0.34963   0.30433   0.00000  Uiso   1.00
O426   O     0.75848   0.49293   0.31839   0.00000  Uiso   1.00
O427   O     0.85908   0.50241   0.32793   0.00000  Uiso   1.00
O428   O     0.77142   0.41911   0.24414   0.00000  Uiso   1.00
O429   O     0.87203   0.42859   0.25367   0.00000  Uiso   1.00
O430   O     0.80758   0.49759   0.17207   0.00000  Uiso   1.00
O431   O     0.90819   0.50707   0.18160   0.00000  Uiso   1.00
O432   O     0.82042   0.62394   0.15948   0.00000  Uiso   1.00
C433   C     0.18073   0.93324   0.25349   0.00000  Uiso   1.00
C434   C     0.11637   0.81748   0.39984   0.00000  Uiso   1.00
C435   C     0.18422   0.98928   0.26102   0.00000  Uiso   1.00
C436   C     0.13400   0.82967   0.34654   0.00000  Uiso   1.00
C437   C     0.15187   0.67830   0.23504   0.00000  Uiso   1.00
C438   C     0.15296   0.73350   0.24595   0.00000  Uiso   1.00
C439   C     0.19910   0.83501   0.15320   0.00000  Uiso   1.00
C440   C     0.28919   0.88357   0.03117   0.00000  Uiso   1.00
C441   C     0.21768   0.83784   0.09810   0.00000  Uiso   1.00
C442   C     0.06597   0.77647   0.41287   0.00000  Uiso   1.00
C443   C     0.06968   0.74310   0.44874   0.00000  Uiso   1.00
C444   C     0.15621   0.80605   0.47510   0.00000  Uiso   1.00
C445   C     0.11735   0.75555   0.47783   0.00000  Uiso   1.00
C446   C     0.12644   0.98636   0.18913   0.00000  Uiso   1.00
C447   C     0.00783   0.88883   0.29672   0.00000  Uiso   1.00
C448   C     0.32510   0.77580   0.20551   0.00000  Uiso   1.00
C449   C     0.11048   0.79470   0.08236   0.00000  Uiso   1.00
C450   C     0.29431   0.75663   0.41626   0.00000  Uiso   1.00
C451   C     0.08116   0.67865   0.02118   0.00000  Uiso   1.00
C452   C     0.16122   0.94896   0.41614   0.00000  Uiso   1.00
C453   C     0.26452   0.67949   0.30776   0.00000  Uiso   1.00
C454   C     0.15895   0.83545   0.43351   0.00000  Uiso   1.00
C455   C     0.19366   0.82796   0.01224   0.00000  Uiso   1.00
C456   C     0.24616   0.86739   0.49875   0.00000  Uiso   1.00
C457   C     0.25155   0.89384   0.45561   0.00000  Uiso   1.00
C458   C     0.20461   0.88206   0.42668   0.00000  Uiso   1.00
C459   C     0.17598   0.81748   0.06391   0.00000  Uiso   1.00
C460   C     0.27586   0.86745   0.08000   0.00000  Uiso   1.00
Cu461  Cu    0.10710   0.82772   0.24435   0.00000  Uiso   1.00
Cu462  Cu    0.22623   0.83895   0.25564   0.00000  Uiso   1.00
H463   H     0.30867   0.88302   0.10515   0.00000  Uiso   1.00
H464   H     0.27887   0.71489   0.42489   0.00000  Uiso   1.00
H465   H     0.26018   0.76653   0.39614   0.00000  Uiso   1.00
H466   H     0.07126   0.98354   0.48900   0.00000  Uiso   1.00
H467   H     0.03939   0.69390   0.03905   0.00000  Uiso   1.00
H468   H     0.09360   0.99053   0.04966   0.00000  Uiso   1.00
H469   H     0.17751   0.97235   0.44961   0.00000  Uiso   1.00
H470   H     0.11410   0.92521   0.42672   0.00000  Uiso   1.00
H471   H     0.15795   0.97677   0.38923   0.00000  Uiso   1.00
H472   H     0.29060   0.99654   0.27313   0.00000  Uiso   1.00
H473   H     0.26410   0.98936   0.33946   0.00000  Uiso   1.00
H474   H     0.28834   0.92763   0.44770   0.00000  Uiso   1.00
H475   H     0.29067   0.71946   0.31554   0.00000  Uiso   1.00
H476   H     0.33150   0.91112   0.01983   0.00000  Uiso   1.00
H477   H     0.03661   0.70657   0.45152   0.00000  Uiso   1.00
H478   H     0.05962   0.97813   0.14691   0.00000  Uiso   1.00
H479   H     0.02430   0.91346   0.36691   0.00000  Uiso   1.00
H480   H     0.29625   0.74772   0.14017   0.00000  Uiso   1.00
H481   H     0.02390   0.78911   0.06934   0.00000  Uiso   1.00
H482   H     0.29409   0.78207   0.45197   0.00000  Uiso   1.00
N483   N     0.31574   0.84741   0.26416   0.00000  Uiso   1.00
N484   N     0.01759   0.81926   0.23584   0.00000  Uiso   1.00
O485   O     0.12797   0.90474   0.24633   0.00000  Uiso   1.00
O486   O     0.07224   0.99741   0.17906   0.00000  Uiso   1.00
O487   O     0.02430   0.93300   0.28224   0.00000  Uiso   1.00
O488   O     0.00580   0.88062   0.34723   0.00000  Uiso   1.00
O489   O     0.31969   0.73188   0.21846   0.00000  Uiso   1.00
O490   O     0.31481   0.78206   0.15768   0.00000  Uiso   1.00
O491   O     0.09659   0.75739   0.10868   0.00000  Uiso   1.00
O492   O     0.06499   0.81434   0.06618   0.00000  Uiso   1.00
O493   O     0.01897   0.76426   0.38441   0.00000  Uiso   1.00
O494   O     0.13152   0.71936   0.00592   0.00000  Uiso   1.00
O495   O     0.20309   0.91742   0.39285   0.00000  Uiso   1.00
O496   O     0.22858   0.91422   0.25586   0.00000  Uiso   1.00
O497   O     0.20390   0.68296   0.30433   0.00000  Uiso   1.00
O498   O     0.09181   0.82627   0.31839   0.00000  Uiso   1.00
O499   O     0.19242   0.83575   0.32793   0.00000  Uiso   1.00
O500   O     0.10476   0.75245   0.24414   0.00000  Uiso   1.00
O501   O     0.20536   0.76193   0.25367   0.00000  Uiso   1.00
O502   O     0.14092   0.83092   0.17207   0.00000  Uiso   1.00
O503   O     0.24152   0.84040   0.18160   0.00000  Uiso   1.00
O504   O     0.15376   0.95728   0.15948   0.00000  Uiso   1.00
C505   C     0.51406   0.93324   0.25349   0.00000  Uiso   1.00
C506   C     0.44971   0.81748   0.39984   0.00000  Uiso   1.00
C507   C     0.51755   0.98928   0.26102   0.00000  Uiso   1.00
C508   C     0.46733   0.82967   0.34654   0.00000  Uiso   1.00
C509   C     0.48520   0.67830   0.23504   0.00000  Uiso   1.00
C510   C     0.48629   0.73350   0.24595   0.00000  Uiso   1.00
C511   C     0.53243   0.83501   0.15320   0.00000  Uiso   1.00
C512   C     0.62252   0.88357   0.03117   0.00000  Uiso   1.00
C513   C     0.55101   0.83784   0.09810   0.00000  Uiso   1.00
C514   C     0.39930   0.77647   0.41287   0.00000  Uiso   1.00
C515   C     0.40301   0.74310   0.44874   0.00000  Uiso   1.00
C516   C     0.48954   0.80605   0.47510   0.00000  Uiso   1.00
C517   C     0.45068   0.75555   0.47783   0.00000  Uiso   1.00
C518   C     0.45977   0.98636   0.18913   0.00000  Uiso   1.00
C519   C     0.34116   0.88883   0.29672   0.00000  Uiso   1.00
C520   C     0.65843   0.77580   0.20551   0.00000  Uiso   1.00
C521   C     0.44382   0.79470   0.08236   0.00000  Uiso   1.00
C522   C     0.62764   0.75663   0.41626   0.00000  Uiso   1.00
C523   C     0.41449   0.67865   0.02118   0.00000  Uiso   1.00
C524   C     0.49455   0.94896   0.41614   0.00000  Uiso   1.00
C525   C     0.59786   0.67949   0.30776   0.00000  Uiso   1.00
C526   C     0.49229   0.83545   0.43351   0.00000  Uiso   1.00
C527   C     0.52699   0.82796   0.01224   0.00000  Uiso   1.00
C528   C     0.57950   0.86739   0.49875   0.00000  Uiso   1.00
C529   C     0.58489   0.89384   0.45561   0.00000  Uiso   1.00
C530   C     0.53794   0.88206   0.42668   0.00000  Uiso   1.00
C531   C     0.50931   0.81748   0.06391   0.00000  Uiso   1.00
C532   C     0.60919   0.86745   0.08000   0.00000  Uiso   1.00
Cu533  Cu    0.44043   0.82772   0.24435   0.00000  Uiso   1.00
Cu534  Cu    0.55957   0.83895   0.25564   0.00000  Uiso   1.00
H535   H     0.64201   0.88302   0.10515   0.00000  Uiso   1.00
H536   H     0.61220   0.71489   0.42489   0.00000  Uiso   1.00
H537   H     0.59351   0.76653   0.39614   0.00000  Uiso   1.00
H538   H     0.40460   0.98354   0.48900   0.00000  Uiso   1.00
H539   H     0.37272   0.69390   0.03905   0.00000  Uiso   1.00
H540   H     0.42693   0.99053   0.04966   0.00000  Uiso   1.00
H541   H     0.51084   0.97235   0.44961   0.00000  Uiso   1.00
H542   H     0.44743   0.92521   0.42672   0.00000  Uiso   1.00
H543   H     0.49128   0.97677   0.38923   0.00000  Uiso   1.00
H544   H     0.62393   0.99654   0.27313   0.00000  Uiso   1.00
H545   H     0.59743   0.98936   0.33946   0.00000  Uiso   1.00
H546   H     0.62168   0.92763   0.44770   0.00000  Uiso   1.00
H547   H     0.62401   0.71946   0.31554   0.00000  Uiso   1.00
H548   H     0.66483   0.91112   0.01983   0.00000  Uiso   1.00
H549   H     0.36994   0.70657   0.45152   0.00000  Uiso   1.00
H550   H     0.39295   0.97813   0.14691   0.00000  Uiso   1.00
H551   H     0.35764   0.91346   0.36691   0.00000  Uiso   1.00
H552   H     0.62958   0.74772   0.14017   0.00000  Uiso   1.00
H553   H     0.35723   0.78911   0.06934   0.00000  Uiso   1.00
H554   H     0.62742   0.78207   0.45197   0.00000  Uiso   1.00
N555   N     0.64908   0.84741   0.26416   0.00000  Uiso   1.00
N556   N     0.35092   0.81926   0.23584   0.00000  Uiso   1.00
O557   O     0.46131   0.90474   0.24633   0.00000  Uiso   1.00
O558   O     0.40558   0.99741   0.17906   0.00000  Uiso   1.00
O559   O     0.35763   0.93300   0.28224   0.00000  Uiso   1.00
O560   O     0.33913   0.88062   0.34723   0.00000  Uiso   1.00
O561   O     0.65303   0.73188   0.21846   0.00000  Uiso   1.00
O562   O     0.64814   0.78206   0.15768   0.00000  Uiso   1.00
O563   O     0.42993   0.75739   0.10868   0.00000  Uiso   1.00
O564   O     0.39833   0.81434   0.06618   0.00000  Uiso   1.00
O565   O     0.35231   0.76426   0.38441   0.00000  Uiso   1.00
O566   O     0.46485   0.71936   0.00592   0.00000  Uiso   1.00
O567   O     0.53643   0.91742   0.39285   0.00000  Uiso   1.00
O568   O     0.56191   0.91422   0.25586   0.00000  Uiso   1.00
O569   O     0.53724   0.68296   0.30433   0.00000  Uiso   1.00
O570   O     0.42515   0.82627   0.31839   0.00000  Uiso   1.00
O571   O     0.52575   0.83575   0.32793   0.00000  Uiso   1.00
O572   O     0.43809   0.75245   0.24414   0.00000  Uiso   1.00
O573   O     0.53869   0.76193   0.25367   0.00000  Uiso   1.00
O574   O     0.47425   0.83092   0.17207   0.00000  Uiso   1.00
O575   O     0.57485   0.84040   0.18160   0.00000  Uiso   1.00
O576   O     0.48709   0.95728   0.15948   0.00000  Uiso   1.00
C577   C     0.84739   0.93324   0.25349   0.00000  Uiso   1.00
C578   C     0.78304   0.81748   0.39984   0.00000  Uiso   1.00
C579   C     0.85088   0.98928   0.26102   0.00000  Uiso   1.00
C580   C     0.80067   0.82967   0.34654   0.00000  Uiso   1.00
C581   C     0.81854   0.67830   0.23504   0.00000  Uiso   1.00
C582   C     0.81962   0.73350   0.24595   0.00000  Uiso   1.00
C583   C     0.86577   0.83501   0.15320   0.00000  Uiso   1.00
C584   C     0.95586   0.88357   0.03117   0.00000  Uiso   1.00
C585   C     0.88434   0.83784   0.09810   0.00000  Uiso   1.00
C586   C     0.73263   0.77647   0.41287   0.00000  Uiso   1.00
C587   C     0.73635   0.74310   0.44874   0.00000  Uiso   1.00
C588   C     0.82287   0.80605   0.47510   0.00000  Uiso   1.00
C589   C     0.78401   0.75555   0.47783   0.00000  Uiso   1.00
C590   C     0.79311   0.98636   0.18913   0.00000  Uiso   1.00
C591   C     0.67449   0.88883   0.29672   0.00000  Uiso   1.00
C592   C     0.99177   0.77580   0.20551   0.00000  Uiso   1.00
C593   C     0.77715   0.79470   0.08236   0.00000  Uiso   1.00
C594   C     0.96097   0.75663   0.41626   0.00000  Uiso   1.00
C595   C     0.74783   0.67865   0.02118   0.00000  Uiso   1.00
C596   C     0.82788   0.94896   0.41614   0.00000  Uiso   1.00
C597   C     0.93119   0.67949   0.30776   0.00000  Uiso   1.00
C598   C     0.82562   0.83545   0.43351   0.00000  Uiso   1.00
C599   C     0.86033   0.82796   0.01224   0.00000  Uiso   1.00
C600   C     0.91283   0.86739   0.49875   0.00000  Uiso   1.00
C601   C     0.91822   0.89384   0.45561   0.00000  Uiso   1.00
C602   C     0.87128   0.88206   0.42668   0.00000  Uiso   1.00
C603   C     0.84265   0.81748   0.06391   0.00000  Uiso   1.00
C604   C     0.94253   0.86745   0.08000   0.00000  Uiso   1.00
Cu605  Cu    0.77377   0.82772   0.24435   0.00000  Uiso   1.00
Cu606  Cu    0.89290   0.83895   0.25564   0.00000  Uiso   1.00
H607   H     0.97534   0.88302   0.10515   0.00000  Uiso   1.00
H608   H     0.94553   0.71489   0.42489   0.00000  Uiso   1.00
H609   H     0.92684   0.76653   0.39614   0.00000  Uiso   1.00
H610   H     0.73793   0.98354   0.48900   0.00000  Uiso   1.00
H611   H     0.70606   0.69390   0.03905   0.00000  Uiso   1.00
H612   H     0.76027   0.99053   0.04966   0.00000  Uiso   1.00
H613   H     0.84417   0.97235   0.44961   0.00000  Uiso   1.00
H614   H     0.78077   0.92521   0.42672   0.00000  Uiso   1.00
H615   H     0.82461   0.97677   0.38923   0.00000  Uiso   1.00
H616   H     0.95727   0.99654   0.27313   0.00000  Uiso   1.00
H617   H     0.93076   0.98936   0.33946   0.00000  Uiso   1.00
H618   H     0.95501   0.92763   0.44770   0.00000  Uiso   1.00
H619   H     0.95734   0.71946   0.31554   0.00000  Uiso   1.00
H620   H     0.99816   0.91112   0.01983   0.00000  Uiso   1.00
H621   H     0.70327   0.70657   0.45152   0.00000  Uiso   1.00
H622   H     0.72629   0.97813   0.14691   0.00000  Uiso   1.00
H623   H     0.69097   0.91346   0.36691   0.00000  Uiso   1.00
H624   H     0.96291   0.74772   0.14017   0.00000  Uiso   1.00
H625   H     0.69056   0.78911   0.06934   0.00000  Uiso   1.00
H626   H     0.96076   0.78207   0.45197   0.00000  Uiso   1.00
N627   N     0.98241   0.84741   0.26416   0.00000  Uiso   1.00
N628   N     0.68426   0.81926   0.23584   0.00000  Uiso   1.00
O629   O     0.79464   0.90474   0.24633   0.00000  Uiso   1.00
O630   O     0.73891   0.99741   0.17906   0.00000  Uiso   1.00
O631   O     0.69097   0.93300   0.28224   0.00000  Uiso   1.00
O632   O     0.67246   0.88062   0.34723   0.00000  Uiso   1.00
O633   O     0.98636   0.73188   0.21846   0.00000  Uiso   1.00
O634   O     0.98148   0.78206   0.15768   0.00000  Uiso   1.00
O635   O     0.76326   0.75739   0.10868   0.00000  Uiso   1.00
O636   O     0.73166   0.81434   0.06618   0.00000  Uiso   1.00
O637   O     0.68564   0.76426   0.38441   0.00000  Uiso   1.00
O638   O     0.79819   0.71936   0.00592   0.00000  Uiso   1.00
O639   O     0.86976   0.91742   0.39285   0.00000  Uiso   1.00
O640   O     0.89524   0.91422   0.25586   0.00000  Uiso   1.00
O641   O     0.87057   0.68296   0.30433   0.00000  Uiso   1.00
O642   O     0.75848   0.82627   0.31839   0.00000  Uiso   1.00
O643   O     0.85908   0.83575   0.32793   0.00000  Uiso   1.00
O644   O     0.77142   0.75245   0.24414   0.00000  Uiso   1.00
O645   O     0.87203   0.76193   0.25367   0.00000  Uiso   1.00
O646   O     0.80758   0.83092   0.17207   0.00000  Uiso   1.00
O647   O     0.90819   0.84040   0.18160   0.00000  Uiso   1.00
O648   O     0.82042   0.95728   0.15948   0.00000  Uiso   1.00
C649   C     0.18073   0.26657   0.75349   0.00000  Uiso   1.00
C650   C     0.11637   0.15081   0.89984   0.00000  Uiso   1.00
C651   C     0.18422   0.32262   0.76102   0.00000  Uiso   1.00
C652   C     0.13400   0.16300   0.84654   0.00000  Uiso   1.00
C653   C     0.15187   0.01163   0.73504   0.00000  Uiso   1.00
C654   C     0.15296   0.06684   0.74595   0.00000  Uiso   1.00
C655   C     0.19910   0.16834   0.65320   0.00000  Uiso   1.00
C656   C     0.28919   0.21690   0.53117   0.00000  Uiso   1.00
C657   C     0.21768   0.17117   0.59810   0.00000  Uiso   1.00
C658   C     0.06597   0.10980   0.91287   0.00000  Uiso   1.00
C659   C     0.06968   0.07644   0.94874   0.00000  Uiso   1.00
C660   C     0.15621   0.13938   0.97510   0.00000  Uiso   1.00
C661   C     0.11735   0.08888   0.97783   0.00000  Uiso   1.00
C662   C     0.12644   0.31970   0.68913   0.00000  Uiso   1.00
C663   C     0.00783   0.22216   0.79672   0.00000  Uiso   1.00
C664   C     0.32510   0.10913   0.70551   0.00000  Uiso   1.00
C665   C     0.11048   0.12804   0.58236   0.00000  Uiso   1.00
C666   C     0.29431   0.08996   0.91626   0.00000  Uiso   1.00
C667   C     0.08116   0.01198   0.52118   0.00000  Uiso   1.00
C668   C     0.16122   0.28230   0.91614   0.00000  Uiso   1.00
C669   C     0.26452   0.01282   0.80776   0.00000  Uiso   1.00
C670   C     0.15895   0.16879   0.93351   0.00000  Uiso   1.00
C671   C     0.19366   0.16130   0.51224   0.00000  Uiso   1.00
C672   C     0.24616   0.20073   0.99875   0.00000  Uiso   1.00
C673   C     0.25155   0.22718   0.95561   0.00000  Uiso   1.00
C674   C     0.20461   0.21539   0.92668   0.00000  Uiso   1.00
C675   C     0.17598   0.15081   0.56391   0.00000  Uiso   1.00
C676   C     0.27586   0.20078   0.58000   0.00000  Uiso   1.00
Cu677  Cu    0.10710   0.16105   0.74435   0.00000  Uiso   1.00
Cu678  Cu    0.22623   0.17228   0.75564   0.00000  Uiso   1.00
H679   H     0.30867   0.21635   0.60515   0.00000  Uiso   1.00
H680   H     0.27887   0.04822   0.92489   0.00000  Uiso   1.00
H681   H     0.26018   0.09987   0.89614   0.00000  Uiso   1.00
H682   H     0.07126   0.31687   0.98900   0.00000  Uiso   1.00
H683   H     0.03939   0.02724   0.53905   0.00000  Uiso   1.00
H684   H     0.09360   0.32386   0.54966   0.00000  Uiso   1.00
H685   H     0.17751   0.30568   0.94961   0.00000  Uiso   1.00
H686   H     0.11410   0.25855   0.92672   0.00000  Uiso   1.00
H687   H     0.15795   0.31010   0.88923   0.00000  Uiso   1.00
H688   H     0.29060   0.32987   0.77313   0.00000  Uiso   1.00
H689   H     0.26410   0.32269   0.83946   0.00000  Uiso   1.00
H690   H     0.28834   0.26096   0.94770   0.00000  Uiso   1.00
H691   H     0.29067   0.05279   0.81554   0.00000  Uiso   1.00
H692   H     0.33150   0.24445   0.51983   0.00000  Uiso   1.00
H693   H     0.03661   0.03990   0.95152   0.00000  Uiso   1.00
H694   H     0.05962   0.31146   0.64691   0.00000  Uiso   1.00
H695   H     0.02430   0.24679   0.86691   0.00000  Uiso   1.00
H696   H     0.29625   0.08105   0.64017   0.00000  Uiso   1.00
H697   H     0.02390   0.12245   0.56934   0.00000  Uiso   1.00
H698   H     0.29409   0.11540   0.95197   0.00000  Uiso   1.00
N699   N     0.31574   0.18074   0.76416   0.00000  Uiso   1.00
N700   N     0.01759   0.15259   0.73584   0.00000  Uiso   1.00
O701   O     0.12797   0.23807   0.74633   0.00000  Uiso   1.00
O702   O     0.07224   0.33075   0.67906   0.00000  Uiso   1.00
O703   O     0.02430   0.26633   0.78224   0.00000  Uiso   1.00
O704   O     0.00580   0.21395   0.84723   0.00000  Uiso   1.00
O705   O     0.31969   0.06521   0.71846   0.00000  Uiso   1.00
O706   O     0.31481   0.11539   0.65768   0.00000  Uiso   1.00
O707   O     0.09659   0.09073   0.60868   0.00000  Uiso   1.00
O708   O     0.06499   0.14767   0.56618   0.00000  Uiso   1.00
O709   O     0.01897   0.09760   0.88441   0.00000  Uiso   1.00
O710   O     0.13152   0.05270   0.50592   0.00000  Uiso   1.00
O711   O     0.20309   0.25075   0.89285   0.00000  Uiso   1.00
O712   O     0.22858   0.24755   0.75586   0.00000  Uiso   1.00
O713   O     0.20390   0.01630   0.80433   0.00000  Uiso   1.00
O714   O     0.09181   0.15960   0.81839   0.00000  Uiso   1.00
O715   O     0.19242   0.16908   0.82793   0.00000  Uiso   1.00
O716   O     0.10476   0.08578   0.74414   0.00000  Uiso   1.00
O717   O     0.20536   0.09526   0.75367   0.00000  Uiso   1.00
O718   O     0.14092   0.16425   0.67207   0.00000  Uiso   1.00
O719   O     0.24152   0.17373   0.68160   0.00000  Uiso   1.00
O720   O     0.15376   0.29061   0.65948   0.00000  Uiso   1.00
C721   C     0.51406   0.26657   0.75349   0.00000  Uiso   1.00
C722   C     0.44971   0.15081   0.89984   0.00000  Uiso   1.00
C723   C     0.51755   0.32262   0.76102   0.00000  Uiso   1.00
C724   C     0.46733   0.16300   0.84654   0.00000  Uiso   1.00
C725   C     0.48520   0.01163   0.73504   0.00000  Uiso   1.00
C726   C     0.48629   0.06684   0.74595   0.00000  Uiso   1.00
C727   C     0.53243   0.16834   0.65320   0.00000  Uiso   1.00
C728   C     0.62252   0.21690   0.53117   0.00000  Uiso   1.00
C729   C     0.55101   0.17117   0.59810   0.00000  Uiso   1.00
C730   C     0.39930   0.10980   0.91287   0.00000  Uiso   1.00
C731   C     0.40301   0.07644   0.94874   0.00000  Uiso   1.00
C732   C     0.48954   0.13938   0.97510   0.00000  Uiso   1.00
C733   C     0.45068   0.08888   0.97783   0.00000  Uiso   1.00
C734   C     0.45977   0.31970   0.68913   0.00000  Uiso   1.00
C735   C     0.34116   0.22216   0.79672   0.00000  Uiso   1.00
C736   C     0.65843   0.10913   0.70551   0.00000  Uiso   1.00
C737   C     0.44382   0.12804   0.58236   0.00000  Uiso   1.00
C738   C     0.62764   0.08996   0.91626   0.00000  Uiso   1.00
C739   C     0.41449   0.01198   0.52118   0.00000  Uiso   1.00
C740   C     0.49455   0.28230   0.91614   0.00000  Uiso   1.00
C741   C     0.59786   0.01282   0.80776   0.00000  Uiso   1.00
C742   C     0.49229   0.16879   0.93351   0.00000  Uiso   1.00
C743   C     0.52699   0.16130   0.51224   0.00000  Uiso   1.00
C744   C     0.57950   0.20073   0.99875   0.00000  Uiso   1.00
C745   C     0.58489   0.22718   0.95561   0.00000  Uiso   1.00
C746   C     0.53794   0.21539   0.92668   0.00000  Uiso   1.00
C747   C     0.50931   0.15081   0.56391   0.00000  Uiso   1.00
C748   C     0.60919   0.20078   0.58000   0.00000  Uiso   1.00
Cu749  Cu    0.44043   0.16105   0.74435   0.00000  Uiso   1.00
Cu750  Cu    0.55957   0.17228   0.75564   0.00000  Uiso   1.00
H751   H     0.64201   0.21635   0.60515   0.00000  Uiso   1.00
H752   H     0.61220   0.04822   0.92489   0.00000  Uiso   1.00
H753   H     0.59351   0.09987   0.89614   0.00000  Uiso   1.00
H754   H     0.40460   0.31687   0.98900   0.00000  Uiso   1.00
H755   H     0.37272   0.02724   0.53905   0.00000  Uiso   1.00
H756   H     0.42693   0.32386   0.54966   0.00000  Uiso   1.00
H757   H     0.51084   0.30568   0.94961   0.00000  Uiso   1.00
H758   H     0.44743   0.25855   0.92672   0.00000  Uiso   1.00
H759   H     0.49128   0.31010   0.88923   0.00000  Uiso   1.00
H760   H     0.62393   0.32987   0.77313   0.00000  Uiso   1.00
H761   H     0.59743   0.32269   0.83946   0.00000  Uiso   1.00
H762   H     0.62168   0.26096   0.94770   0.00000  Uiso   1.00
H763   H     0.62401   0.05279   0.81554   0.00000  Uiso   1.00
H764   H     0.66483   0.24445   0.51983   0.00000  Uiso   1.00
H765   H     0.36994   0.03990   0.95152   0.00000  Uiso   1.00
H766   H     0.39295   0.31146   0.64691   0.00000  Uiso   1.00
H767   H     0.35764   0.24679   0.86691   0.00000  Uiso   1.00
H768   H     0.62958   0.08105   0.64017   0.00000  Uiso   1.00
H769   H     0.35723   0.12245   0.56934   0.00000  Uiso   1.00
H770   H     0.62742   0.11540   0.95197   0.00000  Uiso   1.00
N771   N     0.64908   0.18074   0.76416   0.00000  Uiso   1.00
N772   N     0.35092   0.15259   0.73584   0.00000  Uiso   1.00
O773   O     0.46131   0.23807   0.74633   0.00000  Uiso   1.00
O774   O     0.40558   0.33075   0.67906   0.00000  Uiso   1.00
O775   O     0.35763   0.26633   0.78224   0.00000  Uiso   1.00
O776   O     0.33913   0.21395   0.84723   0.00000  Uiso   1.00
O777   O     0.65303   0.06521   0.71846   0.00000  Uiso   1.00
O778   O     0.64814   0.11539   0.65768   0.00000  Uiso   1.00
O779   O     0.42993   0.09073   0.60868   0.00000  Uiso   1.00
O780   O     0.39833   0.14767   0.56618   0.00000  Uiso   1.00
O781   O     0.35231   0.09760   0.88441   0.00000  Uiso   1.00
O782   O     0.46485   0.05270   0.50592   0.00000  Uiso   1.00
O783   O     0.53643   0.25075   0.89285   0.00000  Uiso   1.00
O784   O     0.56191   0.24755   0.75586   0.00000  Uiso   1.00
O785   O     0.53724   0.01630   0.80433   0.00000  Uiso   1.00
O786   O     0.42515   0.15960   0.81839   0.00000  Uiso   1.00
O787   O     0.52575   0.16908   0.82793   0.00000  Uiso   1.00
O788   O     0.43809   0.08578   0.74414   0.00000  Uiso   1.00
O789   O     0.53869   0.09526   0.75367   0.00000  Uiso   1.00
O790   O     0.47425   0.16425   0.67207   0.00000  Uiso   1.00
O791   O     0.57485   0.17373   0.68160   0.00000  Uiso   1.00
O792   O     0.48709   0.29061   0.65948   0.00000  Uiso   1.00
C793   C     0.84739   0.26657   0.75349   0.00000  Uiso   1.00
C794   C     0.78304   0.15081   0.89984   0.00000  Uiso   1.00
C795   C     0.85088   0.32262   0.76102   0.00000  Uiso   1.00
C796   C     0.80067   0.16300   0.84654   0.00000  Uiso   1.00
C797   C     0.81854   0.01163   0.73504   0.00000  Uiso   1.00
C798   C     0.81962   0.06684   0.74595   0.00000  Uiso   1.00
C799   C     0.86577   0.16834   0.65320   0.00000  Uiso   1.00
C800   C     0.95586   0.21690   0.53117   0.00000  Uiso   1.00
C801   C     0.88434   0.17117   0.59810   0.00000  Uiso   1.00
C802   C     0.73263   0.10980   0.91287   0.00000  Uiso   1.00
C803   C     0.73635   0.07644   0.94874   0.00000  Uiso   1.00
C804   C     0.82287   0.13938   0.97510   0.00000  Uiso   1.00
C805   C     0.78401   0.08888   0.97783   0.00000  Uiso   1.00
C806   C     0.79311   0.31970   0.68913   0.00000  Uiso   1.00
C807   C     0.67449   0.22216   0.79672   0.00000  Uiso   1.00
C808   C     0.99177   0.10913   0.70551   0.00000  Uiso   1.00
C809   C     0.77715   0.12804   0.58236   0.00000  Uiso   1.00
C810   C     0.96097   0.08996   0.91626   0.00000  Uiso   1.00
C811   C     0.74783   0.01198   0.52118   0.00000  Uiso   1.00
C812   C     0.82788   0.28230   0.91614   0.00000  Uiso   1.00
C813   C     0.93119   0.01282   0.80776   0.00000  Uiso   1.00
C814   C     0.82562   0.16879   0.93351   0.00000  Uiso   1.00
C815   C     0.86033   0.16130   0.51224   0.00000  Uiso   1.00
C816   C     0.91283   0.20073   0.99875   0.00000  Uiso   1.00
C817   C     0.91822   0.22718   0.95561   0.00000  Uiso   1.00
C818   C     0.87128   0.21539   0.92668   0.00000  Uiso   1.00
C819   C     0.84265   0.15081   0.56391   0.00000  Uiso   1.00
C820   C     0.94253   0.20078   0.58000   0.00000  Uiso   1.00
Cu821  Cu    0.77377   0.16105   0.74435   0.00000  Uiso   1.00
Cu822  Cu    0.89290   0.17228   0.75564   0.00000  Uiso   1.00
H823   H     0.97534   0.21635   0.60515   0.00000  Uiso   1.00
H824   H     0.94553   0.04822   0.92489   0.00000  Uiso   1.00
H825   H     0.92684   0.09987   0.89614   0.00000  Uiso   1.00
H826   H     0.73793   0.31687   0.98900   0.00000  Uiso   1.00
H827   H     0.70606   0.02724   0.53905   0.00000  Uiso   1.00
H828   H     0.76027   0.32386   0.54966   0.00000  Uiso   1.00
H829   H     0.84417   0.30568   0.94961   0.00000  Uiso   1.00
H830   H     0.78077   0.25855   0.92672   0.00000  Uiso   1.00
H831   H     0.82461   0.31010   0.88923   0.00000  Uiso   1.00
H832   H     0.95727   0.32987   0.77313   0.00000  Uiso   1.00
H833   H     0.93076   0.32269   0.83946   0.00000  Uiso   1.00
H834   H     0.95501   0.26096   0.94770   0.00000  Uiso   1.00
H835   H     0.95734   0.05279   0.81554   0.00000  Uiso   1.00
H836   H     0.99816   0.24445   0.51983   0.00000  Uiso   1.00
H837   H     0.70327   0.03990   0.95152   0.00000  Uiso   1.00
H838   H     0.72629   0.31146   0.64691   0.00000  Uiso   1.00
H839   H     0.69097   0.24679   0.86691   0.00000  Uiso   1.00
H840   H     0.96291   0.08105   0.64017   0.00000  Uiso   1.00
H841   H     0.69056   0.12245   0.56934   0.00000  Uiso   1.00
H842   H     0.96076   0.11540   0.95197   0.00000  Uiso   1.00
N843   N     0.98241   0.18074   0.76416   0.00000  Uiso   1.00
N844   N     0.68426   0.15259   0.73584   0.00000  Uiso   1.00
O845   O     0.79464   0.23807   0.74633   0.00000  Uiso   1.00
O846   O     0.73891   0.33075   0.67906   0.00000  Uiso   1.00
O847   O     0.69097   0.26633   0.78224   0.00000  Uiso   1.00
O848   O     0.67246   0.21395   0.84723   0.00000  Uiso   1.00
O849   O     0.98636   0.06521   0.71846   0.00000  Uiso   1.00
O850   O     0.98148   0.11539   0.65768   0.00000  Uiso   1.00
O851   O     0.76326   0.09073   0.60868   0.00000  Uiso   1.00
O852   O     0.73166   0.14767   0.56618   0.00000  Uiso   1.00
O853   O     0.68564   0.09760   0.88441   0.00000  Uiso   1.00
O854   O     0.79819   0.05270   0.50592   0.00000  Uiso   1.00
O855   O     0.86976   0.25075   0.89285   0.00000  Uiso   1.00
O856   O     0.89524   0.24755   0.75586   0.00000  Uiso   1.00
O857   O     0.87057   0.01630   0.80433   0.00000  Uiso   1.00
O858   O     0.75848   0.15960   0.81839   0.00000  Uiso   1.00
O859   O     0.85908   0.16908   0.82793   0.00000  Uiso   1.00
O860   O     0.77142   0.08578   0.74414   0.00000  Uiso   1.00
O861   O     0.87203   0.09526   0.75367   0.00000  Uiso   1.00
O862   O     0.80758   0.16425   0.67207   0.00000  Uiso   1.00
O863   O     0.90819   0.17373   0.68160   0.00000  Uiso   1.00
O864   O     0.82042   0.29061   0.65948   0.00000  Uiso   1.00
C865   C     0.18073   0.59991   0.75349   0.00000  Uiso   1.00
C866   C     0.11637   0.48415   0.89984   0.00000  Uiso   1.00
C867   C     0.18422   0.65595   0.76102   0.00000  Uiso   1.00
C868   C     0.13400   0.49634   0.84654   0.00000  Uiso   1.00
C869   C     0.15187   0.34496   0.73504   0.00000  Uiso   1.00
C870   C     0.15296   0.40017   0.74595   0.00000  Uiso   1.00
C871   C     0.19910   0.50167   0.65320   0.00000  Uiso   1.00
C872   C     0.28919   0.55023   0.53117   0.00000  Uiso   1.00
C873   C     0.21768   0.50451   0.59810   0.00000  Uiso   1.00
C874   C     0.06597   0.44314   0.91287   0.00000  Uiso   1.00
C875   C     0.06968   0.40977   0.94874   0.00000  Uiso   1.00
C876   C     0.15621   0.47272   0.97510   0.00000  Uiso   1.00
C877   C     0.11735   0.42221   0.97783   0.00000  Uiso   1.00
C878   C     0.12644   0.65303   0.68913   0.00000  Uiso   1.00
C879   C     0.00783   0.55550   0.79672   0.00000  Uiso   1.00
C880   C     0.32510   0.44247   0.70551   0.00000  Uiso   1.00
C881   C     0.11048   0.46137   0.58236   0.00000  Uiso   1.00
C882   C     0.29431   0.42329   0.91626   0.00000  Uiso   1.00
C883   C     0.08116   0.34531   0.52118   0.00000  Uiso   1.00
C884   C     0.16122   0.61563   0.91614   0.00000  Uiso   1.00
C885   C     0.26452   0.34615   0.80776   0.00000  Uiso   1.00
C886   C     0.15895   0.50212   0.93351   0.00000  Uiso   1.00
C887   C     0.19366   0.49463   0.51224   0.00000  Uiso   1.00
C888   C     0.24616   0.53406   0.99875   0.00000  Uiso   1.00
C889   C     0.25155   0.56051   0.95561   0.00000  Uiso   1.00
C890   C     0.20461   0.54873   0.92668   0.00000  Uiso   1.00
C891   C     0.17598   0.48414   0.56391   0.00000  Uiso   1.00
C892   C     0.27586   0.53412   0.58000   0.00000  Uiso   1.00
Cu893  Cu    0.10710   0.49439   0.74435   0.00000  Uiso   1.00
Cu894  Cu    0.22623   0.50561   0.75564   0.00000  Uiso   1.00
H895   H     0.30867   0.54968   0.60515   0.00000  Uiso   1.00
H896   H     0.27887   0.38156   0.92489   0.00000  Uiso   1.00
H897   H     0.26018   0.43320   0.89614   0.00000  Uiso   1.00
H898   H     0.07126   0.65020   0.98900   0.00000  Uiso   1.00
H899   H     0.03939   0.36057   0.53905   0.00000  Uiso   1.00
H900   H     0.09360   0.65719   0.54966   0.00000  Uiso   1.00
H901   H     0.17751   0.63902   0.94961   0.00000  Uiso   1.00
H902   H     0.11410   0.59188   0.92672   0.00000  Uiso   1.00
H903   H     0.15795   0.64344   0.88923   0.00000  Uiso   1.00
H904   H     0.29060   0.66320   0.77313   0.00000  Uiso   1.00
H905   H     0.26410   0.65602   0.83946   0.00000  Uiso   1.00
H906   H     0.28834   0.59430   0.94770   0.00000  Uiso   1.00
H907   H     0.29067   0.38612   0.81554   0.00000  Uiso   1.00
H908   H     0.33150   0.57779   0.51983   0.00000  Uiso   1.00
H909   H     0.03661   0.37323   0.95152   0.00000  Uiso   1.00
H910   H     0.05962   0.64480   0.64691   0.00000  Uiso   1.00
H911   H     0.02430   0.58013   0.86691   0.00000  Uiso   1.00
H912   H     0.29625   0.41438   0.64017   0.00000  Uiso   1.00
H913   H     0.02390   0.45578   0.56934   0.00000  Uiso   1.00
H914   H     0.29409   0.44874   0.95197   0.00000  Uiso   1.00
N915   N     0.31574   0.51407   0.76416   0.00000  Uiso   1.00
N916   N     0.01759   0.48593   0.73584   0.00000  Uiso   1.00
O917   O     0.12797   0.57141   0.74633   0.00000  Uiso   1.00
O918   O     0.07224   0.66408   0.67906   0.00000  Uiso   1.00
O919   O     0.02430   0.59967   0.78224   0.00000  Uiso   1.00
O920   O     0.00580   0.54729   0.84723   0.00000  Uiso   1.00
O921   O     0.31969   0.39855   0.71846   0.00000  Uiso   1.00
O922   O     0.31481   0.44872   0.65768   0.00000  Uiso   1.00
O923   O     0.09659   0.42406   0.60868   0.00000  Uiso   1.00
O924   O     0.06499   0.48100   0.56618   0.00000  Uiso   1.00
O925   O     0.01897   0.43093   0.88441   0.00000  Uiso   1.00
O926   O     0.13152   0.38603   0.50592   0.00000  Uiso   1.00
O927   O     0.20309   0.58409   0.89285   0.00000  Uiso   1.00
O928   O     0.22858   0.58089   0.75586   0.00000  Uiso   1.00
O929   O     0.20390   0.34963   0.80433   0.00000  Uiso   1.00
O930   O     0.09181   0.49293   0.81839   0.00000  Uiso   1.00
O931   O     0.19242   0.50241   0.82793   0.00000  Uiso   1.00
O932   O     0.10476   0.41911   0.74414   0.00000  Uiso   1.00
O933   O     0.20536   0.42859   0.75367   0.00000  Uiso   1.00
O934   O     0.14092   0.49759   0.67207   0.00000  Uiso   1.00
O935   O     0.24152   0.50707   0.68160   0.00000  Uiso   1.00
O936   O     0.15376   0.62394   0.65948   0.00000  Uiso   1.00
C937   C     0.51406   0.59991   0.75349   0.00000  Uiso   1.00
C938   C     0.44971   0.48415   0.89984   0.00000  Uiso   1.00
C939   C     0.51755   0.65595   0.76102   0.00000  Uiso   1.00
C940   C     0.46733   0.49634   0.84654   0.00000  Uiso   1.00
C941   C     0.48520   0.34496   0.73504   0.00000  Uiso   1.00
C942   C     0.48629   0.40017   0.74595   0.00000  Uiso   1.00
C943   C     0.53243   0.50167   0.65320   0.00000  Uiso   1.00
C944   C     0.62252   0.55023   0.53117   0.00000  Uiso   1.00
C945   C     0.55101   0.50451   0.59810   0.00000  Uiso   1.00
C946   C     0.39930   0.44314   0.91287   0.00000  Uiso   1.00
C947   C     0.40301   0.40977   0.94874   0.00000  Uiso   1.00
C948   C     0.48954   0.47272   0.97510   0.00000  Uiso   1.00
C949   C     0.45068   0.42221   0.97783   0.00000  Uiso   1.00
C950   C     0.45977   0.65303   0.68913   0.00000  Uiso   1.00
C951   C     0.34116   0.55550   0.79672   0.00000  Uiso   1.00
C952   C     0.65843   0.44247   0.70551   0.00000  Uiso   1.00
C953   C     0.44382   0.46137   0.58236   0.00000  Uiso   1.00
C954   C     0.62764   0.42329   0.91626   0.00000  Uiso   1.00
C955   C     0.41449   0.34531   0.52118   0.00000  Uiso   1.00
C956   C     0.49455   0.61563   0.91614   0.00000  Uiso   1.00
C957   C     0.59786   0.34615   0.80776   0.00000  Uiso   1.00
C958   C     0.49229   0.50212   0.93351   0.00000  Uiso   1.00
C959   C     0.52699   0.49463   0.51224   0.00000  Uiso   1.00
C960   C     0.57950   0.53406   0.99875   0.00000  Uiso   1.00
C961   C     0.58489   0.56051   0.95561   0.00000  Uiso   1.00
C962   C     0.53794   0.54873   0.92668   0.00000  Uiso   1.00
C963   C     0.50931   0.48414   0.56391   0.00000  Uiso   1.00
C964   C     0.60919   0.53412   0.58000   0.00000  Uiso   1.00
Cu965  Cu    0.44043   0.49439   0.74435   0.00000  Uiso   1.00
Cu966  Cu    0.55957   0.50561   0.75564   0.00000  Uiso   1.00
H967   H     0.64201   0.54968   0.60515   0.00000  Uiso   1.00
H968   H     0.61220   0.38156   0.92489   0.00000  Uiso   1.00
H969   H     0.59351   0.43320   0.89614   0.00000  Uiso   1.00
H970   H     0.40460   0.65020   0.98900   0.00000  Uiso   1.00
H971   H     0.37272   0.36057   0.53905   0.00000  Uiso   1.00
H972   H     0.42693   0.65719   0.54966   0.00000  Uiso   1.00
H973   H     0.51084   0.63902   0.94961   0.00000  Uiso   1.00
H974   H     0.44743   0.59188   0.92672   0.00000  Uiso   1.00
H975   H     0.49128   0.64344   0.88923   0.00000  Uiso   1.00
H976   H     0.62393   0.66320   0.77313   0.00000  Uiso   1.00
H977   H     0.59743   0.65602   0.83946   0.00000  Uiso   1.00
H978   H     0.62168   0.59430   0.94770   0.00000  Uiso   1.00
H979   H     0.62401   0.38612   0.81554   0.00000  Uiso   1.00
H980   H     0.66483   0.57779   0.51983   0.00000  Uiso   1.00
H981   H     0.36994   0.37323   0.95152   0.00000  Uiso   1.00
H982   H     0.39295   0.64480   0.64691   0.00000  Uiso   1.00
H983   H     0.35764   0.58013   0.86691   0.00000  Uiso   1.00
H984   H     0.62958   0.41438   0.64017   0.00000  Uiso   1.00
H985   H     0.35723   0.45578   0.56934   0.00000  Uiso   1.00
H986   H     0.62742   0.44874   0.95197   0.00000  Uiso   1.00
N987   N     0.64908   0.51407   0.76416   0.00000  Uiso   1.00
N988   N     0.35092   0.48593   0.73584   0.00000  Uiso   1.00
O989   O     0.46131   0.57141   0.74633   0.00000  Uiso   1.00
O990   O     0.40558   0.66408   0.67906   0.00000  Uiso   1.00
O991   O     0.35763   0.59967   0.78224   0.00000  Uiso   1.00
O992   O     0.33913   0.54729   0.84723   0.00000  Uiso   1.00
O993   O     0.65303   0.39855   0.71846   0.00000  Uiso   1.00
O994   O     0.64814   0.44872   0.65768   0.00000  Uiso   1.00
O995   O     0.42993   0.42406   0.60868   0.00000  Uiso   1.00
O996   O     0.39833   0.48100   0.56618   0.00000  Uiso   1.00
O997   O     0.35231   0.43093   0.88441   0.00000  Uiso   1.00
O998   O     0.46485   0.38603   0.50592   0.00000  Uiso   1.00
O999   O     0.53643   0.58409   0.89285   0.00000  Uiso   1.00
O1000  O     0.56191   0.58089   0.75586   0.00000  Uiso   1.00
O1001  O     0.53724   0.34963   0.80433   0.00000  Uiso   1.00
O1002  O     0.42515   0.49293   0.81839   0.00000  Uiso   1.00
O1003  O     0.52575   0.50241   0.82793   0.00000  Uiso   1.00
O1004  O     0.43809   0.41911   0.74414   0.00000  Uiso   1.00
O1005  O     0.53869   0.42859   0.75367   0.00000  Uiso   1.00
O1006  O     0.47425   0.49759   0.67207   0.00000  Uiso   1.00
O1007  O     0.57485   0.50707   0.68160   0.00000  Uiso   1.00
O1008  O     0.48709   0.62394   0.65948   0.00000  Uiso   1.00
C1009  C     0.84739   0.59991   0.75349   0.00000  Uiso   1.00
C1010  C     0.78304   0.48415   0.89984   0.00000  Uiso   1.00
C1011  C     0.85088   0.65595   0.76102   0.00000  Uiso   1.00
C1012  C     0.80067   0.49634   0.84654   0.00000  Uiso   1.00
C1013  C     0.81854   0.34496   0.73504   0.00000  Uiso   1.00
C1014  C     0.81962   0.40017   0.74595   0.00000  Uiso   1.00
C1015  C     0.86577   0.50167   0.65320   0.00000  Uiso   1.00
C1016  C     0.95586   0.55023   0.53117   0.00000  Uiso   1.00
C1017  C     0.88434   0.50451   0.59810   0.00000  Uiso   1.00
C1018  C     0.73263   0.44314   0.91287   0.00000  Uiso   1.00
C1019  C     0.73635   0.40977   0.94874   0.00000  Uiso   1.00
C1020  C     0.82287   0.47272   0.97510   0.00000  Uiso   1.00
C1021  C     0.78401   0.42221   0.97783   0.00000  Uiso   1.00
C1022  C     0.79311   0.65303   0.68913   0.00000  Uiso   1.00
C1023  C     0.67449   0.55550   0.79672   0.00000  Uiso   1.00
C1024  C     0.99177   0.44247   0.70551   0.00000  Uiso   1.00
C1025  C     0.77715   0.46137   0.58236   0.00000  Uiso   1.00
C1026  C     0.96097   0.42329   0.91626   0.00000  Uiso   1.00
C1027  C     0.74783   0.34531   0.52118   0.00000  Uiso   1.00
C1028  C     0.82788   0.61563   0.91614   0.00000  Uiso   1.00
C1029  C     0.93119   0.34615   0.80776   0.00000  Uiso   1.00
C1030  C     0.82562   0.50212   0.93351   0.00000  Uiso   1.00
C1031  C     0.86033   0.49463   0.51224   0.00000  Uiso   1.00
C1032  C     0.91283   0.53406   0.99875   0.00000  Uiso   1.00
C1033  C     0.91822   0.56051   0.95561   0.00000  Uiso   1.00
C1034  C     0.87128   0.54873   0.92668   0.00000  Uiso   1.00
C1035  C     0.84265   0.48414   0.56391   0.00000  Uiso   1.00
C1036  C     0.94253   0.53412   0.58000   0.00000  Uiso   1.00
Cu1037 Cu    0.77377   0.49439   0.74435   0.00000  Uiso   1.00
Cu1038 Cu    0.89290   0.50561   0.75564   0.00000  Uiso   1.00
H1039  H     0.97534   0.54968   0.60515   0.00000  Uiso   1.00
H1040  H     0.94553   0.38156   0.92489   0.00000  Uiso   1.00
H1041  H     0.92684   0.43320   0.89614   0.00000  Uiso   1.00
H1042  H     0.73793   0.65020   0.98900   0.00000  Uiso   1.00
H1043  H     0.70606   0.36057   0.53905   0.00000  Uiso   1.00
H1044  H     0.76027   0.65719   0.54966   0.00000  Uiso   1.00
H1045  H     0.84417   0.63902   0.94961   0.00000  Uiso   1.00
H1046  H     0.78077   0.59188   0.92672   0.00000  Uiso   1.00
H1047  H     0.82461   0.64344   0.88923   0.00000  Uiso   1.00
H1048  H     0.95727   0.66320   0.77313   0.00000  Uiso   1.00
H1049  H     0.93076   0.65602   0.83946   0.00000  Uiso   1.00
H1050  H     0.95501   0.59430   0.94770   0.00000  Uiso   1.00
H1051  H     0.95734   0.38612   0.81554   0.00000  Uiso   1.00
H1052  H     0.99816   0.57779   0.51983   0.00000  Uiso   1.00
H1053  H     0.70327   0.37323   0.95152   0.00000  Uiso   1.00
H1054  H     0.72629   0.64480   0.64691   0.00000  Uiso   1.00
H1055  H     0.69097   0.58013   0.86691   0.00000  Uiso   1.00
H1056  H     0.96291   0.41438   0.64017   0.00000  Uiso   1.00
H1057  H     0.69056   0.45578   0.56934   0.00000  Uiso   1.00
H1058  H     0.96076   0.44874   0.95197   0.00000  Uiso   1.00
N1059  N     0.98241   0.51407   0.76416   0.00000  Uiso   1.00
N1060  N     0.68426   0.48593   0.73584   0.00000  Uiso   1.00
O1061  O     0.79464   0.57141   0.74633   0.00000  Uiso   1.00
O1062  O     0.73891   0.66408   0.67906   0.00000  Uiso   1.00
O1063  O     0.69097   0.59967   0.78224   0.00000  Uiso   1.00
O1064  O     0.67246   0.54729   0.84723   0.00000  Uiso   1.00
O1065  O     0.98636   0.39855   0.71846   0.00000  Uiso   1.00
O1066  O     0.98148   0.44872   0.65768   0.00000  Uiso   1.00
O1067  O     0.76326   0.42406   0.60868   0.00000  Uiso   1.00
O1068  O     0.73166   0.48100   0.56618   0.00000  Uiso   1.00
O1069  O     0.68564   0.43093   0.88441   0.00000  Uiso   1.00
O1070  O     0.79819   0.38603   0.50592   0.00000  Uiso   1.00
O1071  O     0.86976   0.58409   0.89285   0.00000  Uiso   1.00
O1072  O     0.89524   0.58089   0.75586   0.00000  Uiso   1.00
O1073  O     0.87057   0.34963   0.80433   0.00000  Uiso   1.00
O1074  O     0.75848   0.49293   0.81839   0.00000  Uiso   1.00
O1075  O     0.85908   0.50241   0.82793   0.00000  Uiso   1.00
O1076  O     0.77142   0.41911   0.74414   0.00000  Uiso   1.00
O1077  O     0.87203   0.42859   0.75367   0.00000  Uiso   1.00
O1078  O     0.80758   0.49759   0.67207   0.00000  Uiso   1.00
O1079  O     0.90819   0.50707   0.68160   0.00000  Uiso   1.00
O1080  O     0.82042   0.62394   0.65948   0.00000  Uiso   1.00
C1081  C     0.18073   0.93324   0.75349   0.00000  Uiso   1.00
C1082  C     0.11637   0.81748   0.89984   0.00000  Uiso   1.00
C1083  C     0.18422   0.98928   0.76102   0.00000  Uiso   1.00
C1084  C     0.13400   0.82967   0.84654   0.00000  Uiso   1.00
C1085  C     0.15187   0.67830   0.73504   0.00000  Uiso   1.00
C1086  C     0.15296   0.73350   0.74595   0.00000  Uiso   1.00
C1087  C     0.19910   0.83501   0.65320   0.00000  Uiso   1.00
C1088  C     0.28919   0.88357   0.53117   0.00000  Uiso   1.00
C1089  C     0.21768   0.83784   0.59810   0.00000  Uiso   1.00
C1090  C     0.06597   0.77647   0.91287   0.00000  Uiso   1.00
C1091  C     0.06968   0.74310   0.94874   0.00000  Uiso   1.00
C1092  C     0.15621   0.80605   0.97510   0.00000  Uiso   1.00
C1093  C     0.11735   0.75555   0.97783   0.00000  Uiso   1.00
C1094  C     0.12644   0.98636   0.68913   0.00000  Uiso   1.00
C1095  C     0.00783   0.88883   0.79672   0.00000  Uiso   1.00
C1096  C     0.32510   0.77580   0.70551   0.00000  Uiso   1.00
C1097  C     0.11048   0.79470   0.58236   0.00000  Uiso   1.00
C1098  C     0.29431   0.75663   0.91626   0.00000  Uiso   1.00
C1099  C     0.08116   0.67865   0.52118   0.00000  Uiso   1.00
C1100  C     0.16122   0.94896   0.91614   0.00000  Uiso   1.00
C1101  C     0.26452   0.67949   0.80776   0.00000  Uiso   1.00
C1102  C     0.15895   0.83545   0.93351   0.00000  Uiso   1.00
C1103  C     0.19366   0.82796   0.51224   0.00000  Uiso   1.00
C1104  C     0.24616   0.86739   0.99875   0.00000  Uiso   1.00
C1105  C     0.25155   0.89384   0.95561   0.00000  Uiso   1.00
C1106  C     0.20461   0.88206   0.92668   0.00000  Uiso   1.00
C1107  C     0.17598   0.81748   0.56391   0.00000  Uiso   1.00
C1108  C     0.27586   0.86745   0.58000   0.00000  Uiso   1.00
Cu1109 Cu    0.10710   0.82772   0.74435   0.00000  Uiso   1.00
Cu1110 Cu    0.22623   0.83895   0.75564   0.00000  Uiso   1.00
H1111  H     0.30867   0.88302   0.60515   0.00000  Uiso   1.00
H1112  H     0.27887   0.71489   0.92489   0.00000  Uiso   1.00
H1113  H     0.26018   0.76653   0.89614   0.00000  Uiso   1.00
H1114  H     0.07126   0.98354   0.98900   0.00000  Uiso   1.00
H1115  H     0.03939   0.69390   0.53905   0.00000  Uiso   1.00
H1116  H     0.09360   0.99053   0.54966   0.00000  Uiso   1.00
H1117  H     0.17751   0.97235   0.94961   0.00000  Uiso   1.00
H1118  H     0.11410   0.92521   0.92672   0.00000  Uiso   1.00
H1119  H     0.15795   0.97677   0.88923   0.00000  Uiso   1.00
H1120  H     0.29060   0.99654   0.77313   0.00000  Uiso   1.00
H1121  H     0.26410   0.98936   0.83946   0.00000  Uiso   1.00
H1122  H     0.28834   0.92763   0.94770   0.00000  Uiso   1.00
H1123  H     0.29067   0.71946   0.81554   0.00000  Uiso   1.00
H1124  H     0.33150   0.91112   0.51983   0.00000  Uiso   1.00
H1125  H     0.03661   0.70657   0.95152   0.00000  Uiso   1.00
H1126  H     0.05962   0.97813   0.64691   0.00000  Uiso   1.00
H1127  H     0.02430   0.91346   0.86691   0.00000  Uiso   1.00
H1128  H     0.29625   0.74772   0.64017   0.00000  Uiso   1.00
H1129  H     0.02390   0.78911   0.56934   0.00000  Uiso   1.00
H1130  H     0.29409   0.78207   0.95197   0.00000  Uiso   1.00
N1131  N     0.31574   0.84741   0.76416   0.00000  Uiso   1.00
N1132  N     0.01759   0.81926   0.73584   0.00000  Uiso   1.00
O1133  O     0.12797   0.90474   0.74633   0.00000  Uiso   1.00
O1134  O     0.07224   0.99741   0.67906   0.00000  Uiso   1.00
O1135  O     0.02430   0.93300   0.78224   0.00000  Uiso   1.00
O1136  O     0.00580   0.88062   0.84723   0.00000  Uiso   1.00
O1137  O     0.31969   0.73188   0.71846   0.00000  Uiso   1.00
O1138  O     0.31481   0.78206   0.65768   0.00000  Uiso   1.00
O1139  O     0.09659   0.75739   0.60868   0.00000  Uiso   1.00
O1140  O     0.06499   0.81434   0.56618   0.00000  Uiso   1.00
O1141  O     0.01897   0.76426   0.88441   0.00000  Uiso   1.00
O1142  O     0.13152   0.71936   0.50592   0.00000  Uiso   1.00
O1143  O     0.20309   0.91742   0.89285   0.00000  Uiso   1.00
O1144  O     0.22858   0.91422   0.75586   0.00000  Uiso   1.00
O1145  O     0.20390   0.68296   0.80433   0.00000  Uiso   1.00
O1146  O     0.09181   0.82627   0.81839   0.00000  Uiso   1.00
O1147  O     0.19242   0.83575   0.82793   0.00000  Uiso   1.00
O1148  O     0.10476   0.75245   0.74414   0.00000  Uiso   1.00
O1149  O     0.20536   0.76193   0.75367   0.00000  Uiso   1.00
O1150  O     0.14092   0.83092   0.67207   0.00000  Uiso   1.00
O1151  O     0.24152   0.84040   0.68160   0.00000  Uiso   1.00
O1152  O     0.15376   0.95728   0.65948   0.00000  Uiso   1.00
C1153  C     0.51406   0.93324   0.75349   0.00000  Uiso   1.00
C1154  C     0.44971   0.81748   0.89984   0.00000  Uiso   1.00
C1155  C     0.51755   0.98928   0.76102   0.00000  Uiso   1.00
C1156  C     0.46733   0.82967   0.84654   0.00000  Uiso   1.00
C1157  C     0.48520   0.67830   0.73504   0.00000  Uiso   1.00
C1158  C     0.48629   0.73350   0.74595   0.00000  Uiso   1.00
C1159  C     0.53243   0.83501   0.65320   0.00000  Uiso   1.00
C1160  C     0.62252   0.88357   0.53117   0.00000  Uiso   1.00
C1161  C     0.55101   0.83784   0.59810   0.00000  Uiso   1.00
C1162  C     0.39930   0.77647   0.91287   0.00000  Uiso   1.00
C1163  C     0.40301   0.74310   0.94874   0.00000  Uiso   1.00
C1164  C     0.48954   0.80605   0.97510   0.00000  Uiso   1.00
C1165  C     0.45068   0.75555   0.97783   0.00000  Uiso   1.00
C1166  C     0.45977   0.98636   0.68913   0.00000  Uiso   1.00
C1167  C     0.34116   0.88883   0.79672   0.00000  Uiso   1.00
C1168  C     0.65843   0.77580   0.70551   0.00000  Uiso   1.00
C1169  C     0.44382   0.79470   0.58236   0.00000  Uiso   1.00
C1170  C     0.62764   0.75663   0.91626   0.00000  Uiso   1.00
C1171  C     0.41449   0.67865   0.52118   0.00000  Uiso   1.00
C1172  C     0.49455   0.94896   0.91614   0.00000  Uiso   1.00
C1173  C     0.59786   0.67949   0.80776   0.00000  Uiso   1.00
C1174  C     0.49229   0.83545   0.93351   0.00000  Uiso   1.00
C1175  C     0.52699   0.82796   0.51224   0.00000  Uiso   1.00
C1176  C     0.57950   0.86739   0.99875   0.00000  Uiso   1.00
C1177  C     0.58489   0.89384   0.95561   0.00000  Uiso   1.00
C1178  C     0.53794   0.88206   0.92668   0.00000  Uiso   1.00
C1179  C     0.50931   0.81748   0.56391   0.00000  Uiso   1.00
C1180  C     0.60919   0.86745   0.58000   0.00000  Uiso   1.00
Cu1181 Cu    0.44043   0.82772   0.74435   0.00000  Uiso   1.00
Cu1182 Cu    0.55957   0.83895   0.75564   0.00000  Uiso   1.00
H1183  H     0.64201   0.88302   0.60515   0.00000  Uiso   1.00
H1184  H     0.61220   0.71489   0.92489   0.00000  Uiso   1.00
H1185  H     0.59351   0.76653   0.89614   0.00000  Uiso   1.00
H1186  H     0.40460   0.98354   0.98900   0.00000  Uiso   1.00
H1187  H     0.37272   0.69390   0.53905   0.00000  Uiso   1.00
H1188  H     0.42693   0.99053   0.54966   0.00000  Uiso   1.00
H1189  H     0.51084   0.97235   0.94961   0.00000  Uiso   1.00
H1190  H     0.44743   0.92521   0.92672   0.00000  Uiso   1.00
H1191  H     0.49128   0.97677   0.88923   0.00000  Uiso   1.00
H1192  H     0.62393   0.99654   0.77313   0.00000  Uiso   1.00
H1193  H     0.59743   0.98936   0.83946   0.00000  Uiso   1.00
H1194  H     0.62168   0.92763   0.94770   0.00000  Uiso   1.00
H1195  H     0.62401   0.71946   0.81554   0.00000  Uiso   1.00
H1196  H     0.66483   0.91112   0.51983   0.00000  Uiso   1.00
H1197  H     0.36994   0.70657   0.95152   0.00000  Uiso   1.00
H1198  H     0.39295   0.97813   0.64691   0.00000  Uiso   1.00
H1199  H     0.35764   0.91346   0.86691   0.00000  Uiso   1.00
H1200  H     0.62958   0.74772   0.64017   0.00000  Uiso   1.00
H1201  H     0.35723   0.78911   0.56934   0.00000  Uiso   1.00
H1202  H     0.62742   0.78207   0.95197   0.00000  Uiso   1.00
N1203  N     0.64908   0.84741   0.76416   0.00000  Uiso   1.00
N1204  N     0.35092   0.81926   0.73584   0.00000  Uiso   1.00
O1205  O     0.46131   0.90474   0.74633   0.00000  Uiso   1.00
O1206  O     0.40558   0.99741   0.67906   0.00000  Uiso   1.00
O1207  O     0.35763   0.93300   0.78224   0.00000  Uiso   1.00
O1208  O     0.33913   0.88062   0.84723   0.00000  Uiso   1.00
O1209  O     0.65303   0.73188   0.71846   0.00000  Uiso   1.00
O1210  O     0.64814   0.78206   0.65768   0.00000  Uiso   1.00
O1211  O     0.42993   0.75739   0.60868   0.00000  Uiso   1.00
O1212  O     0.39833   0.81434   0.56618   0.00000  Uiso   1.00
O1213  O     0.35231   0.76426   0.88441   0.00000  Uiso   1.00
O1214  O     0.46485   0.71936   0.50592   0.00000  Uiso   1.00
O1215  O     0.53643   0.91742   0.89285   0.00000  Uiso   1.00
O1216  O     0.56191   0.91422   0.75586   0.00000  Uiso   1.00
O1217  O     0.53724   0.68296   0.80433   0.00000  Uiso   1.00
O1218  O     0.42515   0.82627   0.81839   0.00000  Uiso   1.00
O1219  O     0.52575   0.83575   0.82793   0.00000  Uiso   1.00
O1220  O     0.43809   0.75245   0.74414   0.00000  Uiso   1.00
O1221  O     0.53869   0.76193   0.75367   0.00000  Uiso   1.00
O1222  O     0.47425   0.83092   0.67207   0.00000  Uiso   1.00
O1223  O     0.57485   0.84040   0.68160   0.00000  Uiso   1.00
O1224  O     0.48709   0.95728   0.65948   0.00000  Uiso   1.00
C1225  C     0.84739   0.93324   0.75349   0.00000  Uiso   1.00
C1226  C     0.78304   0.81748   0.89984   0.00000  Uiso   1.00
C1227  C     0.85088   0.98928   0.76102   0.00000  Uiso   1.00
C1228  C     0.80067   0.82967   0.84654   0.00000  Uiso   1.00
C1229  C     0.81854   0.67830   0.73504   0.00000  Uiso   1.00
C1230  C     0.81962   0.73350   0.74595   0.00000  Uiso   1.00
C1231  C     0.86577   0.83501   0.65320   0.00000  Uiso   1.00
C1232  C     0.95586   0.88357   0.53117   0.00000  Uiso   1.00
C1233  C     0.88434   0.83784   0.59810   0.00000  Uiso   1.00
C1234  C     0.73263   0.77647   0.91287   0.00000  Uiso   1.00
C1235  C     0.73635   0.74310   0.94874   0.00000  Uiso   1.00
C1236  C     0.82287   0.80605   0.97510   0.00000  Uiso   1.00
C1237  C     0.78401   0.75555   0.97783   0.00000  Uiso   1.00
C1238  C     0.79311   0.98636   0.68913   0.00000  Uiso   1.00
C1239  C     0.67449   0.88883   0.79672   0.00000  Uiso   1.00
C1240  C     0.99177   0.77580   0.70551   0.00000  Uiso   1.00
C1241  C     0.77715   0.79470   0.58236   0.00000  Uiso   1.00
C1242  C     0.96097   0.75663   0.91626   0.00000  Uiso   1.00
C1243  C     0.74783   0.67865   0.52118   0.00000  Uiso   1.00
C1244  C     0.82788   0.94896   0.91614   0.00000  Uiso   1.00
C1245  C     0.93119   0.67949   0.80776   0.00000  Uiso   1.00
C1246  C     0.82562   0.83545   0.93351   0.00000  Uiso   1.00
C1247  C     0.86033   0.82796   0.51224   0.00000  Uiso   1.00
C1248  C     0.91283   0.86739   0.99875   0.00000  Uiso   1.00
C1249  C     0.91822   0.89384   0.95561   0.00000  Uiso   1.00
C1250  C     0.87128   0.88206   0.92668   0.00000  Uiso   1.00
C1251  C     0.84265   0.81748   0.56391   0.00000  Uiso   1.00
C1252  C     0.94253   0.86745   0.58000   0.00000  Uiso   1.00
Cu1253 Cu    0.77377   0.82772   0.74435   0.00000  Uiso   1.00
Cu1254 Cu    0.89290   0.83895   0.75564   0.00000  Uiso   1.00
H1255  H     0.97534   0.88302   0.60515   0.00000  Uiso   1.00
H1256  H     0.94553   0.71489   0.92489   0.00000  Uiso   1.00
H1257  H     0.92684   0.76653   0.89614   0.00000  Uiso   1.00
H1258  H     0.73793   0.98354   0.98900   0.00000  Uiso   1.00
H1259  H     0.70606   0.69390   0.53905   0.00000  Uiso   1.00
H1260  H     0.76027   0.99053   0.54966   0.00000  Uiso   1.00
H1261  H     0.84417   0.97235   0.94961   0.00000  Uiso   1.00
H1262  H     0.78077   0.92521   0.92672   0.00000  Uiso   1.00
H1263  H     0.82461   0.97677   0.88923   0.00000  Uiso   1.00
H1264  H     0.95727   0.99654   0.77313   0.00000  Uiso   1.00
H1265  H     0.93076   0.98936   0.83946   0.00000  Uiso   1.00
H1266  H     0.95501   0.92763   0.94770   0.00000  Uiso   1.00
H1267  H     0.95734   0.71946   0.81554   0.00000  Uiso   1.00
H1268  H     0.99816   0.91112   0.51983   0.00000  Uiso   1.00
H1269  H     0.70327   0.70657   0.95152   0.00000  Uiso   1.00
H1270  H     0.72629   0.97813   0.64691   0.00000  Uiso   1.00
H1271  H     0.69097   0.91346   0.86691   0.00000  Uiso   1.00
H1272  H     0.96291   0.74772   0.64017   0.00000  Uiso   1.00
H1273  H     0.69056   0.78911   0.56934   0.00000  Uiso   1.00
H1274  H     0.96076   0.78207   0.95197   0.00000  Uiso   1.00
N1275  N     0.98241   0.84741   0.76416   0.00000  Uiso   1.00
N1276  N     0.68426   0.81926   0.73584   0.00000  Uiso   1.00
O1277  O     0.79464   0.90474   0.74633   0.00000  Uiso   1.00
O1278  O     0.73891   0.99741   0.67906   0.00000  Uiso   1.00
O1279  O     0.69097   0.93300   0.78224   0.00000  Uiso   1.00
O1280  O     0.67246   0.88062   0.84723   0.00000  Uiso   1.00
O1281  O     0.98636   0.73188   0.71846   0.00000  Uiso   1.00
O1282  O     0.98148   0.78206   0.65768   0.00000  Uiso   1.00
O1283  O     0.76326   0.75739   0.60868   0.00000  Uiso   1.00
O1284  O     0.73166   0.81434   0.56618   0.00000  Uiso   1.00
O1285  O     0.68564   0.76426   0.88441   0.00000  Uiso   1.00
O1286  O     0.79819   0.71936   0.50592   0.00000  Uiso   1.00
O1287  O     0.86976   0.91742   0.89285   0.00000  Uiso   1.00
O1288  O     0.89524   0.91422   0.75586   0.00000  Uiso   1.00
O1289  O     0.87057   0.68296   0.80433   0.00000  Uiso   1.00
O1290  O     0.75848   0.82627   0.81839   0.00000  Uiso   1.00
O1291  O     0.85908   0.83575   0.82793   0.00000  Uiso   1.00
O1292  O     0.77142   0.75245   0.74414   0.00000  Uiso   1.00
O1293  O     0.87203   0.76193   0.75367   0.00000  Uiso   1.00
O1294  O     0.80758   0.83092   0.67207   0.00000  Uiso   1.00
O1295  O     0.90819   0.84040   0.68160   0.00000  Uiso   1.00
O1296  O     0.82042   0.95728   0.65948   0.00000  Uiso   1.00
loop_
_geom_bond_atom_site_label_1
_geom_bond_atom_site_label_2
_geom_bond_distance
_geom_bond_site_symmetry_2
_ccdc_geom_bond_type
C1     O64     1.300   .     A
C1     O53     1.297   .     A
C1     C3      1.450   .     S
C2     C22     1.418   .     A
C2     C4      1.472   .     S
C2     C10     1.406   .     A
C3     C221    1.355   .     S
C3     O281    1.396   .     S
C4     O67     1.303   .     A
C4     O66     1.309   .     A
C5     C6      1.443   .     S
C5     C435    1.355   1_545 S
C5     C446    1.494   1_545 S
C6     O69     1.294   .     A
C6     O68     1.302   .     A
C7     O70     1.304   .     A
C7     O71     1.311   .     A
C7     C9      1.476   .     S
C8     H44     1.080   .     S
C8     C28     1.389   .     A
C8     C672    1.396   1_554 S
C9     C27     1.423   .     A
C9     C28     1.403   .     A
C10    O61     1.387   .     S
C10    C11     1.399   .     A
C11    C13     1.411   .     A
C11    H45     1.079   .     S
C12    C13     1.422   .     A
C12    C22     1.415   .     A
C12    C671    1.426   .     S
C13    O710    1.399   .     S
C14    O54     1.397   .     S
C14    O72     1.224   .     D
C14    C221    1.494   .     S
C15    O56     1.396   .     S
C15    O55     1.221   .     D
C15    N195    1.413   1_455 S
C16    O57     1.214   .     D
C16    O58     1.388   .     S
C16    N124    1.414   .     S
C17    O59     1.223   .     D
C17    O60     1.399   .     S
C17    C27     1.483   .     S
C18    H50     1.114   .     S
C18    H33     1.109   .     S
C18    H32     1.111   .     S
C18    O133    1.415   .     S
C19    H35     1.113   .     S
C19    O62     1.413   .     S
C19    H1114   1.107   1_544 S
C19    H468    1.109   1_545 S
C20    H38     1.113   .     S
C20    O63     1.409   .     S
C20    H37     1.112   .     S
C20    H39     1.106   .     S
C21    O65     1.413   .     S
C21    H43     1.105   .     S
C21    H472    1.107   1_545 S
C21    H473    1.105   1_545 S
C22    C26     1.422   .     A
C23    C27     1.419   .     A
C23    C660    1.426   1_554 S
C23    C672    1.412   1_554 S
C24    C25     1.393   .     A
C24    C671    1.412   .     S
C24    C656    1.396   .     S
C25    H42     1.084   .     S
C25    C26     1.395   .     A
C26    O63     1.380   .     S
C28    H31     1.084   .     S
Cu29   Cu30    2.713   .     S
Cu29   O68     1.964   .     S
Cu29   O53     1.970   .     S
Cu29   O70     1.965   .     S
Cu29   O66     1.970   .     S
Cu29   N52     2.039   .     S
Cu30   N51     2.039   .     S
Cu30   O67     1.965   .     S
Cu30   O71     1.970   .     S
Cu30   O64     1.964   .     S
Cu30   O69     1.970   .     S
H34    C883    1.107   .     S
H36    C235    1.109   .     S
H40    C237    1.107   .     S
H41    C237    1.105   .     S
H46    O54     1.014   .     S
H47    O56     1.014   .     S
H48    O58     1.015   .     S
H49    O60     1.011   .     S
N51    C87     1.413   .     S
N51    N124    1.293   .     S
N52    N195    1.293   1_455 S
N52    C160    1.414   1_455 S
O61    C162    1.415   1_455 S
O62    C661    1.399   1_554 S
O65    C435    1.396   1_545 S
C73    O136    1.300   .     A
C73    O125    1.297   .     A
C73    C75     1.450   .     S
C74    C94     1.418   .     A
C74    C76     1.472   .     S
C74    C82     1.406   .     A
C75    C293    1.355   .     S
C75    O353    1.396   .     S
C76    O139    1.303   .     A
C76    O138    1.309   .     A
C77    C78     1.443   .     S
C77    C507    1.355   1_545 S
C77    C518    1.494   1_545 S
C78    O141    1.294   .     A
C78    O140    1.302   .     A
C79    O142    1.304   .     A
C79    O143    1.311   .     A
C79    C81     1.476   .     S
C80    H116    1.080   .     S
C80    C100    1.389   .     A
C80    C744    1.396   1_554 S
C81    C99     1.423   .     A
C81    C100    1.403   .     A
C82    O133    1.387   .     S
C82    C83     1.399   .     A
C83    C85     1.411   .     A
C83    H117    1.079   .     S
C84    C85     1.422   .     A
C84    C94     1.415   .     A
C84    C743    1.426   .     S
C85    O782    1.399   .     S
C86    O126    1.397   .     S
C86    O144    1.224   .     D
C86    C293    1.494   .     S
C87    O128    1.396   .     S
C87    O127    1.221   .     D
C88    O129    1.214   .     D
C88    O130    1.388   .     S
C88    N196    1.414   .     S
C89    O131    1.223   .     D
C89    O132    1.399   .     S
C89    C99     1.483   .     S
C90    H122    1.114   .     S
C90    H105    1.109   .     S
C90    H104    1.111   .     S
C90    O205    1.415   .     S
C91    H107    1.113   .     S
C91    O134    1.413   .     S
C91    H1186   1.107   1_544 S
C91    H540    1.109   1_545 S
C92    H110    1.113   .     S
C92    O135    1.409   .     S
C92    H109    1.112   .     S
C92    H111    1.106   .     S
C93    O137    1.413   .     S
C93    H115    1.105   .     S
C93    H544    1.107   1_545 S
C93    H545    1.105   1_545 S
C94    C98     1.422   .     A
C95    C99     1.419   .     A
C95    C732    1.426   1_554 S
C95    C744    1.412   1_554 S
C96    C97     1.393   .     A
C96    C743    1.412   .     S
C96    C728    1.396   .     S
C97    H114    1.084   .     S
C97    C98     1.395   .     A
C98    O135    1.380   .     S
C100   H103    1.084   .     S
Cu101  Cu102   2.713   .     S
Cu101  O140    1.964   .     S
Cu101  O125    1.970   .     S
Cu101  O142    1.965   .     S
Cu101  O138    1.970   .     S
Cu101  N124    2.039   .     S
Cu102  N123    2.039   .     S
Cu102  O139    1.965   .     S
Cu102  O143    1.970   .     S
Cu102  O136    1.964   .     S
Cu102  O141    1.970   .     S
H106   C955    1.107   .     S
H108   C307    1.109   .     S
H112   C309    1.107   .     S
H113   C309    1.105   .     S
H118   O126    1.014   .     S
H119   O128    1.014   .     S
H120   O130    1.015   .     S
H121   O132    1.011   .     S
N123   C159    1.413   .     S
N123   N196    1.293   .     S
O134   C733    1.399   1_554 S
O137   C507    1.396   1_545 S
C145   O208    1.300   .     A
C145   O197    1.297   .     A
C145   C147    1.450   .     S
C146   C166    1.418   .     A
C146   C148    1.472   .     S
C146   C154    1.406   .     A
C147   C365    1.355   .     S
C147   O425    1.396   .     S
C148   O211    1.303   .     A
C148   O210    1.309   .     A
C149   C150    1.443   .     S
C149   C579    1.355   1_545 S
C149   C590    1.494   1_545 S
C150   O213    1.294   .     A
C150   O212    1.302   .     A
C151   O214    1.304   .     A
C151   O215    1.311   .     A
C151   C153    1.476   .     S
C152   H188    1.080   .     S
C152   C172    1.389   .     A
C152   C816    1.396   1_554 S
C153   C171    1.423   .     A
C153   C172    1.403   .     A
C154   O205    1.387   .     S
C154   C155    1.399   .     A
C155   C157    1.411   .     A
C155   H189    1.079   .     S
C156   C157    1.422   .     A
C156   C166    1.415   .     A
C156   C815    1.426   .     S
C157   O854    1.399   .     S
C158   O198    1.397   .     S
C158   O216    1.224   .     D
C158   C365    1.494   .     S
C159   O200    1.396   .     S
C159   O199    1.221   .     D
C160   O201    1.214   .     D
C160   O202    1.388   .     S
C160   N52     1.414   1_655 S
C161   O203    1.223   .     D
C161   O204    1.399   .     S
C161   C171    1.483   .     S
C162   H194    1.114   .     S
C162   H177    1.109   .     S
C162   H176    1.111   .     S
C162   O61     1.415   1_655 S
C163   H179    1.113   .     S
C163   O206    1.413   .     S
C163   H1258   1.107   1_544 S
C163   H612    1.109   1_545 S
C164   H182    1.113   .     S
C164   O207    1.409   .     S
C164   H181    1.112   .     S
C164   H183    1.106   .     S
C165   O209    1.413   .     S
C165   H187    1.105   .     S
C165   H616    1.107   1_545 S
C165   H617    1.105   1_545 S
C166   C170    1.422   .     A
C167   C171    1.419   .     A
C167   C804    1.426   1_554 S
C167   C816    1.412   1_554 S
C168   C169    1.393   .     A
C168   C815    1.412   .     S
C168   C800    1.396   .     S
C169   H186    1.084   .     S
C169   C170    1.395   .     A
C170   O207    1.380   .     S
C172   H175    1.084   .     S
Cu173  Cu174   2.713   .     S
Cu173  O212    1.964   .     S
Cu173  O197    1.970   .     S
Cu173  O214    1.965   .     S
Cu173  O210    1.970   .     S
Cu173  N196    2.039   .     S
Cu174  N195    2.039   .     S
Cu174  O211    1.965   .     S
Cu174  O215    1.970   .     S
Cu174  O208    1.964   .     S
Cu174  O213    1.970   .     S
H178   C1027   1.107   .     S
H180   C379    1.109   .     S
H184   C381    1.107   .     S
H185   C381    1.105   .     S
H190   O198    1.014   .     S
H191   O200    1.014   .     S
H192   O202    1.015   .     S
H193   O204    1.011   .     S
N195   C15     1.413   1_655 S
N195   N52     1.293   1_655 S
O206   C805    1.399   1_554 S
O209   C579    1.396   1_545 S
C217   O280    1.300   .     A
C217   O269    1.297   .     A
C217   C219    1.450   .     S
C218   C238    1.418   .     A
C218   C220    1.472   .     S
C218   C226    1.406   .     A
C219   C437    1.355   .     S
C219   O497    1.396   .     S
C220   O283    1.303   .     A
C220   O282    1.309   .     A
C221   C222    1.443   .     S
C222   O285    1.294   .     A
C222   O284    1.302   .     A
C223   O286    1.304   .     A
C223   O287    1.311   .     A
C223   C225    1.476   .     S
C224   H260    1.080   .     S
C224   C244    1.389   .     A
C224   C888    1.396   1_554 S
C225   C243    1.423   .     A
C225   C244    1.403   .     A
C226   O277    1.387   .     S
C226   C227    1.399   .     A
C227   C229    1.411   .     A
C227   H261    1.079   .     S
C228   C229    1.422   .     A
C228   C238    1.415   .     A
C228   C887    1.426   .     S
C229   O926    1.399   .     S
C230   O270    1.397   .     S
C230   O288    1.224   .     D
C230   C437    1.494   .     S
C231   O272    1.396   .     S
C231   O271    1.221   .     D
C231   N411    1.413   1_455 S
C232   O273    1.214   .     D
C232   O274    1.388   .     S
C232   N340    1.414   .     S
C233   O275    1.223   .     D
C233   O276    1.399   .     S
C233   C243    1.483   .     S
C234   H266    1.114   .     S
C234   H249    1.109   .     S
C234   H248    1.111   .     S
C234   O349    1.415   .     S
C235   H251    1.113   .     S
C235   O278    1.413   .     S
C235   H682    1.107   1_554 S
C236   H254    1.113   .     S
C236   O279    1.409   .     S
C236   H253    1.112   .     S
C236   H255    1.106   .     S
C237   O281    1.413   .     S
C237   H259    1.105   .     S
C238   C242    1.422   .     A
C239   C243    1.419   .     A
C239   C876    1.426   1_554 S
C239   C888    1.412   1_554 S
C240   C241    1.393   .     A
C240   C887    1.412   .     S
C240   C872    1.396   .     S
C241   H258    1.084   .     S
C241   C242    1.395   .     A
C242   O279    1.380   .     S
C244   H247    1.084   .     S
Cu245  Cu246   2.713   .     S
Cu245  O284    1.964   .     S
Cu245  O269    1.970   .     S
Cu245  O286    1.965   .     S
Cu245  O282    1.970   .     S
Cu245  N268    2.039   .     S
Cu246  N267    2.039   .     S
Cu246  O283    1.965   .     S
Cu246  O287    1.970   .     S
Cu246  O280    1.964   .     S
Cu246  O285    1.970   .     S
H250   C1099   1.107   .     S
H252   C451    1.109   .     S
H256   C453    1.107   .     S
H257   C453    1.105   .     S
H262   O270    1.014   .     S
H263   O272    1.014   .     S
H264   O274    1.015   .     S
H265   O276    1.011   .     S
N267   C303    1.413   .     S
N267   N340    1.293   .     S
N268   N411    1.293   1_455 S
N268   C376    1.414   1_455 S
O277   C378    1.415   1_455 S
O278   C877    1.399   1_554 S
C289   O352    1.300   .     A
C289   O341    1.297   .     A
C289   C291    1.450   .     S
C290   C310    1.418   .     A
C290   C292    1.472   .     S
C290   C298    1.406   .     A
C291   C509    1.355   .     S
C291   O569    1.396   .     S
C292   O355    1.303   .     A
C292   O354    1.309   .     A
C293   C294    1.443   .     S
C294   O357    1.294   .     A
C294   O356    1.302   .     A
C295   O358    1.304   .     A
C295   O359    1.311   .     A
C295   C297    1.476   .     S
C296   H332    1.080   .     S
C296   C316    1.389   .     A
C296   C960    1.396   1_554 S
C297   C315    1.423   .     A
C297   C316    1.403   .     A
C298   O349    1.387   .     S
C298   C299    1.399   .     A
C299   C301    1.411   .     A
C299   H333    1.079   .     S
C300   C301    1.422   .     A
C300   C310    1.415   .     A
C300   C959    1.426   .     S
C301   O998    1.399   .     S
C302   O342    1.397   .     S
C302   O360    1.224   .     D
C302   C509    1.494   .     S
C303   O344    1.396   .     S
C303   O343    1.221   .     D
C304   O345    1.214   .     D
C304   O346    1.388   .     S
C304   N412    1.414   .     S
C305   O347    1.223   .     D
C305   O348    1.399   .     S
C305   C315    1.483   .     S
C306   H338    1.114   .     S
C306   H321    1.109   .     S
C306   H320    1.111   .     S
C306   O421    1.415   .     S
C307   H323    1.113   .     S
C307   O350    1.413   .     S
C307   H754    1.107   1_554 S
C308   H326    1.113   .     S
C308   O351    1.409   .     S
C308   H325    1.112   .     S
C308   H327    1.106   .     S
C309   O353    1.413   .     S
C309   H331    1.105   .     S
C310   C314    1.422   .     A
C311   C315    1.419   .     A
C311   C948    1.426   1_554 S
C311   C960    1.412   1_554 S
C312   C313    1.393   .     A
C312   C959    1.412   .     S
C312   C944    1.396   .     S
C313   H330    1.084   .     S
C313   C314    1.395   .     A
C314   O351    1.380   .     S
C316   H319    1.084   .     S
Cu317  Cu318   2.713   .     S
Cu317  O356    1.964   .     S
Cu317  O341    1.970   .     S
Cu317  O358    1.965   .     S
Cu317  O354    1.970   .     S
Cu317  N340    2.039   .     S
Cu318  N339    2.039   .     S
Cu318  O355    1.965   .     S
Cu318  O359    1.970   .     S
Cu318  O352    1.964   .     S
Cu318  O357    1.970   .     S
H322   C1171   1.107   .     S
H324   C523    1.109   .     S
H328   C525    1.107   .     S
H329   C525    1.105   .     S
H334   O342    1.014   .     S
H335   O344    1.014   .     S
H336   O346    1.015   .     S
H337   O348    1.011   .     S
N339   C375    1.413   .     S
N339   N412    1.293   .     S
O350   C949    1.399   1_554 S
C361   O424    1.300   .     A
C361   O413    1.297   .     A
C361   C363    1.450   .     S
C362   C382    1.418   .     A
C362   C364    1.472   .     S
C362   C370    1.406   .     A
C363   C581    1.355   .     S
C363   O641    1.396   .     S
C364   O427    1.303   .     A
C364   O426    1.309   .     A
C365   C366    1.443   .     S
C366   O429    1.294   .     A
C366   O428    1.302   .     A
C367   O430    1.304   .     A
C367   O431    1.311   .     A
C367   C369    1.476   .     S
C368   H404    1.080   .     S
C368   C388    1.389   .     A
C368   C1032   1.396   1_554 S
C369   C387    1.423   .     A
C369   C388    1.403   .     A
C370   O421    1.387   .     S
C370   C371    1.399   .     A
C371   C373    1.411   .     A
C371   H405    1.079   .     S
C372   C373    1.422   .     A
C372   C382    1.415   .     A
C372   C1031   1.426   .     S
C373   O1070   1.399   .     S
C374   O414    1.397   .     S
C374   O432    1.224   .     D
C374   C581    1.494   .     S
C375   O416    1.396   .     S
C375   O415    1.221   .     D
C376   O417    1.214   .     D
C376   O418    1.388   .     S
C376   N268    1.414   1_655 S
C377   O419    1.223   .     D
C377   O420    1.399   .     S
C377   C387    1.483   .     S
C378   H410    1.114   .     S
C378   H393    1.109   .     S
C378   H392    1.111   .     S
C378   O277    1.415   1_655 S
C379   H395    1.113   .     S
C379   O422    1.413   .     S
C379   H826    1.107   1_554 S
C380   H398    1.113   .     S
C380   O423    1.409   .     S
C380   H397    1.112   .     S
C380   H399    1.106   .     S
C381   O425    1.413   .     S
C381   H403    1.105   .     S
C382   C386    1.422   .     A
C383   C387    1.419   .     A
C383   C1020   1.426   1_554 S
C383   C1032   1.412   1_554 S
C384   C385    1.393   .     A
C384   C1031   1.412   .     S
C384   C1016   1.396   .     S
C385   H402    1.084   .     S
C385   C386    1.395   .     A
C386   O423    1.380   .     S
C388   H391    1.084   .     S
Cu389  Cu390   2.713   .     S
Cu389  O428    1.964   .     S
Cu389  O413    1.970   .     S
Cu389  O430    1.965   .     S
Cu389  O426    1.970   .     S
Cu389  N412    2.039   .     S
Cu390  N411    2.039   .     S
Cu390  O427    1.965   .     S
Cu390  O431    1.970   .     S
Cu390  O424    1.964   .     S
Cu390  O429    1.970   .     S
H394   C1243   1.107   .     S
H396   C595    1.109   .     S
H400   C597    1.107   .     S
H401   C597    1.105   .     S
H406   O414    1.014   .     S
H407   O416    1.014   .     S
H408   O418    1.015   .     S
H409   O420    1.011   .     S
N411   C231    1.413   1_655 S
N411   N268    1.293   1_655 S
O422   C1021   1.399   1_554 S
C433   O496    1.300   .     A
C433   O485    1.297   .     A
C433   C435    1.450   .     S
C434   C454    1.418   .     A
C434   C436    1.472   .     S
C434   C442    1.406   .     A
C435   C5      1.355   1_565 S
C435   O65     1.396   1_565 S
C436   O499    1.303   .     A
C436   O498    1.309   .     A
C437   C438    1.443   .     S
C438   O501    1.294   .     A
C438   O500    1.302   .     A
C439   O502    1.304   .     A
C439   O503    1.311   .     A
C439   C441    1.476   .     S
C440   H476    1.080   .     S
C440   C460    1.389   .     A
C440   C1104   1.396   1_554 S
C441   C459    1.423   .     A
C441   C460    1.403   .     A
C442   O493    1.387   .     S
C442   C443    1.399   .     A
C443   C445    1.411   .     A
C443   H477    1.079   .     S
C444   C445    1.422   .     A
C444   C454    1.415   .     A
C444   C1103   1.426   .     S
C445   O1142   1.399   .     S
C446   O486    1.397   .     S
C446   O504    1.224   .     D
C446   C5      1.494   1_565 S
C447   O488    1.396   .     S
C447   O487    1.221   .     D
C447   N627    1.413   1_455 S
C448   O489    1.214   .     D
C448   O490    1.388   .     S
C448   N556    1.414   .     S
C449   O491    1.223   .     D
C449   O492    1.399   .     S
C449   C459    1.483   .     S
C450   H482    1.114   .     S
C450   H465    1.109   .     S
C450   H464    1.111   .     S
C450   O565    1.415   .     S
C451   H467    1.113   .     S
C451   O494    1.413   .     S
C451   H898    1.107   1_554 S
C452   H470    1.113   .     S
C452   O495    1.409   .     S
C452   H469    1.112   .     S
C452   H471    1.106   .     S
C453   O497    1.413   .     S
C453   H475    1.105   .     S
C454   C458    1.422   .     A
C455   C459    1.419   .     A
C455   C1092   1.426   1_554 S
C455   C1104   1.412   1_554 S
C456   C457    1.393   .     A
C456   C1103   1.412   .     S
C456   C1088   1.396   .     S
C457   H474    1.084   .     S
C457   C458    1.395   .     A
C458   O495    1.380   .     S
C460   H463    1.084   .     S
Cu461  Cu462   2.713   .     S
Cu461  O500    1.964   .     S
Cu461  O485    1.970   .     S
Cu461  O502    1.965   .     S
Cu461  O498    1.970   .     S
Cu461  N484    2.039   .     S
Cu462  N483    2.039   .     S
Cu462  O499    1.965   .     S
Cu462  O503    1.970   .     S
Cu462  O496    1.964   .     S
Cu462  O501    1.970   .     S
H466   C667    1.107   1_565 S
H468   C19     1.109   1_565 S
H472   C21     1.107   1_565 S
H473   C21     1.105   1_565 S
H478   O486    1.014   .     S
H479   O488    1.014   .     S
H480   O490    1.015   .     S
H481   O492    1.011   .     S
N483   C519    1.413   .     S
N483   N556    1.293   .     S
N484   N627    1.293   1_455 S
N484   C592    1.414   1_455 S
O493   C594    1.415   1_455 S
O494   C1093   1.399   1_554 S
C505   O568    1.300   .     A
C505   O557    1.297   .     A
C505   C507    1.450   .     S
C506   C526    1.418   .     A
C506   C508    1.472   .     S
C506   C514    1.406   .     A
C507   C77     1.355   1_565 S
C507   O137    1.396   1_565 S
C508   O571    1.303   .     A
C508   O570    1.309   .     A
C509   C510    1.443   .     S
C510   O573    1.294   .     A
C510   O572    1.302   .     A
C511   O574    1.304   .     A
C511   O575    1.311   .     A
C511   C513    1.476   .     S
C512   H548    1.080   .     S
C512   C532    1.389   .     A
C512   C1176   1.396   1_554 S
C513   C531    1.423   .     A
C513   C532    1.403   .     A
C514   O565    1.387   .     S
C514   C515    1.399   .     A
C515   C517    1.411   .     A
C515   H549    1.079   .     S
C516   C517    1.422   .     A
C516   C526    1.415   .     A
C516   C1175   1.426   .     S
C517   O1214   1.399   .     S
C518   O558    1.397   .     S
C518   O576    1.224   .     D
C518   C77     1.494   1_565 S
C519   O560    1.396   .     S
C519   O559    1.221   .     D
C520   O561    1.214   .     D
C520   O562    1.388   .     S
C520   N628    1.414   .     S
C521   O563    1.223   .     D
C521   O564    1.399   .     S
C521   C531    1.483   .     S
C522   H554    1.114   .     S
C522   H537    1.109   .     S
C522   H536    1.111   .     S
C522   O637    1.415   .     S
C523   H539    1.113   .     S
C523   O566    1.413   .     S
C523   H970    1.107   1_554 S
C524   H542    1.113   .     S
C524   O567    1.409   .     S
C524   H541    1.112   .     S
C524   H543    1.106   .     S
C525   O569    1.413   .     S
C525   H547    1.105   .     S
C526   C530    1.422   .     A
C527   C531    1.419   .     A
C527   C1164   1.426   1_554 S
C527   C1176   1.412   1_554 S
C528   C529    1.393   .     A
C528   C1175   1.412   .     S
C528   C1160   1.396   .     S
C529   H546    1.084   .     S
C529   C530    1.395   .     A
C530   O567    1.380   .     S
C532   H535    1.084   .     S
Cu533  Cu534   2.713   .     S
Cu533  O572    1.964   .     S
Cu533  O557    1.970   .     S
Cu533  O574    1.965   .     S
Cu533  O570    1.970   .     S
Cu533  N556    2.039   .     S
Cu534  N555    2.039   .     S
Cu534  O571    1.965   .     S
Cu534  O575    1.970   .     S
Cu534  O568    1.964   .     S
Cu534  O573    1.970   .     S
H538   C739    1.107   1_565 S
H540   C91     1.109   1_565 S
H544   C93     1.107   1_565 S
H545   C93     1.105   1_565 S
H550   O558    1.014   .     S
H551   O560    1.014   .     S
H552   O562    1.015   .     S
H553   O564    1.011   .     S
N555   C591    1.413   .     S
N555   N628    1.293   .     S
O566   C1165   1.399   1_554 S
C577   O640    1.300   .     A
C577   O629    1.297   .     A
C577   C579    1.450   .     S
C578   C598    1.418   .     A
C578   C580    1.472   .     S
C578   C586    1.406   .     A
C579   C149    1.355   1_565 S
C579   O209    1.396   1_565 S
C580   O643    1.303   .     A
C580   O642    1.309   .     A
C581   C582    1.443   .     S
C582   O645    1.294   .     A
C582   O644    1.302   .     A
C583   O646    1.304   .     A
C583   O647    1.311   .     A
C583   C585    1.476   .     S
C584   H620    1.080   .     S
C584   C604    1.389   .     A
C584   C1248   1.396   1_554 S
C585   C603    1.423   .     A
C585   C604    1.403   .     A
C586   O637    1.387   .     S
C586   C587    1.399   .     A
C587   C589    1.411   .     A
C587   H621    1.079   .     S
C588   C589    1.422   .     A
C588   C598    1.415   .     A
C588   C1247   1.426   .     S
C589   O1286   1.399   .     S
C590   O630    1.397   .     S
C590   O648    1.224   .     D
C590   C149    1.494   1_565 S
C591   O632    1.396   .     S
C591   O631    1.221   .     D
C592   O633    1.214   .     D
C592   O634    1.388   .     S
C592   N484    1.414   1_655 S
C593   O635    1.223   .     D
C593   O636    1.399   .     S
C593   C603    1.483   .     S
C594   H626    1.114   .     S
C594   H609    1.109   .     S
C594   H608    1.111   .     S
C594   O493    1.415   1_655 S
C595   H611    1.113   .     S
C595   O638    1.413   .     S
C595   H1042   1.107   1_554 S
C596   H614    1.113   .     S
C596   O639    1.409   .     S
C596   H613    1.112   .     S
C596   H615    1.106   .     S
C597   O641    1.413   .     S
C597   H619    1.105   .     S
C598   C602    1.422   .     A
C599   C603    1.419   .     A
C599   C1236   1.426   1_554 S
C599   C1248   1.412   1_554 S
C600   C601    1.393   .     A
C600   C1247   1.412   .     S
C600   C1232   1.396   .     S
C601   H618    1.084   .     S
C601   C602    1.395   .     A
C602   O639    1.380   .     S
C604   H607    1.084   .     S
Cu605  Cu606   2.713   .     S
Cu605  O644    1.964   .     S
Cu605  O629    1.970   .     S
Cu605  O646    1.965   .     S
Cu605  O642    1.970   .     S
Cu605  N628    2.039   .     S
Cu606  N627    2.039   .     S
Cu606  O643    1.965   .     S
Cu606  O647    1.970   .     S
Cu606  O640    1.964   .     S
Cu606  O645    1.970   .     S
H610   C811    1.107   1_565 S
H612   C163    1.109   1_565 S
H616   C165    1.107   1_565 S
H617   C165    1.105   1_565 S
H622   O630    1.014   .     S
H623   O632    1.014   .     S
H624   O634    1.015   .     S
H625   O636    1.011   .     S
N627   C447    1.413   1_655 S
N627   N484    1.293   1_655 S
O638   C1237   1.399   1_554 S
C649   O712    1.300   .     A
C649   O701    1.297   .     A
C649   C651    1.450   .     S
C650   C670    1.418   .     A
C650   C652    1.472   .     S
C650   C658    1.406   .     A
C651   C869    1.355   .     S
C651   O929    1.396   .     S
C652   O715    1.303   .     A
C652   O714    1.309   .     A
C653   C654    1.443   .     S
C653   C1083   1.355   1_545 S
C653   C1094   1.494   1_545 S
C654   O717    1.294   .     A
C654   O716    1.302   .     A
C655   O718    1.304   .     A
C655   O719    1.311   .     A
C655   C657    1.476   .     S
C656   H692    1.080   .     S
C656   C676    1.389   .     A
C657   C675    1.423   .     A
C657   C676    1.403   .     A
C658   O709    1.387   .     S
C658   C659    1.399   .     A
C659   C661    1.411   .     A
C659   H693    1.079   .     S
C660   C661    1.422   .     A
C660   C670    1.415   .     A
C660   C23     1.426   1_556 S
C661   O62     1.399   1_556 S
C662   O702    1.397   .     S
C662   O720    1.224   .     D
C662   C869    1.494   .     S
C663   O704    1.396   .     S
C663   O703    1.221   .     D
C663   N843    1.413   1_455 S
C664   O705    1.214   .     D
C664   O706    1.388   .     S
C664   N772    1.414   .     S
C665   O707    1.223   .     D
C665   O708    1.399   .     S
C665   C675    1.483   .     S
C666   H698    1.114   .     S
C666   H681    1.109   .     S
C666   H680    1.111   .     S
C666   O781    1.415   .     S
C667   H683    1.113   .     S
C667   O710    1.413   .     S
C667   H466    1.107   1_545 S
C667   H1116   1.109   1_545 S
C668   H686    1.113   .     S
C668   O711    1.409   .     S
C668   H685    1.112   .     S
C668   H687    1.106   .     S
C669   O713    1.413   .     S
C669   H691    1.105   .     S
C669   H1120   1.107   1_545 S
C669   H1121   1.105   1_545 S
C670   C674    1.422   .     A
C671   C675    1.419   .     A
C672   C673    1.393   .     A
C672   C23     1.412   1_556 S
C672   C8      1.396   1_556 S
C673   H690    1.084   .     S
C673   C674    1.395   .     A
C674   O711    1.380   .     S
C676   H679    1.084   .     S
Cu677  Cu678   2.713   .     S
Cu677  O716    1.964   .     S
Cu677  O701    1.970   .     S
Cu677  O718    1.965   .     S
Cu677  O714    1.970   .     S
Cu677  N700    2.039   .     S
Cu678  N699    2.039   .     S
Cu678  O715    1.965   .     S
Cu678  O719    1.970   .     S
Cu678  O712    1.964   .     S
Cu678  O717    1.970   .     S
H682   C235    1.107   1_556 S
H684   C883    1.109   .     S
H688   C885    1.107   .     S
H689   C885    1.105   .     S
H694   O702    1.014   .     S
H695   O704    1.014   .     S
H696   O706    1.015   .     S
H697   O708    1.011   .     S
N699   C735    1.413   .     S
N699   N772    1.293   .     S
N700   N843    1.293   1_455 S
N700   C808    1.414   1_455 S
O709   C810    1.415   1_455 S
O713   C1083   1.396   1_545 S
C721   O784    1.300   .     A
C721   O773    1.297   .     A
C721   C723    1.450   .     S
C722   C742    1.418   .     A
C722   C724    1.472   .     S
C722   C730    1.406   .     A
C723   C941    1.355   .     S
C723   O1001   1.396   .     S
C724   O787    1.303   .     A
C724   O786    1.309   .     A
C725   C726    1.443   .     S
C725   C1155   1.355   1_545 S
C725   C1166   1.494   1_545 S
C726   O789    1.294   .     A
C726   O788    1.302   .     A
C727   O790    1.304   .     A
C727   O791    1.311   .     A
C727   C729    1.476   .     S
C728   H764    1.080   .     S
C728   C748    1.389   .     A
C729   C747    1.423   .     A
C729   C748    1.403   .     A
C730   O781    1.387   .     S
C730   C731    1.399   .     A
C731   C733    1.411   .     A
C731   H765    1.079   .     S
C732   C733    1.422   .     A
C732   C742    1.415   .     A
C732   C95     1.426   1_556 S
C733   O134    1.399   1_556 S
C734   O774    1.397   .     S
C734   O792    1.224   .     D
C734   C941    1.494   .     S
C735   O776    1.396   .     S
C735   O775    1.221   .     D
C736   O777    1.214   .     D
C736   O778    1.388   .     S
C736   N844    1.414   .     S
C737   O779    1.223   .     D
C737   O780    1.399   .     S
C737   C747    1.483   .     S
C738   H770    1.114   .     S
C738   H753    1.109   .     S
C738   H752    1.111   .     S
C738   O853    1.415   .     S
C739   H755    1.113   .     S
C739   O782    1.413   .     S
C739   H538    1.107   1_545 S
C739   H1188   1.109   1_545 S
C740   H758    1.113   .     S
C740   O783    1.409   .     S
C740   H757    1.112   .     S
C740   H759    1.106   .     S
C741   O785    1.413   .     S
C741   H763    1.105   .     S
C741   H1192   1.107   1_545 S
C741   H1193   1.105   1_545 S
C742   C746    1.422   .     A
C743   C747    1.419   .     A
C744   C745    1.393   .     A
C744   C95     1.412   1_556 S
C744   C80     1.396   1_556 S
C745   H762    1.084   .     S
C745   C746    1.395   .     A
C746   O783    1.380   .     S
C748   H751    1.084   .     S
Cu749  Cu750   2.713   .     S
Cu749  O788    1.964   .     S
Cu749  O773    1.970   .     S
Cu749  O790    1.965   .     S
Cu749  O786    1.970   .     S
Cu749  N772    2.039   .     S
Cu750  N771    2.039   .     S
Cu750  O787    1.965   .     S
Cu750  O791    1.970   .     S
Cu750  O784    1.964   .     S
Cu750  O789    1.970   .     S
H754   C307    1.107   1_556 S
H756   C955    1.109   .     S
H760   C957    1.107   .     S
H761   C957    1.105   .     S
H766   O774    1.014   .     S
H767   O776    1.014   .     S
H768   O778    1.015   .     S
H769   O780    1.011   .     S
N771   C807    1.413   .     S
N771   N844    1.293   .     S
O785   C1155   1.396   1_545 S
C793   O856    1.300   .     A
C793   O845    1.297   .     A
C793   C795    1.450   .     S
C794   C814    1.418   .     A
C794   C796    1.472   .     S
C794   C802    1.406   .     A
C795   C1013   1.355   .     S
C795   O1073   1.396   .     S
C796   O859    1.303   .     A
C796   O858    1.309   .     A
C797   C798    1.443   .     S
C797   C1227   1.355   1_545 S
C797   C1238   1.494   1_545 S
C798   O861    1.294   .     A
C798   O860    1.302   .     A
C799   O862    1.304   .     A
C799   O863    1.311   .     A
C799   C801    1.476   .     S
C800   H836    1.080   .     S
C800   C820    1.389   .     A
C801   C819    1.423   .     A
C801   C820    1.403   .     A
C802   O853    1.387   .     S
C802   C803    1.399   .     A
C803   C805    1.411   .     A
C803   H837    1.079   .     S
C804   C805    1.422   .     A
C804   C814    1.415   .     A
C804   C167    1.426   1_556 S
C805   O206    1.399   1_556 S
C806   O846    1.397   .     S
C806   O864    1.224   .     D
C806   C1013   1.494   .     S
C807   O848    1.396   .     S
C807   O847    1.221   .     D
C808   O849    1.214   .     D
C808   O850    1.388   .     S
C808   N700    1.414   1_655 S
C809   O851    1.223   .     D
C809   O852    1.399   .     S
C809   C819    1.483   .     S
C810   H842    1.114   .     S
C810   H825    1.109   .     S
C810   H824    1.111   .     S
C810   O709    1.415   1_655 S
C811   H827    1.113   .     S
C811   O854    1.413   .     S
C811   H610    1.107   1_545 S
C811   H1260   1.109   1_545 S
C812   H830    1.113   .     S
C812   O855    1.409   .     S
C812   H829    1.112   .     S
C812   H831    1.106   .     S
C813   O857    1.413   .     S
C813   H835    1.105   .     S
C813   H1264   1.107   1_545 S
C813   H1265   1.105   1_545 S
C814   C818    1.422   .     A
C815   C819    1.419   .     A
C816   C817    1.393   .     A
C816   C167    1.412   1_556 S
C816   C152    1.396   1_556 S
C817   H834    1.084   .     S
C817   C818    1.395   .     A
C818   O855    1.380   .     S
C820   H823    1.084   .     S
Cu821  Cu822   2.713   .     S
Cu821  O860    1.964   .     S
Cu821  O845    1.970   .     S
Cu821  O862    1.965   .     S
Cu821  O858    1.970   .     S
Cu821  N844    2.039   .     S
Cu822  N843    2.039   .     S
Cu822  O859    1.965   .     S
Cu822  O863    1.970   .     S
Cu822  O856    1.964   .     S
Cu822  O861    1.970   .     S
H826   C379    1.107   1_556 S
H828   C1027   1.109   .     S
H832   C1029   1.107   .     S
H833   C1029   1.105   .     S
H838   O846    1.014   .     S
H839   O848    1.014   .     S
H840   O850    1.015   .     S
H841   O852    1.011   .     S
N843   C663    1.413   1_655 S
N843   N700    1.293   1_655 S
O857   C1227   1.396   1_545 S
C865   O928    1.300   .     A
C865   O917    1.297   .     A
C865   C867    1.450   .     S
C866   C886    1.418   .     A
C866   C868    1.472   .     S
C866   C874    1.406   .     A
C867   C1085   1.355   .     S
C867   O1145   1.396   .     S
C868   O931    1.303   .     A
C868   O930    1.309   .     A
C869   C870    1.443   .     S
C870   O933    1.294   .     A
C870   O932    1.302   .     A
C871   O934    1.304   .     A
C871   O935    1.311   .     A
C871   C873    1.476   .     S
C872   H908    1.080   .     S
C872   C892    1.389   .     A
C873   C891    1.423   .     A
C873   C892    1.403   .     A
C874   O925    1.387   .     S
C874   C875    1.399   .     A
C875   C877    1.411   .     A
C875   H909    1.079   .     S
C876   C877    1.422   .     A
C876   C886    1.415   .     A
C876   C239    1.426   1_556 S
C877   O278    1.399   1_556 S
C878   O918    1.397   .     S
C878   O936    1.224   .     D
C878   C1085   1.494   .     S
C879   O920    1.396   .     S
C879   O919    1.221   .     D
C879   N1059   1.413   1_455 S
C880   O921    1.214   .     D
C880   O922    1.388   .     S
C880   N988    1.414   .     S
C881   O923    1.223   .     D
C881   O924    1.399   .     S
C881   C891    1.483   .     S
C882   H914    1.114   .     S
C882   H897    1.109   .     S
C882   H896    1.111   .     S
C882   O997    1.415   .     S
C883   H899    1.113   .     S
C883   O926    1.413   .     S
C884   H902    1.113   .     S
C884   O927    1.409   .     S
C884   H901    1.112   .     S
C884   H903    1.106   .     S
C885   O929    1.413   .     S
C885   H907    1.105   .     S
C886   C890    1.422   .     A
C887   C891    1.419   .     A
C888   C889    1.393   .     A
C888   C239    1.412   1_556 S
C888   C224    1.396   1_556 S
C889   H906    1.084   .     S
C889   C890    1.395   .     A
C890   O927    1.380   .     S
C892   H895    1.084   .     S
Cu893  Cu894   2.713   .     S
Cu893  O932    1.964   .     S
Cu893  O917    1.970   .     S
Cu893  O934    1.965   .     S
Cu893  O930    1.970   .     S
Cu893  N916    2.039   .     S
Cu894  N915    2.039   .     S
Cu894  O931    1.965   .     S
Cu894  O935    1.970   .     S
Cu894  O928    1.964   .     S
Cu894  O933    1.970   .     S
H898   C451    1.107   1_556 S
H900   C1099   1.109   .     S
H904   C1101   1.107   .     S
H905   C1101   1.105   .     S
H910   O918    1.014   .     S
H911   O920    1.014   .     S
H912   O922    1.015   .     S
H913   O924    1.011   .     S
N915   C951    1.413   .     S
N915   N988    1.293   .     S
N916   N1059   1.293   1_455 S
N916   C1024   1.414   1_455 S
O925   C1026   1.415   1_455 S
C937   O1000   1.300   .     A
C937   O989    1.297   .     A
C937   C939    1.450   .     S
C938   C958    1.418   .     A
C938   C940    1.472   .     S
C938   C946    1.406   .     A
C939   C1157   1.355   .     S
C939   O1217   1.396   .     S
C940   O1003   1.303   .     A
C940   O1002   1.309   .     A
C941   C942    1.443   .     S
C942   O1005   1.294   .     A
C942   O1004   1.302   .     A
C943   O1006   1.304   .     A
C943   O1007   1.311   .     A
C943   C945    1.476   .     S
C944   H980    1.080   .     S
C944   C964    1.389   .     A
C945   C963    1.423   .     A
C945   C964    1.403   .     A
C946   O997    1.387   .     S
C946   C947    1.399   .     A
C947   C949    1.411   .     A
C947   H981    1.079   .     S
C948   C949    1.422   .     A
C948   C958    1.415   .     A
C948   C311    1.426   1_556 S
C949   O350    1.399   1_556 S
C950   O990    1.397   .     S
C950   O1008   1.224   .     D
C950   C1157   1.494   .     S
C951   O992    1.396   .     S
C951   O991    1.221   .     D
C952   O993    1.214   .     D
C952   O994    1.388   .     S
C952   N1060   1.414   .     S
C953   O995    1.223   .     D
C953   O996    1.399   .     S
C953   C963    1.483   .     S
C954   H986    1.114   .     S
C954   H969    1.109   .     S
C954   H968    1.111   .     S
C954   O1069   1.415   .     S
C955   H971    1.113   .     S
C955   O998    1.413   .     S
C956   H974    1.113   .     S
C956   O999    1.409   .     S
C956   H973    1.112   .     S
C956   H975    1.106   .     S
C957   O1001   1.413   .     S
C957   H979    1.105   .     S
C958   C962    1.422   .     A
C959   C963    1.419   .     A
C960   C961    1.393   .     A
C960   C311    1.412   1_556 S
C960   C296    1.396   1_556 S
C961   H978    1.084   .     S
C961   C962    1.395   .     A
C962   O999    1.380   .     S
C964   H967    1.084   .     S
Cu965  Cu966   2.713   .     S
Cu965  O1004   1.964   .     S
Cu965  O989    1.970   .     S
Cu965  O1006   1.965   .     S
Cu965  O1002   1.970   .     S
Cu965  N988    2.039   .     S
Cu966  N987    2.039   .     S
Cu966  O1003   1.965   .     S
Cu966  O1007   1.970   .     S
Cu966  O1000   1.964   .     S
Cu966  O1005   1.970   .     S
H970   C523    1.107   1_556 S
H972   C1171   1.109   .     S
H976   C1173   1.107   .     S
H977   C1173   1.105   .     S
H982   O990    1.014   .     S
H983   O992    1.014   .     S
H984   O994    1.015   .     S
H985   O996    1.011   .     S
N987   C1023   1.413   .     S
N987   N1060   1.293   .     S
C1009  O1072   1.300   .     A
C1009  O1061   1.297   .     A
C1009  C1011   1.450   .     S
C1010  C1030   1.418   .     A
C1010  C1012   1.472   .     S
C1010  C1018   1.406   .     A
C1011  C1229   1.355   .     S
C1011  O1289   1.396   .     S
C1012  O1075   1.303   .     A
C1012  O1074   1.309   .     A
C1013  C1014   1.443   .     S
C1014  O1077   1.294   .     A
C1014  O1076   1.302   .     A
C1015  O1078   1.304   .     A
C1015  O1079   1.311   .     A
C1015  C1017   1.476   .     S
C1016  H1052   1.080   .     S
C1016  C1036   1.389   .     A
C1017  C1035   1.423   .     A
C1017  C1036   1.403   .     A
C1018  O1069   1.387   .     S
C1018  C1019   1.399   .     A
C1019  C1021   1.411   .     A
C1019  H1053   1.079   .     S
C1020  C1021   1.422   .     A
C1020  C1030   1.415   .     A
C1020  C383    1.426   1_556 S
C1021  O422    1.399   1_556 S
C1022  O1062   1.397   .     S
C1022  O1080   1.224   .     D
C1022  C1229   1.494   .     S
C1023  O1064   1.396   .     S
C1023  O1063   1.221   .     D
C1024  O1065   1.214   .     D
C1024  O1066   1.388   .     S
C1024  N916    1.414   1_655 S
C1025  O1067   1.223   .     D
C1025  O1068   1.399   .     S
C1025  C1035   1.483   .     S
C1026  H1058   1.114   .     S
C1026  H1041   1.109   .     S
C1026  H1040   1.111   .     S
C1026  O925    1.415   1_655 S
C1027  H1043   1.113   .     S
C1027  O1070   1.413   .     S
C1028  H1046   1.113   .     S
C1028  O1071   1.409   .     S
C1028  H1045   1.112   .     S
C1028  H1047   1.106   .     S
C1029  O1073   1.413   .     S
C1029  H1051   1.105   .     S
C1030  C1034   1.422   .     A
C1031  C1035   1.419   .     A
C1032  C1033   1.393   .     A
C1032  C383    1.412   1_556 S
C1032  C368    1.396   1_556 S
C1033  H1050   1.084   .     S
C1033  C1034   1.395   .     A
C1034  O1071   1.380   .     S
C1036  H1039   1.084   .     S
Cu1037 Cu1038  2.713   .     S
Cu1037 O1076   1.964   .     S
Cu1037 O1061   1.970   .     S
Cu1037 O1078   1.965   .     S
Cu1037 O1074   1.970   .     S
Cu1037 N1060   2.039   .     S
Cu1038 N1059   2.039   .     S
Cu1038 O1075   1.965   .     S
Cu1038 O1079   1.970   .     S
Cu1038 O1072   1.964   .     S
Cu1038 O1077   1.970   .     S
H1042  C595    1.107   1_556 S
H1044  C1243   1.109   .     S
H1048  C1245   1.107   .     S
H1049  C1245   1.105   .     S
H1054  O1062   1.014   .     S
H1055  O1064   1.014   .     S
H1056  O1066   1.015   .     S
H1057  O1068   1.011   .     S
N1059  C879    1.413   1_655 S
N1059  N916    1.293   1_655 S
C1081  O1144   1.300   .     A
C1081  O1133   1.297   .     A
C1081  C1083   1.450   .     S
C1082  C1102   1.418   .     A
C1082  C1084   1.472   .     S
C1082  C1090   1.406   .     A
C1083  C653    1.355   1_565 S
C1083  O713    1.396   1_565 S
C1084  O1147   1.303   .     A
C1084  O1146   1.309   .     A
C1085  C1086   1.443   .     S
C1086  O1149   1.294   .     A
C1086  O1148   1.302   .     A
C1087  O1150   1.304   .     A
C1087  O1151   1.311   .     A
C1087  C1089   1.476   .     S
C1088  H1124   1.080   .     S
C1088  C1108   1.389   .     A
C1089  C1107   1.423   .     A
C1089  C1108   1.403   .     A
C1090  O1141   1.387   .     S
C1090  C1091   1.399   .     A
C1091  C1093   1.411   .     A
C1091  H1125   1.079   .     S
C1092  C1093   1.422   .     A
C1092  C1102   1.415   .     A
C1092  C455    1.426   1_556 S
C1093  O494    1.399   1_556 S
C1094  O1134   1.397   .     S
C1094  O1152   1.224   .     D
C1094  C653    1.494   1_565 S
C1095  O1136   1.396   .     S
C1095  O1135   1.221   .     D
C1095  N1275   1.413   1_455 S
C1096  O1137   1.214   .     D
C1096  O1138   1.388   .     S
C1096  N1204   1.414   .     S
C1097  O1139   1.223   .     D
C1097  O1140   1.399   .     S
C1097  C1107   1.483   .     S
C1098  H1130   1.114   .     S
C1098  H1113   1.109   .     S
C1098  H1112   1.111   .     S
C1098  O1213   1.415   .     S
C1099  H1115   1.113   .     S
C1099  O1142   1.413   .     S
C1100  H1118   1.113   .     S
C1100  O1143   1.409   .     S
C1100  H1117   1.112   .     S
C1100  H1119   1.106   .     S
C1101  O1145   1.413   .     S
C1101  H1123   1.105   .     S
C1102  C1106   1.422   .     A
C1103  C1107   1.419   .     A
C1104  C1105   1.393   .     A
C1104  C455    1.412   1_556 S
C1104  C440    1.396   1_556 S
C1105  H1122   1.084   .     S
C1105  C1106   1.395   .     A
C1106  O1143   1.380   .     S
C1108  H1111   1.084   .     S
Cu1109 Cu1110  2.713   .     S
Cu1109 O1148   1.964   .     S
Cu1109 O1133   1.970   .     S
Cu1109 O1150   1.965   .     S
Cu1109 O1146   1.970   .     S
Cu1109 N1132   2.039   .     S
Cu1110 N1131   2.039   .     S
Cu1110 O1147   1.965   .     S
Cu1110 O1151   1.970   .     S
Cu1110 O1144   1.964   .     S
Cu1110 O1149   1.970   .     S
H1114  C19     1.107   1_566 S
H1116  C667    1.109   1_565 S
H1120  C669    1.107   1_565 S
H1121  C669    1.105   1_565 S
H1126  O1134   1.014   .     S
H1127  O1136   1.014   .     S
H1128  O1138   1.015   .     S
H1129  O1140   1.011   .     S
N1131  C1167   1.413   .     S
N1131  N1204   1.293   .     S
N1132  N1275   1.293   1_455 S
N1132  C1240   1.414   1_455 S
O1141  C1242   1.415   1_455 S
C1153  O1216   1.300   .     A
C1153  O1205   1.297   .     A
C1153  C1155   1.450   .     S
C1154  C1174   1.418   .     A
C1154  C1156   1.472   .     S
C1154  C1162   1.406   .     A
C1155  C725    1.355   1_565 S
C1155  O785    1.396   1_565 S
C1156  O1219   1.303   .     A
C1156  O1218   1.309   .     A
C1157  C1158   1.443   .     S
C1158  O1221   1.294   .     A
C1158  O1220   1.302   .     A
C1159  O1222   1.304   .     A
C1159  O1223   1.311   .     A
C1159  C1161   1.476   .     S
C1160  H1196   1.080   .     S
C1160  C1180   1.389   .     A
C1161  C1179   1.423   .     A
C1161  C1180   1.403   .     A
C1162  O1213   1.387   .     S
C1162  C1163   1.399   .     A
C1163  C1165   1.411   .     A
C1163  H1197   1.079   .     S
C1164  C1165   1.422   .     A
C1164  C1174   1.415   .     A
C1164  C527    1.426   1_556 S
C1165  O566    1.399   1_556 S
C1166  O1206   1.397   .     S
C1166  O1224   1.224   .     D
C1166  C725    1.494   1_565 S
C1167  O1208   1.396   .     S
C1167  O1207   1.221   .     D
C1168  O1209   1.214   .     D
C1168  O1210   1.388   .     S
C1168  N1276   1.414   .     S
C1169  O1211   1.223   .     D
C1169  O1212   1.399   .     S
C1169  C1179   1.483   .     S
C1170  H1202   1.114   .     S
C1170  H1185   1.109   .     S
C1170  H1184   1.111   .     S
C1170  O1285   1.415   .     S
C1171  H1187   1.113   .     S
C1171  O1214   1.413   .     S
C1172  H1190   1.113   .     S
C1172  O1215   1.409   .     S
C1172  H1189   1.112   .     S
C1172  H1191   1.106   .     S
C1173  O1217   1.413   .     S
C1173  H1195   1.105   .     S
C1174  C1178   1.422   .     A
C1175  C1179   1.419   .     A
C1176  C1177   1.393   .     A
C1176  C527    1.412   1_556 S
C1176  C512    1.396   1_556 S
C1177  H1194   1.084   .     S
C1177  C1178   1.395   .     A
C1178  O1215   1.380   .     S
C1180  H1183   1.084   .     S
Cu1181 Cu1182  2.713   .     S
Cu1181 O1220   1.964   .     S
Cu1181 O1205   1.970   .     S
Cu1181 O1222   1.965   .     S
Cu1181 O1218   1.970   .     S
Cu1181 N1204   2.039   .     S
Cu1182 N1203   2.039   .     S
Cu1182 O1219   1.965   .     S
Cu1182 O1223   1.970   .     S
Cu1182 O1216   1.964   .     S
Cu1182 O1221   1.970   .     S
H1186  C91     1.107   1_566 S
H1188  C739    1.109   1_565 S
H1192  C741    1.107   1_565 S
H1193  C741    1.105   1_565 S
H1198  O1206   1.014   .     S
H1199  O1208   1.014   .     S
H1200  O1210   1.015   .     S
H1201  O1212   1.011   .     S
N1203  C1239   1.413   .     S
N1203  N1276   1.293   .     S
C1225  O1288   1.300   .     A
C1225  O1277   1.297   .     A
C1225  C1227   1.450   .     S
C1226  C1246   1.418   .     A
C1226  C1228   1.472   .     S
C1226  C1234   1.406   .     A
C1227  C797    1.355   1_565 S
C1227  O857    1.396   1_565 S
C1228  O1291   1.303   .     A
C1228  O1290   1.309   .     A
C1229  C1230   1.443   .     S
C1230  O1293   1.294   .     A
C1230  O1292   1.302   .     A
C1231  O1294   1.304   .     A
C1231  O1295   1.311   .     A
C1231  C1233   1.476   .     S
C1232  H1268   1.080   .     S
C1232  C1252   1.389   .     A
C1233  C1251   1.423   .     A
C1233  C1252   1.403   .     A
C1234  O1285   1.387   .     S
C1234  C1235   1.399   .     A
C1235  C1237   1.411   .     A
C1235  H1269   1.079   .     S
C1236  C1237   1.422   .     A
C1236  C1246   1.415   .     A
C1236  C599    1.426   1_556 S
C1237  O638    1.399   1_556 S
C1238  O1278   1.397   .     S
C1238  O1296   1.224   .     D
C1238  C797    1.494   1_565 S
C1239  O1280   1.396   .     S
C1239  O1279   1.221   .     D
C1240  O1281   1.214   .     D
C1240  O1282   1.388   .     S
C1240  N1132   1.414   1_655 S
C1241  O1283   1.223   .     D
C1241  O1284   1.399   .     S
C1241  C1251   1.483   .     S
C1242  H1274   1.114   .     S
C1242  H1257   1.109   .     S
C1242  H1256   1.111   .     S
C1242  O1141   1.415   1_655 S
C1243  H1259   1.113   .     S
C1243  O1286   1.413   .     S
C1244  H1262   1.113   .     S
C1244  O1287   1.409   .     S
C1244  H1261   1.112   .     S
C1244  H1263   1.106   .     S
C1245  O1289   1.413   .     S
C1245  H1267   1.105   .     S
C1246  C1250   1.422   .     A
C1247  C1251   1.419   .     A
C1248  C1249   1.393   .     A
C1248  C599    1.412   1_556 S
C1248  C584    1.396   1_556 S
C1249  H1266   1.084   .     S
C1249  C1250   1.395   .     A
C1250  O1287   1.380   .     S
C1252  H1255   1.084   .     S
Cu1253 Cu1254  2.713   .     S
Cu1253 O1292   1.964   .     S
Cu1253 O1277   1.970   .     S
Cu1253 O1294   1.965   .     S
Cu1253 O1290   1.970   .     S
Cu1253 N1276   2.039   .     S
Cu1254 N1275   2.039   .     S
Cu1254 O1291   1.965   .     S
Cu1254 O1295   1.970   .     S
Cu1254 O1288   1.964   .     S
Cu1254 O1293   1.970   .     S
H1258  C163    1.107   1_566 S
H1260  C811    1.109   1_565 S
H1264  C813    1.107   1_565 S
H1265  C813    1.105   1_565 S
H1270  O1278   1.014   .     S
H1271  O1280   1.014   .     S
H1272  O1282   1.015   .     S
H1273  O1284   1.011   .     S
N1275  C1095   1.413   1_655 S
N1275  N1132   1.293   1_655 S
