data_str_m3_o10_o16_pcu_sym.128
_audit_creation_date              2020-01-03
_audit_creation_method            'Materials Studio'
_symmetry_space_group_name_H-M    'P1'
_symmetry_Int_Tables_number       1
_symmetry_cell_setting            triclinic
loop_
_symmetry_equiv_pos_as_xyz
  x,y,z
_cell_length_a                    23.5401
_cell_length_b                    25.7691
_cell_length_c                    24.9111
_cell_angle_alpha                 92.6981
_cell_angle_beta                  102.4803
_cell_angle_gamma                 93.8065
loop_
_atom_site_label
_atom_site_type_symbol
_atom_site_fract_x
_atom_site_fract_y
_atom_site_fract_z
_atom_site_U_iso_or_equiv
_atom_site_adp_type
_atom_site_occupancy
O1     O     0.29769   0.24629   0.25358   0.00000  Uiso   1.00
O2     O     0.05742   0.23704   0.24424   0.00000  Uiso   1.00
C3     C     0.01380   0.26458   0.24651   0.00000  Uiso   1.00
O4     O     0.31490   0.17358   0.33380   0.00000  Uiso   1.00
O5     O     0.07463   0.16433   0.32446   0.00000  Uiso   1.00
C6     C     0.03818   0.17871   0.35340   0.00000  Uiso   1.00
Zn7    Zn    0.27119   0.17284   0.25624   0.00000  Uiso   1.00
Zn8    Zn    0.06214   0.16049   0.24377   0.00000  Uiso   1.00
O9     O     0.27592   0.09629   0.25577   0.00000  Uiso   1.00
O10    O     0.03565   0.08704   0.24643   0.00000  Uiso   1.00
O11    O     0.25870   0.16901   0.17554   0.00000  Uiso   1.00
O12    O     0.01843   0.15976   0.16620   0.00000  Uiso   1.00
C13    C     0.31763   0.06849   0.24831   0.00000  Uiso   1.00
C14    C     0.29656   0.16189   0.14556   0.00000  Uiso   1.00
C15    C     0.28183   0.13601   0.49317   0.00000  Uiso   1.00
H16    H     0.24158   0.15960   0.39035   0.00000  Uiso   1.00
H17    H     0.30462   0.11866   0.46416   0.00000  Uiso   1.00
C18    C     0.27543   0.15930   0.08640   0.00000  Uiso   1.00
C19    C     0.02780   0.21964   0.44351   0.00000  Uiso   1.00
C20    C     0.04949   0.22947   0.49995   0.00000  Uiso   1.00
C21    C     0.10571   0.21698   0.02406   0.00000  Uiso   1.00
C22    C     0.14354   0.20006   0.49072   0.00000  Uiso   1.00
C23    C     0.12381   0.19900   0.43324   0.00000  Uiso   1.00
C24    C     0.19935   0.18202   0.01134   0.00000  Uiso   1.00
C25    C     0.23166   0.16173   0.47425   0.00000  Uiso   1.00
C26    C     0.21514   0.17027   0.41891   0.00000  Uiso   1.00
C27    C     0.16521   0.19488   0.40048   0.00000  Uiso   1.00
C28    C     0.22352   0.18239   0.06713   0.00000  Uiso   1.00
C29    C     0.30374   0.13399   0.04936   0.00000  Uiso   1.00
C30    C     0.06341   0.19997   0.41041   0.00000  Uiso   1.00
H31    H     0.20306   0.20164   0.09640   0.00000  Uiso   1.00
H32    H     0.31651   0.22684   0.42594   0.00000  Uiso   1.00
H33    H     0.11784   0.22082   0.06840   0.00000  Uiso   1.00
H34    H     0.02137   0.24373   0.02555   0.00000  Uiso   1.00
H35    H     0.15868   0.20936   0.36014   0.00000  Uiso   1.00
C36    C     0.02050   0.31919   0.24629   0.00000  Uiso   1.00
H37    H     0.06494   0.00329   0.25938   0.00000  Uiso   1.00
C38    C     0.30686   0.01404   0.23815   0.00000  Uiso   1.00
N39    N     0.14493   0.15223   0.23543   0.00000  Uiso   1.00
N40    N     0.18840   0.18110   0.26458   0.00000  Uiso   1.00
H41    H     0.17681   0.21633   0.27811   0.00000  Uiso   1.00
C42    C     0.02123   0.10558   0.06724   0.00000  Uiso   1.00
N43    N     0.06186   0.08257   0.08119   0.00000  Uiso   1.00
C44    C     0.24732   0.32667   0.21355   0.00000  Uiso   1.00
N45    N     0.20016   0.30998   0.19381   0.00000  Uiso   1.00
N46    N     0.15898   0.10308   0.22073   0.00000  Uiso   1.00
O47    O     0.15479   0.06535   0.25286   0.00000  Uiso   1.00
O48    O     0.16575   0.09254   0.17107   0.00000  Uiso   1.00
O49    O     0.63102   0.24629   0.25358   0.00000  Uiso   1.00
O50    O     0.39075   0.23704   0.24424   0.00000  Uiso   1.00
C51    C     0.34714   0.26458   0.24651   0.00000  Uiso   1.00
O52    O     0.64823   0.17358   0.33380   0.00000  Uiso   1.00
O53    O     0.40796   0.16433   0.32446   0.00000  Uiso   1.00
C54    C     0.37151   0.17871   0.35340   0.00000  Uiso   1.00
Zn55   Zn    0.60453   0.17284   0.25624   0.00000  Uiso   1.00
Zn56   Zn    0.39547   0.16049   0.24377   0.00000  Uiso   1.00
O57    O     0.60925   0.09629   0.25577   0.00000  Uiso   1.00
O58    O     0.36898   0.08704   0.24643   0.00000  Uiso   1.00
O59    O     0.59204   0.16901   0.17554   0.00000  Uiso   1.00
O60    O     0.35177   0.15976   0.16620   0.00000  Uiso   1.00
C61    C     0.65096   0.06849   0.24831   0.00000  Uiso   1.00
C62    C     0.62990   0.16189   0.14556   0.00000  Uiso   1.00
C63    C     0.61517   0.13601   0.49317   0.00000  Uiso   1.00
H64    H     0.57491   0.15960   0.39035   0.00000  Uiso   1.00
H65    H     0.63796   0.11866   0.46416   0.00000  Uiso   1.00
C66    C     0.60876   0.15930   0.08640   0.00000  Uiso   1.00
C67    C     0.36113   0.21964   0.44351   0.00000  Uiso   1.00
C68    C     0.38283   0.22947   0.49995   0.00000  Uiso   1.00
C69    C     0.43904   0.21698   0.02406   0.00000  Uiso   1.00
C70    C     0.47687   0.20006   0.49072   0.00000  Uiso   1.00
C71    C     0.45715   0.19900   0.43324   0.00000  Uiso   1.00
C72    C     0.53268   0.18202   0.01134   0.00000  Uiso   1.00
C73    C     0.56500   0.16173   0.47425   0.00000  Uiso   1.00
C74    C     0.54847   0.17027   0.41891   0.00000  Uiso   1.00
C75    C     0.49855   0.19488   0.40048   0.00000  Uiso   1.00
C76    C     0.55685   0.18239   0.06713   0.00000  Uiso   1.00
C77    C     0.63707   0.13399   0.04936   0.00000  Uiso   1.00
C78    C     0.39674   0.19997   0.41041   0.00000  Uiso   1.00
H79    H     0.53640   0.20164   0.09640   0.00000  Uiso   1.00
H80    H     0.64985   0.22684   0.42594   0.00000  Uiso   1.00
H81    H     0.45117   0.22082   0.06840   0.00000  Uiso   1.00
H82    H     0.35471   0.24373   0.02555   0.00000  Uiso   1.00
H83    H     0.49201   0.20936   0.36014   0.00000  Uiso   1.00
C84    C     0.35383   0.31919   0.24629   0.00000  Uiso   1.00
H85    H     0.39827   0.00329   0.25938   0.00000  Uiso   1.00
C86    C     0.64019   0.01404   0.23815   0.00000  Uiso   1.00
N87    N     0.47827   0.15223   0.23543   0.00000  Uiso   1.00
N88    N     0.52173   0.18110   0.26458   0.00000  Uiso   1.00
H89    H     0.51014   0.21633   0.27811   0.00000  Uiso   1.00
C90    C     0.35456   0.10558   0.06724   0.00000  Uiso   1.00
N91    N     0.39519   0.08257   0.08119   0.00000  Uiso   1.00
C92    C     0.58065   0.32667   0.21355   0.00000  Uiso   1.00
N93    N     0.53349   0.30998   0.19381   0.00000  Uiso   1.00
N94    N     0.49232   0.10308   0.22073   0.00000  Uiso   1.00
O95    O     0.48812   0.06535   0.25286   0.00000  Uiso   1.00
O96    O     0.49909   0.09254   0.17107   0.00000  Uiso   1.00
O97    O     0.96435   0.24629   0.25358   0.00000  Uiso   1.00
O98    O     0.72408   0.23704   0.24424   0.00000  Uiso   1.00
C99    C     0.68047   0.26458   0.24651   0.00000  Uiso   1.00
O100   O     0.98157   0.17358   0.33380   0.00000  Uiso   1.00
O101   O     0.74130   0.16433   0.32446   0.00000  Uiso   1.00
C102   C     0.70485   0.17871   0.35340   0.00000  Uiso   1.00
Zn103  Zn    0.93786   0.17284   0.25624   0.00000  Uiso   1.00
Zn104  Zn    0.72881   0.16049   0.24377   0.00000  Uiso   1.00
O105   O     0.94258   0.09629   0.25577   0.00000  Uiso   1.00
O106   O     0.70231   0.08704   0.24643   0.00000  Uiso   1.00
O107   O     0.92537   0.16901   0.17554   0.00000  Uiso   1.00
O108   O     0.68510   0.15976   0.16620   0.00000  Uiso   1.00
C109   C     0.98429   0.06849   0.24831   0.00000  Uiso   1.00
C110   C     0.96323   0.16189   0.14556   0.00000  Uiso   1.00
C111   C     0.94850   0.13601   0.49317   0.00000  Uiso   1.00
H112   H     0.90824   0.15960   0.39035   0.00000  Uiso   1.00
H113   H     0.97129   0.11866   0.46416   0.00000  Uiso   1.00
C114   C     0.94209   0.15930   0.08640   0.00000  Uiso   1.00
C115   C     0.69447   0.21964   0.44351   0.00000  Uiso   1.00
C116   C     0.71616   0.22947   0.49995   0.00000  Uiso   1.00
C117   C     0.77238   0.21698   0.02406   0.00000  Uiso   1.00
C118   C     0.81021   0.20006   0.49072   0.00000  Uiso   1.00
C119   C     0.79048   0.19900   0.43324   0.00000  Uiso   1.00
C120   C     0.86601   0.18202   0.01134   0.00000  Uiso   1.00
C121   C     0.89833   0.16173   0.47425   0.00000  Uiso   1.00
C122   C     0.88180   0.17027   0.41891   0.00000  Uiso   1.00
C123   C     0.83188   0.19488   0.40048   0.00000  Uiso   1.00
C124   C     0.89019   0.18239   0.06713   0.00000  Uiso   1.00
C125   C     0.97041   0.13399   0.04936   0.00000  Uiso   1.00
C126   C     0.73008   0.19997   0.41041   0.00000  Uiso   1.00
H127   H     0.86973   0.20164   0.09640   0.00000  Uiso   1.00
H128   H     0.98318   0.22684   0.42594   0.00000  Uiso   1.00
H129   H     0.78451   0.22082   0.06840   0.00000  Uiso   1.00
H130   H     0.68804   0.24373   0.02555   0.00000  Uiso   1.00
H131   H     0.82535   0.20936   0.36014   0.00000  Uiso   1.00
C132   C     0.68716   0.31919   0.24629   0.00000  Uiso   1.00
H133   H     0.73161   0.00329   0.25938   0.00000  Uiso   1.00
C134   C     0.97353   0.01404   0.23815   0.00000  Uiso   1.00
N135   N     0.81160   0.15223   0.23543   0.00000  Uiso   1.00
N136   N     0.85507   0.18110   0.26458   0.00000  Uiso   1.00
H137   H     0.84347   0.21633   0.27811   0.00000  Uiso   1.00
C138   C     0.68790   0.10558   0.06724   0.00000  Uiso   1.00
N139   N     0.72853   0.08257   0.08119   0.00000  Uiso   1.00
C140   C     0.91399   0.32667   0.21355   0.00000  Uiso   1.00
N141   N     0.86682   0.30998   0.19381   0.00000  Uiso   1.00
N142   N     0.82565   0.10308   0.22073   0.00000  Uiso   1.00
O143   O     0.82146   0.06535   0.25286   0.00000  Uiso   1.00
O144   O     0.83242   0.09254   0.17107   0.00000  Uiso   1.00
O145   O     0.29769   0.57963   0.25358   0.00000  Uiso   1.00
O146   O     0.05742   0.57038   0.24424   0.00000  Uiso   1.00
C147   C     0.01380   0.59791   0.24651   0.00000  Uiso   1.00
O148   O     0.31490   0.50691   0.33380   0.00000  Uiso   1.00
O149   O     0.07463   0.49766   0.32446   0.00000  Uiso   1.00
C150   C     0.03818   0.51204   0.35340   0.00000  Uiso   1.00
Zn151  Zn    0.27119   0.50618   0.25624   0.00000  Uiso   1.00
Zn152  Zn    0.06214   0.49382   0.24377   0.00000  Uiso   1.00
O153   O     0.27592   0.42962   0.25577   0.00000  Uiso   1.00
O154   O     0.03565   0.42037   0.24643   0.00000  Uiso   1.00
O155   O     0.25870   0.50234   0.17554   0.00000  Uiso   1.00
O156   O     0.01843   0.49309   0.16620   0.00000  Uiso   1.00
C157   C     0.31763   0.40182   0.24831   0.00000  Uiso   1.00
C158   C     0.29656   0.49522   0.14556   0.00000  Uiso   1.00
C159   C     0.28183   0.46934   0.49317   0.00000  Uiso   1.00
H160   H     0.24158   0.49293   0.39035   0.00000  Uiso   1.00
H161   H     0.30462   0.45199   0.46416   0.00000  Uiso   1.00
C162   C     0.27543   0.49263   0.08640   0.00000  Uiso   1.00
C163   C     0.02780   0.55298   0.44351   0.00000  Uiso   1.00
C164   C     0.04949   0.56281   0.49995   0.00000  Uiso   1.00
C165   C     0.10571   0.55031   0.02406   0.00000  Uiso   1.00
C166   C     0.14354   0.53340   0.49072   0.00000  Uiso   1.00
C167   C     0.12381   0.53233   0.43324   0.00000  Uiso   1.00
C168   C     0.19935   0.51536   0.01134   0.00000  Uiso   1.00
C169   C     0.23166   0.49506   0.47425   0.00000  Uiso   1.00
C170   C     0.21514   0.50361   0.41891   0.00000  Uiso   1.00
C171   C     0.16521   0.52821   0.40048   0.00000  Uiso   1.00
C172   C     0.22352   0.51573   0.06713   0.00000  Uiso   1.00
C173   C     0.30374   0.46732   0.04936   0.00000  Uiso   1.00
C174   C     0.06341   0.53330   0.41041   0.00000  Uiso   1.00
H175   H     0.20306   0.53498   0.09640   0.00000  Uiso   1.00
H176   H     0.31651   0.56017   0.42594   0.00000  Uiso   1.00
H177   H     0.11784   0.55416   0.06840   0.00000  Uiso   1.00
H178   H     0.02137   0.57706   0.02555   0.00000  Uiso   1.00
H179   H     0.15868   0.54269   0.36014   0.00000  Uiso   1.00
C180   C     0.02050   0.65252   0.24629   0.00000  Uiso   1.00
H181   H     0.06494   0.33663   0.25938   0.00000  Uiso   1.00
C182   C     0.30686   0.34737   0.23815   0.00000  Uiso   1.00
N183   N     0.14493   0.48556   0.23543   0.00000  Uiso   1.00
N184   N     0.18840   0.51444   0.26458   0.00000  Uiso   1.00
H185   H     0.17681   0.54967   0.27811   0.00000  Uiso   1.00
C186   C     0.02123   0.43891   0.06724   0.00000  Uiso   1.00
N187   N     0.06186   0.41591   0.08119   0.00000  Uiso   1.00
C188   C     0.24732   0.66001   0.21355   0.00000  Uiso   1.00
N189   N     0.20016   0.64331   0.19381   0.00000  Uiso   1.00
N190   N     0.15898   0.43641   0.22073   0.00000  Uiso   1.00
O191   O     0.15479   0.39868   0.25286   0.00000  Uiso   1.00
O192   O     0.16575   0.42588   0.17107   0.00000  Uiso   1.00
O193   O     0.63102   0.57963   0.25358   0.00000  Uiso   1.00
O194   O     0.39075   0.57038   0.24424   0.00000  Uiso   1.00
C195   C     0.34714   0.59791   0.24651   0.00000  Uiso   1.00
O196   O     0.64823   0.50691   0.33380   0.00000  Uiso   1.00
O197   O     0.40796   0.49766   0.32446   0.00000  Uiso   1.00
C198   C     0.37151   0.51204   0.35340   0.00000  Uiso   1.00
Zn199  Zn    0.60453   0.50618   0.25624   0.00000  Uiso   1.00
Zn200  Zn    0.39547   0.49382   0.24377   0.00000  Uiso   1.00
O201   O     0.60925   0.42962   0.25577   0.00000  Uiso   1.00
O202   O     0.36898   0.42037   0.24643   0.00000  Uiso   1.00
O203   O     0.59204   0.50234   0.17554   0.00000  Uiso   1.00
O204   O     0.35177   0.49309   0.16620   0.00000  Uiso   1.00
C205   C     0.65096   0.40182   0.24831   0.00000  Uiso   1.00
C206   C     0.62990   0.49522   0.14556   0.00000  Uiso   1.00
C207   C     0.61517   0.46934   0.49317   0.00000  Uiso   1.00
H208   H     0.57491   0.49293   0.39035   0.00000  Uiso   1.00
H209   H     0.63796   0.45199   0.46416   0.00000  Uiso   1.00
C210   C     0.60876   0.49263   0.08640   0.00000  Uiso   1.00
C211   C     0.36113   0.55298   0.44351   0.00000  Uiso   1.00
C212   C     0.38283   0.56281   0.49995   0.00000  Uiso   1.00
C213   C     0.43904   0.55031   0.02406   0.00000  Uiso   1.00
C214   C     0.47687   0.53340   0.49072   0.00000  Uiso   1.00
C215   C     0.45715   0.53233   0.43324   0.00000  Uiso   1.00
C216   C     0.53268   0.51536   0.01134   0.00000  Uiso   1.00
C217   C     0.56500   0.49506   0.47425   0.00000  Uiso   1.00
C218   C     0.54847   0.50361   0.41891   0.00000  Uiso   1.00
C219   C     0.49855   0.52821   0.40048   0.00000  Uiso   1.00
C220   C     0.55685   0.51573   0.06713   0.00000  Uiso   1.00
C221   C     0.63707   0.46732   0.04936   0.00000  Uiso   1.00
C222   C     0.39674   0.53330   0.41041   0.00000  Uiso   1.00
H223   H     0.53640   0.53498   0.09640   0.00000  Uiso   1.00
H224   H     0.64985   0.56017   0.42594   0.00000  Uiso   1.00
H225   H     0.45117   0.55416   0.06840   0.00000  Uiso   1.00
H226   H     0.35471   0.57706   0.02555   0.00000  Uiso   1.00
H227   H     0.49201   0.54269   0.36014   0.00000  Uiso   1.00
C228   C     0.35383   0.65252   0.24629   0.00000  Uiso   1.00
H229   H     0.39827   0.33663   0.25938   0.00000  Uiso   1.00
C230   C     0.64019   0.34737   0.23815   0.00000  Uiso   1.00
N231   N     0.47827   0.48556   0.23543   0.00000  Uiso   1.00
N232   N     0.52173   0.51444   0.26458   0.00000  Uiso   1.00
H233   H     0.51014   0.54967   0.27811   0.00000  Uiso   1.00
C234   C     0.35456   0.43891   0.06724   0.00000  Uiso   1.00
N235   N     0.39519   0.41591   0.08119   0.00000  Uiso   1.00
C236   C     0.58065   0.66001   0.21355   0.00000  Uiso   1.00
N237   N     0.53349   0.64331   0.19381   0.00000  Uiso   1.00
N238   N     0.49232   0.43641   0.22073   0.00000  Uiso   1.00
O239   O     0.48812   0.39868   0.25286   0.00000  Uiso   1.00
O240   O     0.49909   0.42588   0.17107   0.00000  Uiso   1.00
O241   O     0.96435   0.57963   0.25358   0.00000  Uiso   1.00
O242   O     0.72408   0.57038   0.24424   0.00000  Uiso   1.00
C243   C     0.68047   0.59791   0.24651   0.00000  Uiso   1.00
O244   O     0.98157   0.50691   0.33380   0.00000  Uiso   1.00
O245   O     0.74130   0.49766   0.32446   0.00000  Uiso   1.00
C246   C     0.70485   0.51204   0.35340   0.00000  Uiso   1.00
Zn247  Zn    0.93786   0.50618   0.25624   0.00000  Uiso   1.00
Zn248  Zn    0.72881   0.49382   0.24377   0.00000  Uiso   1.00
O249   O     0.94258   0.42962   0.25577   0.00000  Uiso   1.00
O250   O     0.70231   0.42037   0.24643   0.00000  Uiso   1.00
O251   O     0.92537   0.50234   0.17554   0.00000  Uiso   1.00
O252   O     0.68510   0.49309   0.16620   0.00000  Uiso   1.00
C253   C     0.98429   0.40182   0.24831   0.00000  Uiso   1.00
C254   C     0.96323   0.49522   0.14556   0.00000  Uiso   1.00
C255   C     0.94850   0.46934   0.49317   0.00000  Uiso   1.00
H256   H     0.90824   0.49293   0.39035   0.00000  Uiso   1.00
H257   H     0.97129   0.45199   0.46416   0.00000  Uiso   1.00
C258   C     0.94209   0.49263   0.08640   0.00000  Uiso   1.00
C259   C     0.69447   0.55298   0.44351   0.00000  Uiso   1.00
C260   C     0.71616   0.56281   0.49995   0.00000  Uiso   1.00
C261   C     0.77238   0.55031   0.02406   0.00000  Uiso   1.00
C262   C     0.81021   0.53340   0.49072   0.00000  Uiso   1.00
C263   C     0.79048   0.53233   0.43324   0.00000  Uiso   1.00
C264   C     0.86601   0.51536   0.01134   0.00000  Uiso   1.00
C265   C     0.89833   0.49506   0.47425   0.00000  Uiso   1.00
C266   C     0.88180   0.50361   0.41891   0.00000  Uiso   1.00
C267   C     0.83188   0.52821   0.40048   0.00000  Uiso   1.00
C268   C     0.89019   0.51573   0.06713   0.00000  Uiso   1.00
C269   C     0.97041   0.46732   0.04936   0.00000  Uiso   1.00
C270   C     0.73008   0.53330   0.41041   0.00000  Uiso   1.00
H271   H     0.86973   0.53498   0.09640   0.00000  Uiso   1.00
H272   H     0.98318   0.56017   0.42594   0.00000  Uiso   1.00
H273   H     0.78451   0.55416   0.06840   0.00000  Uiso   1.00
H274   H     0.68804   0.57706   0.02555   0.00000  Uiso   1.00
H275   H     0.82535   0.54269   0.36014   0.00000  Uiso   1.00
C276   C     0.68716   0.65252   0.24629   0.00000  Uiso   1.00
H277   H     0.73161   0.33663   0.25938   0.00000  Uiso   1.00
C278   C     0.97353   0.34737   0.23815   0.00000  Uiso   1.00
N279   N     0.81160   0.48556   0.23543   0.00000  Uiso   1.00
N280   N     0.85507   0.51444   0.26458   0.00000  Uiso   1.00
H281   H     0.84347   0.54967   0.27811   0.00000  Uiso   1.00
C282   C     0.68790   0.43891   0.06724   0.00000  Uiso   1.00
N283   N     0.72853   0.41591   0.08119   0.00000  Uiso   1.00
C284   C     0.91399   0.66001   0.21355   0.00000  Uiso   1.00
N285   N     0.86682   0.64331   0.19381   0.00000  Uiso   1.00
N286   N     0.82565   0.43641   0.22073   0.00000  Uiso   1.00
O287   O     0.82146   0.39868   0.25286   0.00000  Uiso   1.00
O288   O     0.83242   0.42588   0.17107   0.00000  Uiso   1.00
O289   O     0.29769   0.91296   0.25358   0.00000  Uiso   1.00
O290   O     0.05742   0.90371   0.24424   0.00000  Uiso   1.00
C291   C     0.01380   0.93125   0.24651   0.00000  Uiso   1.00
O292   O     0.31490   0.84024   0.33380   0.00000  Uiso   1.00
O293   O     0.07463   0.83099   0.32446   0.00000  Uiso   1.00
C294   C     0.03818   0.84538   0.35340   0.00000  Uiso   1.00
Zn295  Zn    0.27119   0.83951   0.25624   0.00000  Uiso   1.00
Zn296  Zn    0.06214   0.82716   0.24377   0.00000  Uiso   1.00
O297   O     0.27592   0.76296   0.25577   0.00000  Uiso   1.00
O298   O     0.03565   0.75371   0.24643   0.00000  Uiso   1.00
O299   O     0.25870   0.83567   0.17554   0.00000  Uiso   1.00
O300   O     0.01843   0.82642   0.16620   0.00000  Uiso   1.00
C301   C     0.31763   0.73515   0.24831   0.00000  Uiso   1.00
C302   C     0.29656   0.82856   0.14556   0.00000  Uiso   1.00
C303   C     0.28183   0.80267   0.49317   0.00000  Uiso   1.00
H304   H     0.24158   0.82627   0.39035   0.00000  Uiso   1.00
H305   H     0.30462   0.78533   0.46416   0.00000  Uiso   1.00
C306   C     0.27543   0.82597   0.08640   0.00000  Uiso   1.00
C307   C     0.02780   0.88631   0.44351   0.00000  Uiso   1.00
C308   C     0.04949   0.89614   0.49995   0.00000  Uiso   1.00
C309   C     0.10571   0.88364   0.02406   0.00000  Uiso   1.00
C310   C     0.14354   0.86673   0.49072   0.00000  Uiso   1.00
C311   C     0.12381   0.86567   0.43324   0.00000  Uiso   1.00
C312   C     0.19935   0.84869   0.01134   0.00000  Uiso   1.00
C313   C     0.23166   0.82840   0.47425   0.00000  Uiso   1.00
C314   C     0.21514   0.83694   0.41891   0.00000  Uiso   1.00
C315   C     0.16521   0.86155   0.40048   0.00000  Uiso   1.00
C316   C     0.22352   0.84906   0.06713   0.00000  Uiso   1.00
C317   C     0.30374   0.80066   0.04936   0.00000  Uiso   1.00
C318   C     0.06341   0.86664   0.41041   0.00000  Uiso   1.00
H319   H     0.20306   0.86831   0.09640   0.00000  Uiso   1.00
H320   H     0.31651   0.89351   0.42594   0.00000  Uiso   1.00
H321   H     0.11784   0.88749   0.06840   0.00000  Uiso   1.00
H322   H     0.02137   0.91040   0.02555   0.00000  Uiso   1.00
H323   H     0.15868   0.87603   0.36014   0.00000  Uiso   1.00
C324   C     0.02050   0.98586   0.24629   0.00000  Uiso   1.00
H325   H     0.06494   0.66996   0.25938   0.00000  Uiso   1.00
C326   C     0.30686   0.68070   0.23815   0.00000  Uiso   1.00
N327   N     0.14493   0.81890   0.23543   0.00000  Uiso   1.00
N328   N     0.18840   0.84777   0.26458   0.00000  Uiso   1.00
H329   H     0.17681   0.88300   0.27811   0.00000  Uiso   1.00
C330   C     0.02123   0.77225   0.06724   0.00000  Uiso   1.00
N331   N     0.06186   0.74924   0.08119   0.00000  Uiso   1.00
C332   C     0.24732   0.99334   0.21355   0.00000  Uiso   1.00
N333   N     0.20016   0.97664   0.19381   0.00000  Uiso   1.00
N334   N     0.15898   0.76974   0.22073   0.00000  Uiso   1.00
O335   O     0.15479   0.73202   0.25286   0.00000  Uiso   1.00
O336   O     0.16575   0.75921   0.17107   0.00000  Uiso   1.00
O337   O     0.63102   0.91296   0.25358   0.00000  Uiso   1.00
O338   O     0.39075   0.90371   0.24424   0.00000  Uiso   1.00
C339   C     0.34714   0.93125   0.24651   0.00000  Uiso   1.00
O340   O     0.64823   0.84024   0.33380   0.00000  Uiso   1.00
O341   O     0.40796   0.83099   0.32446   0.00000  Uiso   1.00
C342   C     0.37151   0.84538   0.35340   0.00000  Uiso   1.00
Zn343  Zn    0.60453   0.83951   0.25624   0.00000  Uiso   1.00
Zn344  Zn    0.39547   0.82716   0.24377   0.00000  Uiso   1.00
O345   O     0.60925   0.76296   0.25577   0.00000  Uiso   1.00
O346   O     0.36898   0.75371   0.24643   0.00000  Uiso   1.00
O347   O     0.59204   0.83567   0.17554   0.00000  Uiso   1.00
O348   O     0.35177   0.82642   0.16620   0.00000  Uiso   1.00
C349   C     0.65096   0.73515   0.24831   0.00000  Uiso   1.00
C350   C     0.62990   0.82856   0.14556   0.00000  Uiso   1.00
C351   C     0.61517   0.80267   0.49317   0.00000  Uiso   1.00
H352   H     0.57491   0.82627   0.39035   0.00000  Uiso   1.00
H353   H     0.63796   0.78533   0.46416   0.00000  Uiso   1.00
C354   C     0.60876   0.82597   0.08640   0.00000  Uiso   1.00
C355   C     0.36113   0.88631   0.44351   0.00000  Uiso   1.00
C356   C     0.38283   0.89614   0.49995   0.00000  Uiso   1.00
C357   C     0.43904   0.88364   0.02406   0.00000  Uiso   1.00
C358   C     0.47687   0.86673   0.49072   0.00000  Uiso   1.00
C359   C     0.45715   0.86567   0.43324   0.00000  Uiso   1.00
C360   C     0.53268   0.84869   0.01134   0.00000  Uiso   1.00
C361   C     0.56500   0.82840   0.47425   0.00000  Uiso   1.00
C362   C     0.54847   0.83694   0.41891   0.00000  Uiso   1.00
C363   C     0.49855   0.86155   0.40048   0.00000  Uiso   1.00
C364   C     0.55685   0.84906   0.06713   0.00000  Uiso   1.00
C365   C     0.63707   0.80066   0.04936   0.00000  Uiso   1.00
C366   C     0.39674   0.86664   0.41041   0.00000  Uiso   1.00
H367   H     0.53640   0.86831   0.09640   0.00000  Uiso   1.00
H368   H     0.64985   0.89351   0.42594   0.00000  Uiso   1.00
H369   H     0.45117   0.88749   0.06840   0.00000  Uiso   1.00
H370   H     0.35471   0.91040   0.02555   0.00000  Uiso   1.00
H371   H     0.49201   0.87603   0.36014   0.00000  Uiso   1.00
C372   C     0.35383   0.98586   0.24629   0.00000  Uiso   1.00
H373   H     0.39827   0.66996   0.25938   0.00000  Uiso   1.00
C374   C     0.64019   0.68070   0.23815   0.00000  Uiso   1.00
N375   N     0.47827   0.81890   0.23543   0.00000  Uiso   1.00
N376   N     0.52173   0.84777   0.26458   0.00000  Uiso   1.00
H377   H     0.51014   0.88300   0.27811   0.00000  Uiso   1.00
C378   C     0.35456   0.77225   0.06724   0.00000  Uiso   1.00
N379   N     0.39519   0.74924   0.08119   0.00000  Uiso   1.00
C380   C     0.58065   0.99334   0.21355   0.00000  Uiso   1.00
N381   N     0.53349   0.97664   0.19381   0.00000  Uiso   1.00
N382   N     0.49232   0.76974   0.22073   0.00000  Uiso   1.00
O383   O     0.48812   0.73202   0.25286   0.00000  Uiso   1.00
O384   O     0.49909   0.75921   0.17107   0.00000  Uiso   1.00
O385   O     0.96435   0.91296   0.25358   0.00000  Uiso   1.00
O386   O     0.72408   0.90371   0.24424   0.00000  Uiso   1.00
C387   C     0.68047   0.93125   0.24651   0.00000  Uiso   1.00
O388   O     0.98157   0.84024   0.33380   0.00000  Uiso   1.00
O389   O     0.74130   0.83099   0.32446   0.00000  Uiso   1.00
C390   C     0.70485   0.84538   0.35340   0.00000  Uiso   1.00
Zn391  Zn    0.93786   0.83951   0.25624   0.00000  Uiso   1.00
Zn392  Zn    0.72881   0.82716   0.24377   0.00000  Uiso   1.00
O393   O     0.94258   0.76296   0.25577   0.00000  Uiso   1.00
O394   O     0.70231   0.75371   0.24643   0.00000  Uiso   1.00
O395   O     0.92537   0.83567   0.17554   0.00000  Uiso   1.00
O396   O     0.68510   0.82642   0.16620   0.00000  Uiso   1.00
C397   C     0.98429   0.73515   0.24831   0.00000  Uiso   1.00
C398   C     0.96323   0.82856   0.14556   0.00000  Uiso   1.00
C399   C     0.94850   0.80267   0.49317   0.00000  Uiso   1.00
H400   H     0.90824   0.82627   0.39035   0.00000  Uiso   1.00
H401   H     0.97129   0.78533   0.46416   0.00000  Uiso   1.00
C402   C     0.94209   0.82597   0.08640   0.00000  Uiso   1.00
C403   C     0.69447   0.88631   0.44351   0.00000  Uiso   1.00
C404   C     0.71616   0.89614   0.49995   0.00000  Uiso   1.00
C405   C     0.77238   0.88364   0.02406   0.00000  Uiso   1.00
C406   C     0.81021   0.86673   0.49072   0.00000  Uiso   1.00
C407   C     0.79048   0.86567   0.43324   0.00000  Uiso   1.00
C408   C     0.86601   0.84869   0.01134   0.00000  Uiso   1.00
C409   C     0.89833   0.82840   0.47425   0.00000  Uiso   1.00
C410   C     0.88180   0.83694   0.41891   0.00000  Uiso   1.00
C411   C     0.83188   0.86155   0.40048   0.00000  Uiso   1.00
C412   C     0.89019   0.84906   0.06713   0.00000  Uiso   1.00
C413   C     0.97041   0.80066   0.04936   0.00000  Uiso   1.00
C414   C     0.73008   0.86664   0.41041   0.00000  Uiso   1.00
H415   H     0.86973   0.86831   0.09640   0.00000  Uiso   1.00
H416   H     0.98318   0.89351   0.42594   0.00000  Uiso   1.00
H417   H     0.78451   0.88749   0.06840   0.00000  Uiso   1.00
H418   H     0.68804   0.91040   0.02555   0.00000  Uiso   1.00
H419   H     0.82535   0.87603   0.36014   0.00000  Uiso   1.00
C420   C     0.68716   0.98586   0.24629   0.00000  Uiso   1.00
H421   H     0.73161   0.66996   0.25938   0.00000  Uiso   1.00
C422   C     0.97353   0.68070   0.23815   0.00000  Uiso   1.00
N423   N     0.81160   0.81890   0.23543   0.00000  Uiso   1.00
N424   N     0.85507   0.84777   0.26458   0.00000  Uiso   1.00
H425   H     0.84347   0.88300   0.27811   0.00000  Uiso   1.00
C426   C     0.68790   0.77225   0.06724   0.00000  Uiso   1.00
N427   N     0.72853   0.74924   0.08119   0.00000  Uiso   1.00
C428   C     0.91399   0.99334   0.21355   0.00000  Uiso   1.00
N429   N     0.86682   0.97664   0.19381   0.00000  Uiso   1.00
N430   N     0.82565   0.76974   0.22073   0.00000  Uiso   1.00
O431   O     0.82146   0.73202   0.25286   0.00000  Uiso   1.00
O432   O     0.83242   0.75921   0.17107   0.00000  Uiso   1.00
O433   O     0.29769   0.24629   0.75358   0.00000  Uiso   1.00
O434   O     0.05742   0.23704   0.74424   0.00000  Uiso   1.00
C435   C     0.01380   0.26458   0.74651   0.00000  Uiso   1.00
O436   O     0.31490   0.17358   0.83380   0.00000  Uiso   1.00
O437   O     0.07463   0.16433   0.82446   0.00000  Uiso   1.00
C438   C     0.03818   0.17871   0.85340   0.00000  Uiso   1.00
Zn439  Zn    0.27119   0.17284   0.75624   0.00000  Uiso   1.00
Zn440  Zn    0.06214   0.16049   0.74377   0.00000  Uiso   1.00
O441   O     0.27592   0.09629   0.75577   0.00000  Uiso   1.00
O442   O     0.03565   0.08704   0.74643   0.00000  Uiso   1.00
O443   O     0.25870   0.16901   0.67554   0.00000  Uiso   1.00
O444   O     0.01843   0.15976   0.66620   0.00000  Uiso   1.00
C445   C     0.31763   0.06849   0.74831   0.00000  Uiso   1.00
C446   C     0.29656   0.16189   0.64556   0.00000  Uiso   1.00
C447   C     0.28183   0.13601   0.99317   0.00000  Uiso   1.00
H448   H     0.24158   0.15960   0.89035   0.00000  Uiso   1.00
H449   H     0.30462   0.11866   0.96416   0.00000  Uiso   1.00
C450   C     0.27543   0.15930   0.58640   0.00000  Uiso   1.00
C451   C     0.02780   0.21964   0.94351   0.00000  Uiso   1.00
C452   C     0.04949   0.22947   0.99995   0.00000  Uiso   1.00
C453   C     0.10571   0.21698   0.52406   0.00000  Uiso   1.00
C454   C     0.14354   0.20006   0.99072   0.00000  Uiso   1.00
C455   C     0.12381   0.19900   0.93324   0.00000  Uiso   1.00
C456   C     0.19935   0.18202   0.51134   0.00000  Uiso   1.00
C457   C     0.23166   0.16173   0.97425   0.00000  Uiso   1.00
C458   C     0.21514   0.17027   0.91891   0.00000  Uiso   1.00
C459   C     0.16521   0.19488   0.90048   0.00000  Uiso   1.00
C460   C     0.22352   0.18239   0.56713   0.00000  Uiso   1.00
C461   C     0.30374   0.13399   0.54936   0.00000  Uiso   1.00
C462   C     0.06341   0.19997   0.91041   0.00000  Uiso   1.00
H463   H     0.20306   0.20164   0.59640   0.00000  Uiso   1.00
H464   H     0.31651   0.22684   0.92594   0.00000  Uiso   1.00
H465   H     0.11784   0.22082   0.56840   0.00000  Uiso   1.00
H466   H     0.02137   0.24373   0.52555   0.00000  Uiso   1.00
H467   H     0.15868   0.20936   0.86014   0.00000  Uiso   1.00
C468   C     0.02050   0.31919   0.74629   0.00000  Uiso   1.00
H469   H     0.06494   0.00329   0.75938   0.00000  Uiso   1.00
C470   C     0.30686   0.01404   0.73815   0.00000  Uiso   1.00
N471   N     0.14493   0.15223   0.73543   0.00000  Uiso   1.00
N472   N     0.18840   0.18110   0.76458   0.00000  Uiso   1.00
H473   H     0.17681   0.21633   0.77811   0.00000  Uiso   1.00
C474   C     0.02123   0.10558   0.56724   0.00000  Uiso   1.00
N475   N     0.06186   0.08257   0.58119   0.00000  Uiso   1.00
C476   C     0.24732   0.32667   0.71355   0.00000  Uiso   1.00
N477   N     0.20016   0.30998   0.69381   0.00000  Uiso   1.00
N478   N     0.15898   0.10308   0.72073   0.00000  Uiso   1.00
O479   O     0.15479   0.06535   0.75286   0.00000  Uiso   1.00
O480   O     0.16575   0.09254   0.67107   0.00000  Uiso   1.00
O481   O     0.63102   0.24629   0.75358   0.00000  Uiso   1.00
O482   O     0.39075   0.23704   0.74424   0.00000  Uiso   1.00
C483   C     0.34714   0.26458   0.74651   0.00000  Uiso   1.00
O484   O     0.64823   0.17358   0.83380   0.00000  Uiso   1.00
O485   O     0.40796   0.16433   0.82446   0.00000  Uiso   1.00
C486   C     0.37151   0.17871   0.85340   0.00000  Uiso   1.00
Zn487  Zn    0.60453   0.17284   0.75624   0.00000  Uiso   1.00
Zn488  Zn    0.39547   0.16049   0.74377   0.00000  Uiso   1.00
O489   O     0.60925   0.09629   0.75577   0.00000  Uiso   1.00
O490   O     0.36898   0.08704   0.74643   0.00000  Uiso   1.00
O491   O     0.59204   0.16901   0.67554   0.00000  Uiso   1.00
O492   O     0.35177   0.15976   0.66620   0.00000  Uiso   1.00
C493   C     0.65096   0.06849   0.74831   0.00000  Uiso   1.00
C494   C     0.62990   0.16189   0.64556   0.00000  Uiso   1.00
C495   C     0.61517   0.13601   0.99317   0.00000  Uiso   1.00
H496   H     0.57491   0.15960   0.89035   0.00000  Uiso   1.00
H497   H     0.63796   0.11866   0.96416   0.00000  Uiso   1.00
C498   C     0.60876   0.15930   0.58640   0.00000  Uiso   1.00
C499   C     0.36113   0.21964   0.94351   0.00000  Uiso   1.00
C500   C     0.38283   0.22947   0.99995   0.00000  Uiso   1.00
C501   C     0.43904   0.21698   0.52406   0.00000  Uiso   1.00
C502   C     0.47687   0.20006   0.99072   0.00000  Uiso   1.00
C503   C     0.45715   0.19900   0.93324   0.00000  Uiso   1.00
C504   C     0.53268   0.18202   0.51134   0.00000  Uiso   1.00
C505   C     0.56500   0.16173   0.97425   0.00000  Uiso   1.00
C506   C     0.54847   0.17027   0.91891   0.00000  Uiso   1.00
C507   C     0.49855   0.19488   0.90048   0.00000  Uiso   1.00
C508   C     0.55685   0.18239   0.56713   0.00000  Uiso   1.00
C509   C     0.63707   0.13399   0.54936   0.00000  Uiso   1.00
C510   C     0.39674   0.19997   0.91041   0.00000  Uiso   1.00
H511   H     0.53640   0.20164   0.59640   0.00000  Uiso   1.00
H512   H     0.64985   0.22684   0.92594   0.00000  Uiso   1.00
H513   H     0.45117   0.22082   0.56840   0.00000  Uiso   1.00
H514   H     0.35471   0.24373   0.52555   0.00000  Uiso   1.00
H515   H     0.49201   0.20936   0.86014   0.00000  Uiso   1.00
C516   C     0.35383   0.31919   0.74629   0.00000  Uiso   1.00
H517   H     0.39827   0.00329   0.75938   0.00000  Uiso   1.00
C518   C     0.64019   0.01404   0.73815   0.00000  Uiso   1.00
N519   N     0.47827   0.15223   0.73543   0.00000  Uiso   1.00
N520   N     0.52173   0.18110   0.76458   0.00000  Uiso   1.00
H521   H     0.51014   0.21633   0.77811   0.00000  Uiso   1.00
C522   C     0.35456   0.10558   0.56724   0.00000  Uiso   1.00
N523   N     0.39519   0.08257   0.58119   0.00000  Uiso   1.00
C524   C     0.58065   0.32667   0.71355   0.00000  Uiso   1.00
N525   N     0.53349   0.30998   0.69381   0.00000  Uiso   1.00
N526   N     0.49232   0.10308   0.72073   0.00000  Uiso   1.00
O527   O     0.48812   0.06535   0.75286   0.00000  Uiso   1.00
O528   O     0.49909   0.09254   0.67107   0.00000  Uiso   1.00
O529   O     0.96435   0.24629   0.75358   0.00000  Uiso   1.00
O530   O     0.72408   0.23704   0.74424   0.00000  Uiso   1.00
C531   C     0.68047   0.26458   0.74651   0.00000  Uiso   1.00
O532   O     0.98157   0.17358   0.83380   0.00000  Uiso   1.00
O533   O     0.74130   0.16433   0.82446   0.00000  Uiso   1.00
C534   C     0.70485   0.17871   0.85340   0.00000  Uiso   1.00
Zn535  Zn    0.93786   0.17284   0.75624   0.00000  Uiso   1.00
Zn536  Zn    0.72881   0.16049   0.74377   0.00000  Uiso   1.00
O537   O     0.94258   0.09629   0.75577   0.00000  Uiso   1.00
O538   O     0.70231   0.08704   0.74643   0.00000  Uiso   1.00
O539   O     0.92537   0.16901   0.67554   0.00000  Uiso   1.00
O540   O     0.68510   0.15976   0.66620   0.00000  Uiso   1.00
C541   C     0.98429   0.06849   0.74831   0.00000  Uiso   1.00
C542   C     0.96323   0.16189   0.64556   0.00000  Uiso   1.00
C543   C     0.94850   0.13601   0.99317   0.00000  Uiso   1.00
H544   H     0.90824   0.15960   0.89035   0.00000  Uiso   1.00
H545   H     0.97129   0.11866   0.96416   0.00000  Uiso   1.00
C546   C     0.94209   0.15930   0.58640   0.00000  Uiso   1.00
C547   C     0.69447   0.21964   0.94351   0.00000  Uiso   1.00
C548   C     0.71616   0.22947   0.99995   0.00000  Uiso   1.00
C549   C     0.77238   0.21698   0.52406   0.00000  Uiso   1.00
C550   C     0.81021   0.20006   0.99072   0.00000  Uiso   1.00
C551   C     0.79048   0.19900   0.93324   0.00000  Uiso   1.00
C552   C     0.86601   0.18202   0.51134   0.00000  Uiso   1.00
C553   C     0.89833   0.16173   0.97425   0.00000  Uiso   1.00
C554   C     0.88180   0.17027   0.91891   0.00000  Uiso   1.00
C555   C     0.83188   0.19488   0.90048   0.00000  Uiso   1.00
C556   C     0.89019   0.18239   0.56713   0.00000  Uiso   1.00
C557   C     0.97041   0.13399   0.54936   0.00000  Uiso   1.00
C558   C     0.73008   0.19997   0.91041   0.00000  Uiso   1.00
H559   H     0.86973   0.20164   0.59640   0.00000  Uiso   1.00
H560   H     0.98318   0.22684   0.92594   0.00000  Uiso   1.00
H561   H     0.78451   0.22082   0.56840   0.00000  Uiso   1.00
H562   H     0.68804   0.24373   0.52555   0.00000  Uiso   1.00
H563   H     0.82535   0.20936   0.86014   0.00000  Uiso   1.00
C564   C     0.68716   0.31919   0.74629   0.00000  Uiso   1.00
H565   H     0.73161   0.00329   0.75938   0.00000  Uiso   1.00
C566   C     0.97353   0.01404   0.73815   0.00000  Uiso   1.00
N567   N     0.81160   0.15223   0.73543   0.00000  Uiso   1.00
N568   N     0.85507   0.18110   0.76458   0.00000  Uiso   1.00
H569   H     0.84347   0.21633   0.77811   0.00000  Uiso   1.00
C570   C     0.68790   0.10558   0.56724   0.00000  Uiso   1.00
N571   N     0.72853   0.08257   0.58119   0.00000  Uiso   1.00
C572   C     0.91399   0.32667   0.71355   0.00000  Uiso   1.00
N573   N     0.86682   0.30998   0.69381   0.00000  Uiso   1.00
N574   N     0.82565   0.10308   0.72073   0.00000  Uiso   1.00
O575   O     0.82146   0.06535   0.75286   0.00000  Uiso   1.00
O576   O     0.83242   0.09254   0.67107   0.00000  Uiso   1.00
O577   O     0.29769   0.57963   0.75358   0.00000  Uiso   1.00
O578   O     0.05742   0.57038   0.74424   0.00000  Uiso   1.00
C579   C     0.01380   0.59791   0.74651   0.00000  Uiso   1.00
O580   O     0.31490   0.50691   0.83380   0.00000  Uiso   1.00
O581   O     0.07463   0.49766   0.82446   0.00000  Uiso   1.00
C582   C     0.03818   0.51204   0.85340   0.00000  Uiso   1.00
Zn583  Zn    0.27119   0.50618   0.75624   0.00000  Uiso   1.00
Zn584  Zn    0.06214   0.49382   0.74377   0.00000  Uiso   1.00
O585   O     0.27592   0.42962   0.75577   0.00000  Uiso   1.00
O586   O     0.03565   0.42037   0.74643   0.00000  Uiso   1.00
O587   O     0.25870   0.50234   0.67554   0.00000  Uiso   1.00
O588   O     0.01843   0.49309   0.66620   0.00000  Uiso   1.00
C589   C     0.31763   0.40182   0.74831   0.00000  Uiso   1.00
C590   C     0.29656   0.49522   0.64556   0.00000  Uiso   1.00
C591   C     0.28183   0.46934   0.99317   0.00000  Uiso   1.00
H592   H     0.24158   0.49293   0.89035   0.00000  Uiso   1.00
H593   H     0.30462   0.45199   0.96416   0.00000  Uiso   1.00
C594   C     0.27543   0.49263   0.58640   0.00000  Uiso   1.00
C595   C     0.02780   0.55298   0.94351   0.00000  Uiso   1.00
C596   C     0.04949   0.56281   0.99995   0.00000  Uiso   1.00
C597   C     0.10571   0.55031   0.52406   0.00000  Uiso   1.00
C598   C     0.14354   0.53340   0.99072   0.00000  Uiso   1.00
C599   C     0.12381   0.53233   0.93324   0.00000  Uiso   1.00
C600   C     0.19935   0.51536   0.51134   0.00000  Uiso   1.00
C601   C     0.23166   0.49506   0.97425   0.00000  Uiso   1.00
C602   C     0.21514   0.50361   0.91891   0.00000  Uiso   1.00
C603   C     0.16521   0.52821   0.90048   0.00000  Uiso   1.00
C604   C     0.22352   0.51573   0.56713   0.00000  Uiso   1.00
C605   C     0.30374   0.46732   0.54936   0.00000  Uiso   1.00
C606   C     0.06341   0.53330   0.91041   0.00000  Uiso   1.00
H607   H     0.20306   0.53498   0.59640   0.00000  Uiso   1.00
H608   H     0.31651   0.56017   0.92594   0.00000  Uiso   1.00
H609   H     0.11784   0.55416   0.56840   0.00000  Uiso   1.00
H610   H     0.02137   0.57706   0.52555   0.00000  Uiso   1.00
H611   H     0.15868   0.54269   0.86014   0.00000  Uiso   1.00
C612   C     0.02050   0.65252   0.74629   0.00000  Uiso   1.00
H613   H     0.06494   0.33663   0.75938   0.00000  Uiso   1.00
C614   C     0.30686   0.34737   0.73815   0.00000  Uiso   1.00
N615   N     0.14493   0.48556   0.73543   0.00000  Uiso   1.00
N616   N     0.18840   0.51444   0.76458   0.00000  Uiso   1.00
H617   H     0.17681   0.54967   0.77811   0.00000  Uiso   1.00
C618   C     0.02123   0.43891   0.56724   0.00000  Uiso   1.00
N619   N     0.06186   0.41591   0.58119   0.00000  Uiso   1.00
C620   C     0.24732   0.66001   0.71355   0.00000  Uiso   1.00
N621   N     0.20016   0.64331   0.69381   0.00000  Uiso   1.00
N622   N     0.15898   0.43641   0.72073   0.00000  Uiso   1.00
O623   O     0.15479   0.39868   0.75286   0.00000  Uiso   1.00
O624   O     0.16575   0.42588   0.67107   0.00000  Uiso   1.00
O625   O     0.63102   0.57963   0.75358   0.00000  Uiso   1.00
O626   O     0.39075   0.57038   0.74424   0.00000  Uiso   1.00
C627   C     0.34714   0.59791   0.74651   0.00000  Uiso   1.00
O628   O     0.64823   0.50691   0.83380   0.00000  Uiso   1.00
O629   O     0.40796   0.49766   0.82446   0.00000  Uiso   1.00
C630   C     0.37151   0.51204   0.85340   0.00000  Uiso   1.00
Zn631  Zn    0.60453   0.50618   0.75624   0.00000  Uiso   1.00
Zn632  Zn    0.39547   0.49382   0.74377   0.00000  Uiso   1.00
O633   O     0.60925   0.42962   0.75577   0.00000  Uiso   1.00
O634   O     0.36898   0.42037   0.74643   0.00000  Uiso   1.00
O635   O     0.59204   0.50234   0.67554   0.00000  Uiso   1.00
O636   O     0.35177   0.49309   0.66620   0.00000  Uiso   1.00
C637   C     0.65096   0.40182   0.74831   0.00000  Uiso   1.00
C638   C     0.62990   0.49522   0.64556   0.00000  Uiso   1.00
C639   C     0.61517   0.46934   0.99317   0.00000  Uiso   1.00
H640   H     0.57491   0.49293   0.89035   0.00000  Uiso   1.00
H641   H     0.63796   0.45199   0.96416   0.00000  Uiso   1.00
C642   C     0.60876   0.49263   0.58640   0.00000  Uiso   1.00
C643   C     0.36113   0.55298   0.94351   0.00000  Uiso   1.00
C644   C     0.38283   0.56281   0.99995   0.00000  Uiso   1.00
C645   C     0.43904   0.55031   0.52406   0.00000  Uiso   1.00
C646   C     0.47687   0.53340   0.99072   0.00000  Uiso   1.00
C647   C     0.45715   0.53233   0.93324   0.00000  Uiso   1.00
C648   C     0.53268   0.51536   0.51134   0.00000  Uiso   1.00
C649   C     0.56500   0.49506   0.97425   0.00000  Uiso   1.00
C650   C     0.54847   0.50361   0.91891   0.00000  Uiso   1.00
C651   C     0.49855   0.52821   0.90048   0.00000  Uiso   1.00
C652   C     0.55685   0.51573   0.56713   0.00000  Uiso   1.00
C653   C     0.63707   0.46732   0.54936   0.00000  Uiso   1.00
C654   C     0.39674   0.53330   0.91041   0.00000  Uiso   1.00
H655   H     0.53640   0.53498   0.59640   0.00000  Uiso   1.00
H656   H     0.64985   0.56017   0.92594   0.00000  Uiso   1.00
H657   H     0.45117   0.55416   0.56840   0.00000  Uiso   1.00
H658   H     0.35471   0.57706   0.52555   0.00000  Uiso   1.00
H659   H     0.49201   0.54269   0.86014   0.00000  Uiso   1.00
C660   C     0.35383   0.65252   0.74629   0.00000  Uiso   1.00
H661   H     0.39827   0.33663   0.75938   0.00000  Uiso   1.00
C662   C     0.64019   0.34737   0.73815   0.00000  Uiso   1.00
N663   N     0.47827   0.48556   0.73543   0.00000  Uiso   1.00
N664   N     0.52173   0.51444   0.76458   0.00000  Uiso   1.00
H665   H     0.51014   0.54967   0.77811   0.00000  Uiso   1.00
C666   C     0.35456   0.43891   0.56724   0.00000  Uiso   1.00
N667   N     0.39519   0.41591   0.58119   0.00000  Uiso   1.00
C668   C     0.58065   0.66001   0.71355   0.00000  Uiso   1.00
N669   N     0.53349   0.64331   0.69381   0.00000  Uiso   1.00
N670   N     0.49232   0.43641   0.72073   0.00000  Uiso   1.00
O671   O     0.48812   0.39868   0.75286   0.00000  Uiso   1.00
O672   O     0.49909   0.42588   0.67107   0.00000  Uiso   1.00
O673   O     0.96435   0.57963   0.75358   0.00000  Uiso   1.00
O674   O     0.72408   0.57038   0.74424   0.00000  Uiso   1.00
C675   C     0.68047   0.59791   0.74651   0.00000  Uiso   1.00
O676   O     0.98157   0.50691   0.83380   0.00000  Uiso   1.00
O677   O     0.74130   0.49766   0.82446   0.00000  Uiso   1.00
C678   C     0.70485   0.51204   0.85340   0.00000  Uiso   1.00
Zn679  Zn    0.93786   0.50618   0.75624   0.00000  Uiso   1.00
Zn680  Zn    0.72881   0.49382   0.74377   0.00000  Uiso   1.00
O681   O     0.94258   0.42962   0.75577   0.00000  Uiso   1.00
O682   O     0.70231   0.42037   0.74643   0.00000  Uiso   1.00
O683   O     0.92537   0.50234   0.67554   0.00000  Uiso   1.00
O684   O     0.68510   0.49309   0.66620   0.00000  Uiso   1.00
C685   C     0.98429   0.40182   0.74831   0.00000  Uiso   1.00
C686   C     0.96323   0.49522   0.64556   0.00000  Uiso   1.00
C687   C     0.94850   0.46934   0.99317   0.00000  Uiso   1.00
H688   H     0.90824   0.49293   0.89035   0.00000  Uiso   1.00
H689   H     0.97129   0.45199   0.96416   0.00000  Uiso   1.00
C690   C     0.94209   0.49263   0.58640   0.00000  Uiso   1.00
C691   C     0.69447   0.55298   0.94351   0.00000  Uiso   1.00
C692   C     0.71616   0.56281   0.99995   0.00000  Uiso   1.00
C693   C     0.77238   0.55031   0.52406   0.00000  Uiso   1.00
C694   C     0.81021   0.53340   0.99072   0.00000  Uiso   1.00
C695   C     0.79048   0.53233   0.93324   0.00000  Uiso   1.00
C696   C     0.86601   0.51536   0.51134   0.00000  Uiso   1.00
C697   C     0.89833   0.49506   0.97425   0.00000  Uiso   1.00
C698   C     0.88180   0.50361   0.91891   0.00000  Uiso   1.00
C699   C     0.83188   0.52821   0.90048   0.00000  Uiso   1.00
C700   C     0.89019   0.51573   0.56713   0.00000  Uiso   1.00
C701   C     0.97041   0.46732   0.54936   0.00000  Uiso   1.00
C702   C     0.73008   0.53330   0.91041   0.00000  Uiso   1.00
H703   H     0.86973   0.53498   0.59640   0.00000  Uiso   1.00
H704   H     0.98318   0.56017   0.92594   0.00000  Uiso   1.00
H705   H     0.78451   0.55416   0.56840   0.00000  Uiso   1.00
H706   H     0.68804   0.57706   0.52555   0.00000  Uiso   1.00
H707   H     0.82535   0.54269   0.86014   0.00000  Uiso   1.00
C708   C     0.68716   0.65252   0.74629   0.00000  Uiso   1.00
H709   H     0.73161   0.33663   0.75938   0.00000  Uiso   1.00
C710   C     0.97353   0.34737   0.73815   0.00000  Uiso   1.00
N711   N     0.81160   0.48556   0.73543   0.00000  Uiso   1.00
N712   N     0.85507   0.51444   0.76458   0.00000  Uiso   1.00
H713   H     0.84347   0.54967   0.77811   0.00000  Uiso   1.00
C714   C     0.68790   0.43891   0.56724   0.00000  Uiso   1.00
N715   N     0.72853   0.41591   0.58119   0.00000  Uiso   1.00
C716   C     0.91399   0.66001   0.71355   0.00000  Uiso   1.00
N717   N     0.86682   0.64331   0.69381   0.00000  Uiso   1.00
N718   N     0.82565   0.43641   0.72073   0.00000  Uiso   1.00
O719   O     0.82146   0.39868   0.75286   0.00000  Uiso   1.00
O720   O     0.83242   0.42588   0.67107   0.00000  Uiso   1.00
O721   O     0.29769   0.91296   0.75358   0.00000  Uiso   1.00
O722   O     0.05742   0.90371   0.74424   0.00000  Uiso   1.00
C723   C     0.01380   0.93125   0.74651   0.00000  Uiso   1.00
O724   O     0.31490   0.84024   0.83380   0.00000  Uiso   1.00
O725   O     0.07463   0.83099   0.82446   0.00000  Uiso   1.00
C726   C     0.03818   0.84538   0.85340   0.00000  Uiso   1.00
Zn727  Zn    0.27119   0.83951   0.75624   0.00000  Uiso   1.00
Zn728  Zn    0.06214   0.82716   0.74377   0.00000  Uiso   1.00
O729   O     0.27592   0.76296   0.75577   0.00000  Uiso   1.00
O730   O     0.03565   0.75371   0.74643   0.00000  Uiso   1.00
O731   O     0.25870   0.83567   0.67554   0.00000  Uiso   1.00
O732   O     0.01843   0.82642   0.66620   0.00000  Uiso   1.00
C733   C     0.31763   0.73515   0.74831   0.00000  Uiso   1.00
C734   C     0.29656   0.82856   0.64556   0.00000  Uiso   1.00
C735   C     0.28183   0.80267   0.99317   0.00000  Uiso   1.00
H736   H     0.24158   0.82627   0.89035   0.00000  Uiso   1.00
H737   H     0.30462   0.78533   0.96416   0.00000  Uiso   1.00
C738   C     0.27543   0.82597   0.58640   0.00000  Uiso   1.00
C739   C     0.02780   0.88631   0.94351   0.00000  Uiso   1.00
C740   C     0.04949   0.89614   0.99995   0.00000  Uiso   1.00
C741   C     0.10571   0.88364   0.52406   0.00000  Uiso   1.00
C742   C     0.14354   0.86673   0.99072   0.00000  Uiso   1.00
C743   C     0.12381   0.86567   0.93324   0.00000  Uiso   1.00
C744   C     0.19935   0.84869   0.51134   0.00000  Uiso   1.00
C745   C     0.23166   0.82840   0.97425   0.00000  Uiso   1.00
C746   C     0.21514   0.83694   0.91891   0.00000  Uiso   1.00
C747   C     0.16521   0.86155   0.90048   0.00000  Uiso   1.00
C748   C     0.22352   0.84906   0.56713   0.00000  Uiso   1.00
C749   C     0.30374   0.80066   0.54936   0.00000  Uiso   1.00
C750   C     0.06341   0.86664   0.91041   0.00000  Uiso   1.00
H751   H     0.20306   0.86831   0.59640   0.00000  Uiso   1.00
H752   H     0.31651   0.89351   0.92594   0.00000  Uiso   1.00
H753   H     0.11784   0.88749   0.56840   0.00000  Uiso   1.00
H754   H     0.02137   0.91040   0.52555   0.00000  Uiso   1.00
H755   H     0.15868   0.87603   0.86014   0.00000  Uiso   1.00
C756   C     0.02050   0.98586   0.74629   0.00000  Uiso   1.00
H757   H     0.06494   0.66996   0.75938   0.00000  Uiso   1.00
C758   C     0.30686   0.68070   0.73815   0.00000  Uiso   1.00
N759   N     0.14493   0.81890   0.73543   0.00000  Uiso   1.00
N760   N     0.18840   0.84777   0.76458   0.00000  Uiso   1.00
H761   H     0.17681   0.88300   0.77811   0.00000  Uiso   1.00
C762   C     0.02123   0.77225   0.56724   0.00000  Uiso   1.00
N763   N     0.06186   0.74924   0.58119   0.00000  Uiso   1.00
C764   C     0.24732   0.99334   0.71355   0.00000  Uiso   1.00
N765   N     0.20016   0.97664   0.69381   0.00000  Uiso   1.00
N766   N     0.15898   0.76974   0.72073   0.00000  Uiso   1.00
O767   O     0.15479   0.73202   0.75286   0.00000  Uiso   1.00
O768   O     0.16575   0.75921   0.67107   0.00000  Uiso   1.00
O769   O     0.63102   0.91296   0.75358   0.00000  Uiso   1.00
O770   O     0.39075   0.90371   0.74424   0.00000  Uiso   1.00
C771   C     0.34714   0.93125   0.74651   0.00000  Uiso   1.00
O772   O     0.64823   0.84024   0.83380   0.00000  Uiso   1.00
O773   O     0.40796   0.83099   0.82446   0.00000  Uiso   1.00
C774   C     0.37151   0.84538   0.85340   0.00000  Uiso   1.00
Zn775  Zn    0.60453   0.83951   0.75624   0.00000  Uiso   1.00
Zn776  Zn    0.39547   0.82716   0.74377   0.00000  Uiso   1.00
O777   O     0.60925   0.76296   0.75577   0.00000  Uiso   1.00
O778   O     0.36898   0.75371   0.74643   0.00000  Uiso   1.00
O779   O     0.59204   0.83567   0.67554   0.00000  Uiso   1.00
O780   O     0.35177   0.82642   0.66620   0.00000  Uiso   1.00
C781   C     0.65096   0.73515   0.74831   0.00000  Uiso   1.00
C782   C     0.62990   0.82856   0.64556   0.00000  Uiso   1.00
C783   C     0.61517   0.80267   0.99317   0.00000  Uiso   1.00
H784   H     0.57491   0.82627   0.89035   0.00000  Uiso   1.00
H785   H     0.63796   0.78533   0.96416   0.00000  Uiso   1.00
C786   C     0.60876   0.82597   0.58640   0.00000  Uiso   1.00
C787   C     0.36113   0.88631   0.94351   0.00000  Uiso   1.00
C788   C     0.38283   0.89614   0.99995   0.00000  Uiso   1.00
C789   C     0.43904   0.88364   0.52406   0.00000  Uiso   1.00
C790   C     0.47687   0.86673   0.99072   0.00000  Uiso   1.00
C791   C     0.45715   0.86567   0.93324   0.00000  Uiso   1.00
C792   C     0.53268   0.84869   0.51134   0.00000  Uiso   1.00
C793   C     0.56500   0.82840   0.97425   0.00000  Uiso   1.00
C794   C     0.54847   0.83694   0.91891   0.00000  Uiso   1.00
C795   C     0.49855   0.86155   0.90048   0.00000  Uiso   1.00
C796   C     0.55685   0.84906   0.56713   0.00000  Uiso   1.00
C797   C     0.63707   0.80066   0.54936   0.00000  Uiso   1.00
C798   C     0.39674   0.86664   0.91041   0.00000  Uiso   1.00
H799   H     0.53640   0.86831   0.59640   0.00000  Uiso   1.00
H800   H     0.64985   0.89351   0.92594   0.00000  Uiso   1.00
H801   H     0.45117   0.88749   0.56840   0.00000  Uiso   1.00
H802   H     0.35471   0.91040   0.52555   0.00000  Uiso   1.00
H803   H     0.49201   0.87603   0.86014   0.00000  Uiso   1.00
C804   C     0.35383   0.98586   0.74629   0.00000  Uiso   1.00
H805   H     0.39827   0.66996   0.75938   0.00000  Uiso   1.00
C806   C     0.64019   0.68070   0.73815   0.00000  Uiso   1.00
N807   N     0.47827   0.81890   0.73543   0.00000  Uiso   1.00
N808   N     0.52173   0.84777   0.76458   0.00000  Uiso   1.00
H809   H     0.51014   0.88300   0.77811   0.00000  Uiso   1.00
C810   C     0.35456   0.77225   0.56724   0.00000  Uiso   1.00
N811   N     0.39519   0.74924   0.58119   0.00000  Uiso   1.00
C812   C     0.58065   0.99334   0.71355   0.00000  Uiso   1.00
N813   N     0.53349   0.97664   0.69381   0.00000  Uiso   1.00
N814   N     0.49232   0.76974   0.72073   0.00000  Uiso   1.00
O815   O     0.48812   0.73202   0.75286   0.00000  Uiso   1.00
O816   O     0.49909   0.75921   0.67107   0.00000  Uiso   1.00
O817   O     0.96435   0.91296   0.75358   0.00000  Uiso   1.00
O818   O     0.72408   0.90371   0.74424   0.00000  Uiso   1.00
C819   C     0.68047   0.93125   0.74651   0.00000  Uiso   1.00
O820   O     0.98157   0.84024   0.83380   0.00000  Uiso   1.00
O821   O     0.74130   0.83099   0.82446   0.00000  Uiso   1.00
C822   C     0.70485   0.84538   0.85340   0.00000  Uiso   1.00
Zn823  Zn    0.93786   0.83951   0.75624   0.00000  Uiso   1.00
Zn824  Zn    0.72881   0.82716   0.74377   0.00000  Uiso   1.00
O825   O     0.94258   0.76296   0.75577   0.00000  Uiso   1.00
O826   O     0.70231   0.75371   0.74643   0.00000  Uiso   1.00
O827   O     0.92537   0.83567   0.67554   0.00000  Uiso   1.00
O828   O     0.68510   0.82642   0.66620   0.00000  Uiso   1.00
C829   C     0.98429   0.73515   0.74831   0.00000  Uiso   1.00
C830   C     0.96323   0.82856   0.64556   0.00000  Uiso   1.00
C831   C     0.94850   0.80267   0.99317   0.00000  Uiso   1.00
H832   H     0.90824   0.82627   0.89035   0.00000  Uiso   1.00
H833   H     0.97129   0.78533   0.96416   0.00000  Uiso   1.00
C834   C     0.94209   0.82597   0.58640   0.00000  Uiso   1.00
C835   C     0.69447   0.88631   0.94351   0.00000  Uiso   1.00
C836   C     0.71616   0.89614   0.99995   0.00000  Uiso   1.00
C837   C     0.77238   0.88364   0.52406   0.00000  Uiso   1.00
C838   C     0.81021   0.86673   0.99072   0.00000  Uiso   1.00
C839   C     0.79048   0.86567   0.93324   0.00000  Uiso   1.00
C840   C     0.86601   0.84869   0.51134   0.00000  Uiso   1.00
C841   C     0.89833   0.82840   0.97425   0.00000  Uiso   1.00
C842   C     0.88180   0.83694   0.91891   0.00000  Uiso   1.00
C843   C     0.83188   0.86155   0.90048   0.00000  Uiso   1.00
C844   C     0.89019   0.84906   0.56713   0.00000  Uiso   1.00
C845   C     0.97041   0.80066   0.54936   0.00000  Uiso   1.00
C846   C     0.73008   0.86664   0.91041   0.00000  Uiso   1.00
H847   H     0.86973   0.86831   0.59640   0.00000  Uiso   1.00
H848   H     0.98318   0.89351   0.92594   0.00000  Uiso   1.00
H849   H     0.78451   0.88749   0.56840   0.00000  Uiso   1.00
H850   H     0.68804   0.91040   0.52555   0.00000  Uiso   1.00
H851   H     0.82535   0.87603   0.86014   0.00000  Uiso   1.00
C852   C     0.68716   0.98586   0.74629   0.00000  Uiso   1.00
H853   H     0.73161   0.66996   0.75938   0.00000  Uiso   1.00
C854   C     0.97353   0.68070   0.73815   0.00000  Uiso   1.00
N855   N     0.81160   0.81890   0.73543   0.00000  Uiso   1.00
N856   N     0.85507   0.84777   0.76458   0.00000  Uiso   1.00
H857   H     0.84347   0.88300   0.77811   0.00000  Uiso   1.00
C858   C     0.68790   0.77225   0.56724   0.00000  Uiso   1.00
N859   N     0.72853   0.74924   0.58119   0.00000  Uiso   1.00
C860   C     0.91399   0.99334   0.71355   0.00000  Uiso   1.00
N861   N     0.86682   0.97664   0.69381   0.00000  Uiso   1.00
N862   N     0.82565   0.76974   0.72073   0.00000  Uiso   1.00
O863   O     0.82146   0.73202   0.75286   0.00000  Uiso   1.00
O864   O     0.83242   0.75921   0.67107   0.00000  Uiso   1.00
loop_
_geom_bond_atom_site_label_1
_geom_bond_atom_site_label_2
_geom_bond_distance
_geom_bond_site_symmetry_2
_ccdc_geom_bond_type
O1     Zn7     1.962   .     S
O1     C51     1.277   .     S
O2     C3      1.296   .     A
O2     Zn8     1.983   .     S
C3     C36     1.406   .     S
C3     O97     1.277   1_455 S
O4     Zn7     1.982   .     S
O4     C54     1.312   .     S
O5     Zn8     1.964   .     S
O5     C6      1.295   .     A
C6     C30     1.479   .     S
C6     O100    1.312   1_455 S
Zn7    N40     2.028   .     S
Zn7    O11     1.964   .     S
Zn7    O9      1.983   .     S
Zn8    N39     2.028   .     S
Zn8    O12     1.982   .     S
Zn8    O10     1.962   .     S
O9     C13     1.293   .     A
O10    C109    1.281   1_455 S
O11    C14     1.297   .     A
O12    C110    1.296   1_455 S
C13    C38     1.410   .     S
C13    O58     1.281   .     S
C14    C18     1.447   .     S
C14    O60     1.296   .     S
C15    C25     1.396   .     A
C15    H17     1.086   .     S
C15    C461    1.388   .     S
H16    C26     1.079   .     S
C18    C29     1.410   .     A
C18    C28     1.396   .     A
C19    C20     1.393   .     A
C19    C30     1.398   .     A
C19    H128    1.079   1_455 S
C20    C453    1.395   .     S
C20    H466    1.083   .     S
C21    H33     1.077   .     S
C21    C452    1.395   1_554 S
C21    C454    1.418   1_554 S
C22    C23     1.405   .     A
C22    C453    1.418   .     S
C22    C456    1.420   .     S
C23    C27     1.406   .     A
C23    C30     1.415   .     A
C24    C28     1.383   .     A
C24    C454    1.420   1_554 S
C24    C457    1.420   1_554 S
C25    C26     1.381   .     A
C25    C456    1.420   .     S
C26    C27     1.374   .     A
C27    H35     1.072   .     S
C28    H31     1.077   .     S
C29    C447    1.388   1_554 S
C29    C90     1.443   .     S
H32    C67     1.079   .     S
H34    C452    1.083   1_554 S
C36    H181    1.086   .     S
C36    C278    1.347   1_455 S
H37    C324    1.086   1_545 S
C38    C372    1.347   1_545 S
C38    C332    1.457   1_545 S
N39    N46     1.383   .     S
N39    N40     1.286   .     D
N40    H41     1.028   .     S
C42    N43     1.157   .     T
C42    C125    1.443   1_455 S
C44    N45     1.158   .     T
C44    C182    1.457   .     S
N46    O48     1.300   .     A
N46    O47     1.300   .     A
O49    Zn55    1.962   .     S
O49    C99     1.277   .     S
O50    C51     1.296   .     A
O50    Zn56    1.983   .     S
C51    C84     1.406   .     S
O52    Zn55    1.982   .     S
O52    C102    1.312   .     S
O53    Zn56    1.964   .     S
O53    C54     1.295   .     A
C54    C78     1.479   .     S
Zn55   N88     2.028   .     S
Zn55   O59     1.964   .     S
Zn55   O57     1.983   .     S
Zn56   N87     2.028   .     S
Zn56   O60     1.982   .     S
Zn56   O58     1.962   .     S
O57    C61     1.293   .     A
O59    C62     1.297   .     A
C61    C86     1.410   .     S
C61    O106    1.281   .     S
C62    C66     1.447   .     S
C62    O108    1.296   .     S
C63    C73     1.396   .     A
C63    H65     1.086   .     S
C63    C509    1.388   .     S
H64    C74     1.079   .     S
C66    C77     1.410   .     A
C66    C76     1.396   .     A
C67    C68     1.393   .     A
C67    C78     1.398   .     A
C68    C501    1.395   .     S
C68    H514    1.083   .     S
C69    H81     1.077   .     S
C69    C500    1.395   1_554 S
C69    C502    1.418   1_554 S
C70    C71     1.405   .     A
C70    C501    1.418   .     S
C70    C504    1.420   .     S
C71    C75     1.406   .     A
C71    C78     1.415   .     A
C72    C76     1.383   .     A
C72    C502    1.420   1_554 S
C72    C505    1.420   1_554 S
C73    C74     1.381   .     A
C73    C504    1.420   .     S
C74    C75     1.374   .     A
C75    H83     1.072   .     S
C76    H79     1.077   .     S
C77    C495    1.388   1_554 S
C77    C138    1.443   .     S
H80    C115    1.079   .     S
H82    C500    1.083   1_554 S
C84    H229    1.086   .     S
C84    C182    1.347   .     S
H85    C372    1.086   1_545 S
C86    C420    1.347   1_545 S
C86    C380    1.457   1_545 S
N87    N94     1.383   .     S
N87    N88     1.286   .     D
N88    H89     1.028   .     S
C90    N91     1.157   .     T
C92    N93     1.158   .     T
C92    C230    1.457   .     S
N94    O96     1.300   .     A
N94    O95     1.300   .     A
O97    Zn103   1.962   .     S
O97    C3      1.277   1_655 S
O98    C99     1.296   .     A
O98    Zn104   1.983   .     S
C99    C132    1.406   .     S
O100   Zn103   1.982   .     S
O100   C6      1.312   1_655 S
O101   Zn104   1.964   .     S
O101   C102    1.295   .     A
C102   C126    1.479   .     S
Zn103  N136    2.028   .     S
Zn103  O107    1.964   .     S
Zn103  O105    1.983   .     S
Zn104  N135    2.028   .     S
Zn104  O108    1.982   .     S
Zn104  O106    1.962   .     S
O105   C109    1.293   .     A
O107   C110    1.297   .     A
C109   C134    1.410   .     S
C109   O10     1.281   1_655 S
C110   C114    1.447   .     S
C110   O12     1.296   1_655 S
C111   C121    1.396   .     A
C111   H113    1.086   .     S
C111   C557    1.388   .     S
H112   C122    1.079   .     S
C114   C125    1.410   .     A
C114   C124    1.396   .     A
C115   C116    1.393   .     A
C115   C126    1.398   .     A
C116   C549    1.395   .     S
C116   H562    1.083   .     S
C117   H129    1.077   .     S
C117   C548    1.395   1_554 S
C117   C550    1.418   1_554 S
C118   C119    1.405   .     A
C118   C549    1.418   .     S
C118   C552    1.420   .     S
C119   C123    1.406   .     A
C119   C126    1.415   .     A
C120   C124    1.383   .     A
C120   C550    1.420   1_554 S
C120   C553    1.420   1_554 S
C121   C122    1.381   .     A
C121   C552    1.420   .     S
C122   C123    1.374   .     A
C123   H131    1.072   .     S
C124   H127    1.077   .     S
C125   C543    1.388   1_554 S
C125   C42     1.443   1_655 S
H128   C19     1.079   1_655 S
H130   C548    1.083   1_554 S
C132   H277    1.086   .     S
C132   C230    1.347   .     S
H133   C420    1.086   1_545 S
C134   C324    1.347   1_645 S
C134   C428    1.457   1_545 S
N135   N142    1.383   .     S
N135   N136    1.286   .     D
N136   H137    1.028   .     S
C138   N139    1.157   .     T
C140   N141    1.158   .     T
C140   C278    1.457   .     S
N142   O144    1.300   .     A
N142   O143    1.300   .     A
O145   Zn151   1.962   .     S
O145   C195    1.277   .     S
O146   C147    1.296   .     A
O146   Zn152   1.983   .     S
C147   C180    1.406   .     S
C147   O241    1.277   1_455 S
O148   Zn151   1.982   .     S
O148   C198    1.312   .     S
O149   Zn152   1.964   .     S
O149   C150    1.295   .     A
C150   C174    1.479   .     S
C150   O244    1.312   1_455 S
Zn151  N184    2.028   .     S
Zn151  O155    1.964   .     S
Zn151  O153    1.983   .     S
Zn152  N183    2.028   .     S
Zn152  O156    1.982   .     S
Zn152  O154    1.962   .     S
O153   C157    1.293   .     A
O154   C253    1.281   1_455 S
O155   C158    1.297   .     A
O156   C254    1.296   1_455 S
C157   C182    1.410   .     S
C157   O202    1.281   .     S
C158   C162    1.447   .     S
C158   O204    1.296   .     S
C159   C169    1.396   .     A
C159   H161    1.086   .     S
C159   C605    1.388   .     S
H160   C170    1.079   .     S
C162   C173    1.410   .     A
C162   C172    1.396   .     A
C163   C164    1.393   .     A
C163   C174    1.398   .     A
C163   H272    1.079   1_455 S
C164   C597    1.395   .     S
C164   H610    1.083   .     S
C165   H177    1.077   .     S
C165   C596    1.395   1_554 S
C165   C598    1.418   1_554 S
C166   C167    1.405   .     A
C166   C597    1.418   .     S
C166   C600    1.420   .     S
C167   C171    1.406   .     A
C167   C174    1.415   .     A
C168   C172    1.383   .     A
C168   C598    1.420   1_554 S
C168   C601    1.420   1_554 S
C169   C170    1.381   .     A
C169   C600    1.420   .     S
C170   C171    1.374   .     A
C171   H179    1.072   .     S
C172   H175    1.077   .     S
C173   C591    1.388   1_554 S
C173   C234    1.443   .     S
H176   C211    1.079   .     S
H178   C596    1.083   1_554 S
C180   H325    1.086   .     S
C180   C422    1.347   1_455 S
N183   N190    1.383   .     S
N183   N184    1.286   .     D
N184   H185    1.028   .     S
C186   N187    1.157   .     T
C186   C269    1.443   1_455 S
C188   N189    1.158   .     T
C188   C326    1.457   .     S
N190   O192    1.300   .     A
N190   O191    1.300   .     A
O193   Zn199   1.962   .     S
O193   C243    1.277   .     S
O194   C195    1.296   .     A
O194   Zn200   1.983   .     S
C195   C228    1.406   .     S
O196   Zn199   1.982   .     S
O196   C246    1.312   .     S
O197   Zn200   1.964   .     S
O197   C198    1.295   .     A
C198   C222    1.479   .     S
Zn199  N232    2.028   .     S
Zn199  O203    1.964   .     S
Zn199  O201    1.983   .     S
Zn200  N231    2.028   .     S
Zn200  O204    1.982   .     S
Zn200  O202    1.962   .     S
O201   C205    1.293   .     A
O203   C206    1.297   .     A
C205   C230    1.410   .     S
C205   O250    1.281   .     S
C206   C210    1.447   .     S
C206   O252    1.296   .     S
C207   C217    1.396   .     A
C207   H209    1.086   .     S
C207   C653    1.388   .     S
H208   C218    1.079   .     S
C210   C221    1.410   .     A
C210   C220    1.396   .     A
C211   C212    1.393   .     A
C211   C222    1.398   .     A
C212   C645    1.395   .     S
C212   H658    1.083   .     S
C213   H225    1.077   .     S
C213   C644    1.395   1_554 S
C213   C646    1.418   1_554 S
C214   C215    1.405   .     A
C214   C645    1.418   .     S
C214   C648    1.420   .     S
C215   C219    1.406   .     A
C215   C222    1.415   .     A
C216   C220    1.383   .     A
C216   C646    1.420   1_554 S
C216   C649    1.420   1_554 S
C217   C218    1.381   .     A
C217   C648    1.420   .     S
C218   C219    1.374   .     A
C219   H227    1.072   .     S
C220   H223    1.077   .     S
C221   C639    1.388   1_554 S
C221   C282    1.443   .     S
H224   C259    1.079   .     S
H226   C644    1.083   1_554 S
C228   H373    1.086   .     S
C228   C326    1.347   .     S
N231   N238    1.383   .     S
N231   N232    1.286   .     D
N232   H233    1.028   .     S
C234   N235    1.157   .     T
C236   N237    1.158   .     T
C236   C374    1.457   .     S
N238   O240    1.300   .     A
N238   O239    1.300   .     A
O241   Zn247   1.962   .     S
O241   C147    1.277   1_655 S
O242   C243    1.296   .     A
O242   Zn248   1.983   .     S
C243   C276    1.406   .     S
O244   Zn247   1.982   .     S
O244   C150    1.312   1_655 S
O245   Zn248   1.964   .     S
O245   C246    1.295   .     A
C246   C270    1.479   .     S
Zn247  N280    2.028   .     S
Zn247  O251    1.964   .     S
Zn247  O249    1.983   .     S
Zn248  N279    2.028   .     S
Zn248  O252    1.982   .     S
Zn248  O250    1.962   .     S
O249   C253    1.293   .     A
O251   C254    1.297   .     A
C253   C278    1.410   .     S
C253   O154    1.281   1_655 S
C254   C258    1.447   .     S
C254   O156    1.296   1_655 S
C255   C265    1.396   .     A
C255   H257    1.086   .     S
C255   C701    1.388   .     S
H256   C266    1.079   .     S
C258   C269    1.410   .     A
C258   C268    1.396   .     A
C259   C260    1.393   .     A
C259   C270    1.398   .     A
C260   C693    1.395   .     S
C260   H706    1.083   .     S
C261   H273    1.077   .     S
C261   C692    1.395   1_554 S
C261   C694    1.418   1_554 S
C262   C263    1.405   .     A
C262   C693    1.418   .     S
C262   C696    1.420   .     S
C263   C267    1.406   .     A
C263   C270    1.415   .     A
C264   C268    1.383   .     A
C264   C694    1.420   1_554 S
C264   C697    1.420   1_554 S
C265   C266    1.381   .     A
C265   C696    1.420   .     S
C266   C267    1.374   .     A
C267   H275    1.072   .     S
C268   H271    1.077   .     S
C269   C687    1.388   1_554 S
C269   C186    1.443   1_655 S
H272   C163    1.079   1_655 S
H274   C692    1.083   1_554 S
C276   H421    1.086   .     S
C276   C374    1.347   .     S
C278   C36     1.347   1_655 S
N279   N286    1.383   .     S
N279   N280    1.286   .     D
N280   H281    1.028   .     S
C282   N283    1.157   .     T
C284   N285    1.158   .     T
C284   C422    1.457   .     S
N286   O288    1.300   .     A
N286   O287    1.300   .     A
O289   Zn295   1.962   .     S
O289   C339    1.277   .     S
O290   C291    1.296   .     A
O290   Zn296   1.983   .     S
C291   C324    1.406   .     S
C291   O385    1.277   1_455 S
O292   Zn295   1.982   .     S
O292   C342    1.312   .     S
O293   Zn296   1.964   .     S
O293   C294    1.295   .     A
C294   C318    1.479   .     S
C294   O388    1.312   1_455 S
Zn295  N328    2.028   .     S
Zn295  O299    1.964   .     S
Zn295  O297    1.983   .     S
Zn296  N327    2.028   .     S
Zn296  O300    1.982   .     S
Zn296  O298    1.962   .     S
O297   C301    1.293   .     A
O298   C397    1.281   1_455 S
O299   C302    1.297   .     A
O300   C398    1.296   1_455 S
C301   C326    1.410   .     S
C301   O346    1.281   .     S
C302   C306    1.447   .     S
C302   O348    1.296   .     S
C303   C313    1.396   .     A
C303   H305    1.086   .     S
C303   C749    1.388   .     S
H304   C314    1.079   .     S
C306   C317    1.410   .     A
C306   C316    1.396   .     A
C307   C308    1.393   .     A
C307   C318    1.398   .     A
C307   H416    1.079   1_455 S
C308   C741    1.395   .     S
C308   H754    1.083   .     S
C309   H321    1.077   .     S
C309   C740    1.395   1_554 S
C309   C742    1.418   1_554 S
C310   C311    1.405   .     A
C310   C741    1.418   .     S
C310   C744    1.420   .     S
C311   C315    1.406   .     A
C311   C318    1.415   .     A
C312   C316    1.383   .     A
C312   C742    1.420   1_554 S
C312   C745    1.420   1_554 S
C313   C314    1.381   .     A
C313   C744    1.420   .     S
C314   C315    1.374   .     A
C315   H323    1.072   .     S
C316   H319    1.077   .     S
C317   C735    1.388   1_554 S
C317   C378    1.443   .     S
H320   C355    1.079   .     S
H322   C740    1.083   1_554 S
C324   H37     1.086   1_565 S
C324   C134    1.347   1_465 S
N327   N334    1.383   .     S
N327   N328    1.286   .     D
N328   H329    1.028   .     S
C330   N331    1.157   .     T
C330   C413    1.443   1_455 S
C332   N333    1.158   .     T
C332   C38     1.457   1_565 S
N334   O336    1.300   .     A
N334   O335    1.300   .     A
O337   Zn343   1.962   .     S
O337   C387    1.277   .     S
O338   C339    1.296   .     A
O338   Zn344   1.983   .     S
C339   C372    1.406   .     S
O340   Zn343   1.982   .     S
O340   C390    1.312   .     S
O341   Zn344   1.964   .     S
O341   C342    1.295   .     A
C342   C366    1.479   .     S
Zn343  N376    2.028   .     S
Zn343  O347    1.964   .     S
Zn343  O345    1.983   .     S
Zn344  N375    2.028   .     S
Zn344  O348    1.982   .     S
Zn344  O346    1.962   .     S
O345   C349    1.293   .     A
O347   C350    1.297   .     A
C349   C374    1.410   .     S
C349   O394    1.281   .     S
C350   C354    1.447   .     S
C350   O396    1.296   .     S
C351   C361    1.396   .     A
C351   H353    1.086   .     S
C351   C797    1.388   .     S
H352   C362    1.079   .     S
C354   C365    1.410   .     A
C354   C364    1.396   .     A
C355   C356    1.393   .     A
C355   C366    1.398   .     A
C356   C789    1.395   .     S
C356   H802    1.083   .     S
C357   H369    1.077   .     S
C357   C788    1.395   1_554 S
C357   C790    1.418   1_554 S
C358   C359    1.405   .     A
C358   C789    1.418   .     S
C358   C792    1.420   .     S
C359   C363    1.406   .     A
C359   C366    1.415   .     A
C360   C364    1.383   .     A
C360   C790    1.420   1_554 S
C360   C793    1.420   1_554 S
C361   C362    1.381   .     A
C361   C792    1.420   .     S
C362   C363    1.374   .     A
C363   H371    1.072   .     S
C364   H367    1.077   .     S
C365   C783    1.388   1_554 S
C365   C426    1.443   .     S
H368   C403    1.079   .     S
H370   C788    1.083   1_554 S
C372   H85     1.086   1_565 S
C372   C38     1.347   1_565 S
N375   N382    1.383   .     S
N375   N376    1.286   .     D
N376   H377    1.028   .     S
C378   N379    1.157   .     T
C380   N381    1.158   .     T
C380   C86     1.457   1_565 S
N382   O384    1.300   .     A
N382   O383    1.300   .     A
O385   Zn391   1.962   .     S
O385   C291    1.277   1_655 S
O386   C387    1.296   .     A
O386   Zn392   1.983   .     S
C387   C420    1.406   .     S
O388   Zn391   1.982   .     S
O388   C294    1.312   1_655 S
O389   Zn392   1.964   .     S
O389   C390    1.295   .     A
C390   C414    1.479   .     S
Zn391  N424    2.028   .     S
Zn391  O395    1.964   .     S
Zn391  O393    1.983   .     S
Zn392  N423    2.028   .     S
Zn392  O396    1.982   .     S
Zn392  O394    1.962   .     S
O393   C397    1.293   .     A
O395   C398    1.297   .     A
C397   C422    1.410   .     S
C397   O298    1.281   1_655 S
C398   C402    1.447   .     S
C398   O300    1.296   1_655 S
C399   C409    1.396   .     A
C399   H401    1.086   .     S
C399   C845    1.388   .     S
H400   C410    1.079   .     S
C402   C413    1.410   .     A
C402   C412    1.396   .     A
C403   C404    1.393   .     A
C403   C414    1.398   .     A
C404   C837    1.395   .     S
C404   H850    1.083   .     S
C405   H417    1.077   .     S
C405   C836    1.395   1_554 S
C405   C838    1.418   1_554 S
C406   C407    1.405   .     A
C406   C837    1.418   .     S
C406   C840    1.420   .     S
C407   C411    1.406   .     A
C407   C414    1.415   .     A
C408   C412    1.383   .     A
C408   C838    1.420   1_554 S
C408   C841    1.420   1_554 S
C409   C410    1.381   .     A
C409   C840    1.420   .     S
C410   C411    1.374   .     A
C411   H419    1.072   .     S
C412   H415    1.077   .     S
C413   C831    1.388   1_554 S
C413   C330    1.443   1_655 S
H416   C307    1.079   1_655 S
H418   C836    1.083   1_554 S
C420   H133    1.086   1_565 S
C420   C86     1.347   1_565 S
C422   C180    1.347   1_655 S
N423   N430    1.383   .     S
N423   N424    1.286   .     D
N424   H425    1.028   .     S
C426   N427    1.157   .     T
C428   N429    1.158   .     T
C428   C134    1.457   1_565 S
N430   O432    1.300   .     A
N430   O431    1.300   .     A
O433   Zn439   1.962   .     S
O433   C483    1.277   .     S
O434   C435    1.296   .     A
O434   Zn440   1.983   .     S
C435   C468    1.406   .     S
C435   O529    1.277   1_455 S
O436   Zn439   1.982   .     S
O436   C486    1.312   .     S
O437   Zn440   1.964   .     S
O437   C438    1.295   .     A
C438   C462    1.479   .     S
C438   O532    1.312   1_455 S
Zn439  N472    2.028   .     S
Zn439  O443    1.964   .     S
Zn439  O441    1.983   .     S
Zn440  N471    2.028   .     S
Zn440  O444    1.982   .     S
Zn440  O442    1.962   .     S
O441   C445    1.293   .     A
O442   C541    1.281   1_455 S
O443   C446    1.297   .     A
O444   C542    1.296   1_455 S
C445   C470    1.410   .     S
C445   O490    1.281   .     S
C446   C450    1.447   .     S
C446   O492    1.296   .     S
C447   C457    1.396   .     A
C447   H449    1.086   .     S
C447   C29     1.388   1_556 S
H448   C458    1.079   .     S
C450   C461    1.410   .     A
C450   C460    1.396   .     A
C451   C452    1.393   .     A
C451   C462    1.398   .     A
C451   H560    1.079   1_455 S
C452   C21     1.395   1_556 S
C452   H34     1.083   1_556 S
C453   H465    1.077   .     S
C454   C455    1.405   .     A
C454   C21     1.418   1_556 S
C454   C24     1.420   1_556 S
C455   C459    1.406   .     A
C455   C462    1.415   .     A
C456   C460    1.383   .     A
C457   C458    1.381   .     A
C457   C24     1.420   1_556 S
C458   C459    1.374   .     A
C459   H467    1.072   .     S
C460   H463    1.077   .     S
C461   C522    1.443   .     S
H464   C499    1.079   .     S
C468   H613    1.086   .     S
C468   C710    1.347   1_455 S
H469   C756    1.086   1_545 S
C470   C804    1.347   1_545 S
C470   C764    1.457   1_545 S
N471   N478    1.383   .     S
N471   N472    1.286   .     D
N472   H473    1.028   .     S
C474   N475    1.157   .     T
C474   C557    1.443   1_455 S
C476   N477    1.158   .     T
C476   C614    1.457   .     S
N478   O480    1.300   .     A
N478   O479    1.300   .     A
O481   Zn487   1.962   .     S
O481   C531    1.277   .     S
O482   C483    1.296   .     A
O482   Zn488   1.983   .     S
C483   C516    1.406   .     S
O484   Zn487   1.982   .     S
O484   C534    1.312   .     S
O485   Zn488   1.964   .     S
O485   C486    1.295   .     A
C486   C510    1.479   .     S
Zn487  N520    2.028   .     S
Zn487  O491    1.964   .     S
Zn487  O489    1.983   .     S
Zn488  N519    2.028   .     S
Zn488  O492    1.982   .     S
Zn488  O490    1.962   .     S
O489   C493    1.293   .     A
O491   C494    1.297   .     A
C493   C518    1.410   .     S
C493   O538    1.281   .     S
C494   C498    1.447   .     S
C494   O540    1.296   .     S
C495   C505    1.396   .     A
C495   H497    1.086   .     S
C495   C77     1.388   1_556 S
H496   C506    1.079   .     S
C498   C509    1.410   .     A
C498   C508    1.396   .     A
C499   C500    1.393   .     A
C499   C510    1.398   .     A
C500   C69     1.395   1_556 S
C500   H82     1.083   1_556 S
C501   H513    1.077   .     S
C502   C503    1.405   .     A
C502   C69     1.418   1_556 S
C502   C72     1.420   1_556 S
C503   C507    1.406   .     A
C503   C510    1.415   .     A
C504   C508    1.383   .     A
C505   C506    1.381   .     A
C505   C72     1.420   1_556 S
C506   C507    1.374   .     A
C507   H515    1.072   .     S
C508   H511    1.077   .     S
C509   C570    1.443   .     S
H512   C547    1.079   .     S
C516   H661    1.086   .     S
C516   C614    1.347   .     S
H517   C804    1.086   1_545 S
C518   C852    1.347   1_545 S
C518   C812    1.457   1_545 S
N519   N526    1.383   .     S
N519   N520    1.286   .     D
N520   H521    1.028   .     S
C522   N523    1.157   .     T
C524   N525    1.158   .     T
C524   C662    1.457   .     S
N526   O528    1.300   .     A
N526   O527    1.300   .     A
O529   Zn535   1.962   .     S
O529   C435    1.277   1_655 S
O530   C531    1.296   .     A
O530   Zn536   1.983   .     S
C531   C564    1.406   .     S
O532   Zn535   1.982   .     S
O532   C438    1.312   1_655 S
O533   Zn536   1.964   .     S
O533   C534    1.295   .     A
C534   C558    1.479   .     S
Zn535  N568    2.028   .     S
Zn535  O539    1.964   .     S
Zn535  O537    1.983   .     S
Zn536  N567    2.028   .     S
Zn536  O540    1.982   .     S
Zn536  O538    1.962   .     S
O537   C541    1.293   .     A
O539   C542    1.297   .     A
C541   C566    1.410   .     S
C541   O442    1.281   1_655 S
C542   C546    1.447   .     S
C542   O444    1.296   1_655 S
C543   C553    1.396   .     A
C543   H545    1.086   .     S
C543   C125    1.388   1_556 S
H544   C554    1.079   .     S
C546   C557    1.410   .     A
C546   C556    1.396   .     A
C547   C548    1.393   .     A
C547   C558    1.398   .     A
C548   C117    1.395   1_556 S
C548   H130    1.083   1_556 S
C549   H561    1.077   .     S
C550   C551    1.405   .     A
C550   C117    1.418   1_556 S
C550   C120    1.420   1_556 S
C551   C555    1.406   .     A
C551   C558    1.415   .     A
C552   C556    1.383   .     A
C553   C554    1.381   .     A
C553   C120    1.420   1_556 S
C554   C555    1.374   .     A
C555   H563    1.072   .     S
C556   H559    1.077   .     S
C557   C474    1.443   1_655 S
H560   C451    1.079   1_655 S
C564   H709    1.086   .     S
C564   C662    1.347   .     S
H565   C852    1.086   1_545 S
C566   C756    1.347   1_645 S
C566   C860    1.457   1_545 S
N567   N574    1.383   .     S
N567   N568    1.286   .     D
N568   H569    1.028   .     S
C570   N571    1.157   .     T
C572   N573    1.158   .     T
C572   C710    1.457   .     S
N574   O576    1.300   .     A
N574   O575    1.300   .     A
O577   Zn583   1.962   .     S
O577   C627    1.277   .     S
O578   C579    1.296   .     A
O578   Zn584   1.983   .     S
C579   C612    1.406   .     S
C579   O673    1.277   1_455 S
O580   Zn583   1.982   .     S
O580   C630    1.312   .     S
O581   Zn584   1.964   .     S
O581   C582    1.295   .     A
C582   C606    1.479   .     S
C582   O676    1.312   1_455 S
Zn583  N616    2.028   .     S
Zn583  O587    1.964   .     S
Zn583  O585    1.983   .     S
Zn584  N615    2.028   .     S
Zn584  O588    1.982   .     S
Zn584  O586    1.962   .     S
O585   C589    1.293   .     A
O586   C685    1.281   1_455 S
O587   C590    1.297   .     A
O588   C686    1.296   1_455 S
C589   C614    1.410   .     S
C589   O634    1.281   .     S
C590   C594    1.447   .     S
C590   O636    1.296   .     S
C591   C601    1.396   .     A
C591   H593    1.086   .     S
C591   C173    1.388   1_556 S
H592   C602    1.079   .     S
C594   C605    1.410   .     A
C594   C604    1.396   .     A
C595   C596    1.393   .     A
C595   C606    1.398   .     A
C595   H704    1.079   1_455 S
C596   C165    1.395   1_556 S
C596   H178    1.083   1_556 S
C597   H609    1.077   .     S
C598   C599    1.405   .     A
C598   C165    1.418   1_556 S
C598   C168    1.420   1_556 S
C599   C603    1.406   .     A
C599   C606    1.415   .     A
C600   C604    1.383   .     A
C601   C602    1.381   .     A
C601   C168    1.420   1_556 S
C602   C603    1.374   .     A
C603   H611    1.072   .     S
C604   H607    1.077   .     S
C605   C666    1.443   .     S
H608   C643    1.079   .     S
C612   H757    1.086   .     S
C612   C854    1.347   1_455 S
N615   N622    1.383   .     S
N615   N616    1.286   .     D
N616   H617    1.028   .     S
C618   N619    1.157   .     T
C618   C701    1.443   1_455 S
C620   N621    1.158   .     T
C620   C758    1.457   .     S
N622   O624    1.300   .     A
N622   O623    1.300   .     A
O625   Zn631   1.962   .     S
O625   C675    1.277   .     S
O626   C627    1.296   .     A
O626   Zn632   1.983   .     S
C627   C660    1.406   .     S
O628   Zn631   1.982   .     S
O628   C678    1.312   .     S
O629   Zn632   1.964   .     S
O629   C630    1.295   .     A
C630   C654    1.479   .     S
Zn631  N664    2.028   .     S
Zn631  O635    1.964   .     S
Zn631  O633    1.983   .     S
Zn632  N663    2.028   .     S
Zn632  O636    1.982   .     S
Zn632  O634    1.962   .     S
O633   C637    1.293   .     A
O635   C638    1.297   .     A
C637   C662    1.410   .     S
C637   O682    1.281   .     S
C638   C642    1.447   .     S
C638   O684    1.296   .     S
C639   C649    1.396   .     A
C639   H641    1.086   .     S
C639   C221    1.388   1_556 S
H640   C650    1.079   .     S
C642   C653    1.410   .     A
C642   C652    1.396   .     A
C643   C644    1.393   .     A
C643   C654    1.398   .     A
C644   C213    1.395   1_556 S
C644   H226    1.083   1_556 S
C645   H657    1.077   .     S
C646   C647    1.405   .     A
C646   C213    1.418   1_556 S
C646   C216    1.420   1_556 S
C647   C651    1.406   .     A
C647   C654    1.415   .     A
C648   C652    1.383   .     A
C649   C650    1.381   .     A
C649   C216    1.420   1_556 S
C650   C651    1.374   .     A
C651   H659    1.072   .     S
C652   H655    1.077   .     S
C653   C714    1.443   .     S
H656   C691    1.079   .     S
C660   H805    1.086   .     S
C660   C758    1.347   .     S
N663   N670    1.383   .     S
N663   N664    1.286   .     D
N664   H665    1.028   .     S
C666   N667    1.157   .     T
C668   N669    1.158   .     T
C668   C806    1.457   .     S
N670   O672    1.300   .     A
N670   O671    1.300   .     A
O673   Zn679   1.962   .     S
O673   C579    1.277   1_655 S
O674   C675    1.296   .     A
O674   Zn680   1.983   .     S
C675   C708    1.406   .     S
O676   Zn679   1.982   .     S
O676   C582    1.312   1_655 S
O677   Zn680   1.964   .     S
O677   C678    1.295   .     A
C678   C702    1.479   .     S
Zn679  N712    2.028   .     S
Zn679  O683    1.964   .     S
Zn679  O681    1.983   .     S
Zn680  N711    2.028   .     S
Zn680  O684    1.982   .     S
Zn680  O682    1.962   .     S
O681   C685    1.293   .     A
O683   C686    1.297   .     A
C685   C710    1.410   .     S
C685   O586    1.281   1_655 S
C686   C690    1.447   .     S
C686   O588    1.296   1_655 S
C687   C697    1.396   .     A
C687   H689    1.086   .     S
C687   C269    1.388   1_556 S
H688   C698    1.079   .     S
C690   C701    1.410   .     A
C690   C700    1.396   .     A
C691   C692    1.393   .     A
C691   C702    1.398   .     A
C692   C261    1.395   1_556 S
C692   H274    1.083   1_556 S
C693   H705    1.077   .     S
C694   C695    1.405   .     A
C694   C261    1.418   1_556 S
C694   C264    1.420   1_556 S
C695   C699    1.406   .     A
C695   C702    1.415   .     A
C696   C700    1.383   .     A
C697   C698    1.381   .     A
C697   C264    1.420   1_556 S
C698   C699    1.374   .     A
C699   H707    1.072   .     S
C700   H703    1.077   .     S
C701   C618    1.443   1_655 S
H704   C595    1.079   1_655 S
C708   H853    1.086   .     S
C708   C806    1.347   .     S
C710   C468    1.347   1_655 S
N711   N718    1.383   .     S
N711   N712    1.286   .     D
N712   H713    1.028   .     S
C714   N715    1.157   .     T
C716   N717    1.158   .     T
C716   C854    1.457   .     S
N718   O720    1.300   .     A
N718   O719    1.300   .     A
O721   Zn727   1.962   .     S
O721   C771    1.277   .     S
O722   C723    1.296   .     A
O722   Zn728   1.983   .     S
C723   C756    1.406   .     S
C723   O817    1.277   1_455 S
O724   Zn727   1.982   .     S
O724   C774    1.312   .     S
O725   Zn728   1.964   .     S
O725   C726    1.295   .     A
C726   C750    1.479   .     S
C726   O820    1.312   1_455 S
Zn727  N760    2.028   .     S
Zn727  O731    1.964   .     S
Zn727  O729    1.983   .     S
Zn728  N759    2.028   .     S
Zn728  O732    1.982   .     S
Zn728  O730    1.962   .     S
O729   C733    1.293   .     A
O730   C829    1.281   1_455 S
O731   C734    1.297   .     A
O732   C830    1.296   1_455 S
C733   C758    1.410   .     S
C733   O778    1.281   .     S
C734   C738    1.447   .     S
C734   O780    1.296   .     S
C735   C745    1.396   .     A
C735   H737    1.086   .     S
C735   C317    1.388   1_556 S
H736   C746    1.079   .     S
C738   C749    1.410   .     A
C738   C748    1.396   .     A
C739   C740    1.393   .     A
C739   C750    1.398   .     A
C739   H848    1.079   1_455 S
C740   C309    1.395   1_556 S
C740   H322    1.083   1_556 S
C741   H753    1.077   .     S
C742   C743    1.405   .     A
C742   C309    1.418   1_556 S
C742   C312    1.420   1_556 S
C743   C747    1.406   .     A
C743   C750    1.415   .     A
C744   C748    1.383   .     A
C745   C746    1.381   .     A
C745   C312    1.420   1_556 S
C746   C747    1.374   .     A
C747   H755    1.072   .     S
C748   H751    1.077   .     S
C749   C810    1.443   .     S
H752   C787    1.079   .     S
C756   H469    1.086   1_565 S
C756   C566    1.347   1_465 S
N759   N766    1.383   .     S
N759   N760    1.286   .     D
N760   H761    1.028   .     S
C762   N763    1.157   .     T
C762   C845    1.443   1_455 S
C764   N765    1.158   .     T
C764   C470    1.457   1_565 S
N766   O768    1.300   .     A
N766   O767    1.300   .     A
O769   Zn775   1.962   .     S
O769   C819    1.277   .     S
O770   C771    1.296   .     A
O770   Zn776   1.983   .     S
C771   C804    1.406   .     S
O772   Zn775   1.982   .     S
O772   C822    1.312   .     S
O773   Zn776   1.964   .     S
O773   C774    1.295   .     A
C774   C798    1.479   .     S
Zn775  N808    2.028   .     S
Zn775  O779    1.964   .     S
Zn775  O777    1.983   .     S
Zn776  N807    2.028   .     S
Zn776  O780    1.982   .     S
Zn776  O778    1.962   .     S
O777   C781    1.293   .     A
O779   C782    1.297   .     A
C781   C806    1.410   .     S
C781   O826    1.281   .     S
C782   C786    1.447   .     S
C782   O828    1.296   .     S
C783   C793    1.396   .     A
C783   H785    1.086   .     S
C783   C365    1.388   1_556 S
H784   C794    1.079   .     S
C786   C797    1.410   .     A
C786   C796    1.396   .     A
C787   C788    1.393   .     A
C787   C798    1.398   .     A
C788   C357    1.395   1_556 S
C788   H370    1.083   1_556 S
C789   H801    1.077   .     S
C790   C791    1.405   .     A
C790   C357    1.418   1_556 S
C790   C360    1.420   1_556 S
C791   C795    1.406   .     A
C791   C798    1.415   .     A
C792   C796    1.383   .     A
C793   C794    1.381   .     A
C793   C360    1.420   1_556 S
C794   C795    1.374   .     A
C795   H803    1.072   .     S
C796   H799    1.077   .     S
C797   C858    1.443   .     S
H800   C835    1.079   .     S
C804   H517    1.086   1_565 S
C804   C470    1.347   1_565 S
N807   N814    1.383   .     S
N807   N808    1.286   .     D
N808   H809    1.028   .     S
C810   N811    1.157   .     T
C812   N813    1.158   .     T
C812   C518    1.457   1_565 S
N814   O816    1.300   .     A
N814   O815    1.300   .     A
O817   Zn823   1.962   .     S
O817   C723    1.277   1_655 S
O818   C819    1.296   .     A
O818   Zn824   1.983   .     S
C819   C852    1.406   .     S
O820   Zn823   1.982   .     S
O820   C726    1.312   1_655 S
O821   Zn824   1.964   .     S
O821   C822    1.295   .     A
C822   C846    1.479   .     S
Zn823  N856    2.028   .     S
Zn823  O827    1.964   .     S
Zn823  O825    1.983   .     S
Zn824  N855    2.028   .     S
Zn824  O828    1.982   .     S
Zn824  O826    1.962   .     S
O825   C829    1.293   .     A
O827   C830    1.297   .     A
C829   C854    1.410   .     S
C829   O730    1.281   1_655 S
C830   C834    1.447   .     S
C830   O732    1.296   1_655 S
C831   C841    1.396   .     A
C831   H833    1.086   .     S
C831   C413    1.388   1_556 S
H832   C842    1.079   .     S
C834   C845    1.410   .     A
C834   C844    1.396   .     A
C835   C836    1.393   .     A
C835   C846    1.398   .     A
C836   C405    1.395   1_556 S
C836   H418    1.083   1_556 S
C837   H849    1.077   .     S
C838   C839    1.405   .     A
C838   C405    1.418   1_556 S
C838   C408    1.420   1_556 S
C839   C843    1.406   .     A
C839   C846    1.415   .     A
C840   C844    1.383   .     A
C841   C842    1.381   .     A
C841   C408    1.420   1_556 S
C842   C843    1.374   .     A
C843   H851    1.072   .     S
C844   H847    1.077   .     S
C845   C762    1.443   1_655 S
H848   C739    1.079   1_655 S
C852   H565    1.086   1_565 S
C852   C518    1.347   1_565 S
C854   C612    1.347   1_655 S
N855   N862    1.383   .     S
N855   N856    1.286   .     D
N856   H857    1.028   .     S
C858   N859    1.157   .     T
C860   N861    1.158   .     T
C860   C566    1.457   1_565 S
N862   O864    1.300   .     A
N862   O863    1.300   .     A
