data_str_m3_o1_o2_pcu_sym.10
_audit_creation_date              2020-01-03
_audit_creation_method            'Materials Studio'
_symmetry_space_group_name_H-M    'P1'
_symmetry_Int_Tables_number       1
_symmetry_cell_setting            triclinic
loop_
_symmetry_equiv_pos_as_xyz
  x,y,z
_cell_length_a                    32.1619
_cell_length_b                    29.5224
_cell_length_c                    29.9877
_cell_angle_alpha                 90.0047
_cell_angle_beta                  90.2583
_cell_angle_gamma                 89.9988
loop_
_atom_site_label
_atom_site_type_symbol
_atom_site_fract_x
_atom_site_fract_y
_atom_site_fract_z
_atom_site_U_iso_or_equiv
_atom_site_adp_type
_atom_site_occupancy
C1     C     0.08662   0.16667   0.24996   0.00000  Uiso   1.00
C2     C     0.31200   0.20737   0.24302   0.00000  Uiso   1.00
C3     C     0.31207   0.12596   0.25703   0.00000  Uiso   1.00
C4     C     0.02126   0.20737   0.24297   0.00000  Uiso   1.00
C5     C     0.18754   0.20141   0.04695   0.00000  Uiso   1.00
C6     C     0.18766   0.13244   0.45338   0.00000  Uiso   1.00
C7     C     0.14608   0.20143   0.45311   0.00000  Uiso   1.00
C8     C     0.14598   0.13240   0.04657   0.00000  Uiso   1.00
C9     C     0.18748   0.20141   0.09303   0.00000  Uiso   1.00
C10    C     0.18758   0.13224   0.40731   0.00000  Uiso   1.00
C11    C     0.14604   0.20143   0.40703   0.00000  Uiso   1.00
C12    C     0.24671   0.16667   0.25004   0.00000  Uiso   1.00
C13    C     0.14596   0.13221   0.09264   0.00000  Uiso   1.00
C14    C     0.16671   0.16674   0.11592   0.00000  Uiso   1.00
C15    C     0.16675   0.16675   0.38408   0.00000  Uiso   1.00
C16    C     0.16680   0.16694   0.02395   0.00000  Uiso   1.00
C17    C     0.16688   0.16697   0.47605   0.00000  Uiso   1.00
C18    C     0.29086   0.16667   0.25005   0.00000  Uiso   1.00
C19    C     0.04247   0.16666   0.24995   0.00000  Uiso   1.00
C20    C     0.16665   0.16668   0.16389   0.00000  Uiso   1.00
C21    C     0.16670   0.16668   0.33611   0.00000  Uiso   1.00
C22    C     0.19371   0.02398   0.27649   0.00000  Uiso   1.00
C23    C     0.13968   0.30934   0.22344   0.00000  Uiso   1.00
C24    C     0.13962   0.02398   0.22351   0.00000  Uiso   1.00
C25    C     0.19366   0.30934   0.27655   0.00000  Uiso   1.00
C26    C     0.02133   0.12596   0.25696   0.00000  Uiso   1.00
F27    F     0.22088   0.04666   0.30296   0.00000  Uiso   1.00
F28    F     0.20866   0.09915   0.38552   0.00000  Uiso   1.00
F29    F     0.12496   0.23447   0.38494   0.00000  Uiso   1.00
F30    F     0.12484   0.09911   0.11437   0.00000  Uiso   1.00
F31    F     0.11271   0.28663   0.19674   0.00000  Uiso   1.00
F32    F     0.11243   0.04666   0.19707   0.00000  Uiso   1.00
F33    F     0.22065   0.28664   0.30322   0.00000  Uiso   1.00
F34    F     0.20824   0.23446   0.02467   0.00000  Uiso   1.00
F35    F     0.20839   0.09949   0.47598   0.00000  Uiso   1.00
F36    F     0.12540   0.23447   0.47544   0.00000  Uiso   1.00
F37    F     0.12531   0.09945   0.02392   0.00000  Uiso   1.00
F38    F     0.20850   0.23447   0.11517   0.00000  Uiso   1.00
H39    H     0.03755   0.09429   0.26263   0.00000  Uiso   1.00
H40    H     0.29578   0.23904   0.23736   0.00000  Uiso   1.00
H41    H     0.29591   0.09430   0.26274   0.00000  Uiso   1.00
H42    H     0.03743   0.23903   0.23726   0.00000  Uiso   1.00
N43    N     0.16667   0.28573   0.25000   0.00000  Uiso   1.00
N44    N     0.16667   0.04760   0.25000   0.00000  Uiso   1.00
O45    O     0.10559   0.20487   0.25000   0.00000  Uiso   1.00
O46    O     0.22774   0.12846   0.25001   0.00000  Uiso   1.00
O47    O     0.22774   0.20487   0.25001   0.00000  Uiso   1.00
O48    O     0.10559   0.12846   0.25000   0.00000  Uiso   1.00
O49    O     0.16666   0.20489   0.18453   0.00000  Uiso   1.00
O50    O     0.16667   0.12845   0.31547   0.00000  Uiso   1.00
O51    O     0.16667   0.20489   0.31547   0.00000  Uiso   1.00
O52    O     0.16666   0.12845   0.18453   0.00000  Uiso   1.00
Zn53   Zn    0.16667   0.21771   0.25000   0.00000  Uiso   1.00
Zn54   Zn    0.16667   0.11563   0.25000   0.00000  Uiso   1.00
C55    C     0.41995   0.16667   0.24996   0.00000  Uiso   1.00
C56    C     0.64534   0.20737   0.24302   0.00000  Uiso   1.00
C57    C     0.64540   0.12596   0.25703   0.00000  Uiso   1.00
C58    C     0.35459   0.20737   0.24297   0.00000  Uiso   1.00
C59    C     0.52088   0.20141   0.04695   0.00000  Uiso   1.00
C60    C     0.52100   0.13244   0.45338   0.00000  Uiso   1.00
C61    C     0.47941   0.20143   0.45311   0.00000  Uiso   1.00
C62    C     0.47932   0.13240   0.04657   0.00000  Uiso   1.00
C63    C     0.52081   0.20141   0.09303   0.00000  Uiso   1.00
C64    C     0.52091   0.13224   0.40731   0.00000  Uiso   1.00
C65    C     0.47937   0.20143   0.40703   0.00000  Uiso   1.00
C66    C     0.58004   0.16667   0.25004   0.00000  Uiso   1.00
C67    C     0.47929   0.13221   0.09264   0.00000  Uiso   1.00
C68    C     0.50005   0.16674   0.11592   0.00000  Uiso   1.00
C69    C     0.50008   0.16675   0.38408   0.00000  Uiso   1.00
C70    C     0.50013   0.16694   0.02395   0.00000  Uiso   1.00
C71    C     0.50022   0.16697   0.47605   0.00000  Uiso   1.00
C72    C     0.62419   0.16667   0.25005   0.00000  Uiso   1.00
C73    C     0.37581   0.16666   0.24995   0.00000  Uiso   1.00
C74    C     0.49998   0.16668   0.16389   0.00000  Uiso   1.00
C75    C     0.50003   0.16668   0.33611   0.00000  Uiso   1.00
C76    C     0.52705   0.02398   0.27649   0.00000  Uiso   1.00
C77    C     0.47301   0.30934   0.22344   0.00000  Uiso   1.00
C78    C     0.47295   0.02398   0.22351   0.00000  Uiso   1.00
C79    C     0.52699   0.30934   0.27655   0.00000  Uiso   1.00
C80    C     0.35466   0.12596   0.25696   0.00000  Uiso   1.00
F81    F     0.55421   0.04666   0.30296   0.00000  Uiso   1.00
F82    F     0.54200   0.09915   0.38552   0.00000  Uiso   1.00
F83    F     0.45830   0.23447   0.38494   0.00000  Uiso   1.00
F84    F     0.45818   0.09911   0.11437   0.00000  Uiso   1.00
F85    F     0.44604   0.28663   0.19674   0.00000  Uiso   1.00
F86    F     0.44576   0.04666   0.19707   0.00000  Uiso   1.00
F87    F     0.55399   0.28664   0.30322   0.00000  Uiso   1.00
F88    F     0.54158   0.23446   0.02467   0.00000  Uiso   1.00
F89    F     0.54172   0.09949   0.47598   0.00000  Uiso   1.00
F90    F     0.45874   0.23447   0.47544   0.00000  Uiso   1.00
F91    F     0.45864   0.09945   0.02392   0.00000  Uiso   1.00
F92    F     0.54183   0.23447   0.11517   0.00000  Uiso   1.00
H93    H     0.37088   0.09429   0.26263   0.00000  Uiso   1.00
H94    H     0.62911   0.23904   0.23736   0.00000  Uiso   1.00
H95    H     0.62924   0.09430   0.26274   0.00000  Uiso   1.00
H96    H     0.37076   0.23903   0.23726   0.00000  Uiso   1.00
N97    N     0.50000   0.28573   0.25000   0.00000  Uiso   1.00
N98    N     0.50000   0.04760   0.25000   0.00000  Uiso   1.00
O99    O     0.43892   0.20487   0.25000   0.00000  Uiso   1.00
O100   O     0.56108   0.12846   0.25001   0.00000  Uiso   1.00
O101   O     0.56108   0.20487   0.25001   0.00000  Uiso   1.00
O102   O     0.43892   0.12846   0.25000   0.00000  Uiso   1.00
O103   O     0.50000   0.20489   0.18453   0.00000  Uiso   1.00
O104   O     0.50000   0.12845   0.31547   0.00000  Uiso   1.00
O105   O     0.50000   0.20489   0.31547   0.00000  Uiso   1.00
O106   O     0.50000   0.12845   0.18453   0.00000  Uiso   1.00
Zn107  Zn    0.50000   0.21771   0.25000   0.00000  Uiso   1.00
Zn108  Zn    0.50000   0.11563   0.25000   0.00000  Uiso   1.00
C109   C     0.75329   0.16667   0.24996   0.00000  Uiso   1.00
C110   C     0.97867   0.20737   0.24302   0.00000  Uiso   1.00
C111   C     0.97874   0.12596   0.25703   0.00000  Uiso   1.00
C112   C     0.68793   0.20737   0.24297   0.00000  Uiso   1.00
C113   C     0.85421   0.20141   0.04695   0.00000  Uiso   1.00
C114   C     0.85433   0.13244   0.45338   0.00000  Uiso   1.00
C115   C     0.81275   0.20143   0.45311   0.00000  Uiso   1.00
C116   C     0.81265   0.13240   0.04657   0.00000  Uiso   1.00
C117   C     0.85415   0.20141   0.09303   0.00000  Uiso   1.00
C118   C     0.85425   0.13224   0.40731   0.00000  Uiso   1.00
C119   C     0.81270   0.20143   0.40703   0.00000  Uiso   1.00
C120   C     0.91338   0.16667   0.25004   0.00000  Uiso   1.00
C121   C     0.81263   0.13221   0.09264   0.00000  Uiso   1.00
C122   C     0.83338   0.16674   0.11592   0.00000  Uiso   1.00
C123   C     0.83341   0.16675   0.38408   0.00000  Uiso   1.00
C124   C     0.83346   0.16694   0.02395   0.00000  Uiso   1.00
C125   C     0.83355   0.16697   0.47605   0.00000  Uiso   1.00
C126   C     0.95753   0.16667   0.25005   0.00000  Uiso   1.00
C127   C     0.70914   0.16666   0.24995   0.00000  Uiso   1.00
C128   C     0.83332   0.16668   0.16389   0.00000  Uiso   1.00
C129   C     0.83337   0.16668   0.33611   0.00000  Uiso   1.00
C130   C     0.86038   0.02398   0.27649   0.00000  Uiso   1.00
C131   C     0.80634   0.30934   0.22344   0.00000  Uiso   1.00
C132   C     0.80628   0.02398   0.22351   0.00000  Uiso   1.00
C133   C     0.86033   0.30934   0.27655   0.00000  Uiso   1.00
C134   C     0.68799   0.12596   0.25696   0.00000  Uiso   1.00
F135   F     0.88754   0.04666   0.30296   0.00000  Uiso   1.00
F136   F     0.87533   0.09915   0.38552   0.00000  Uiso   1.00
F137   F     0.79163   0.23447   0.38494   0.00000  Uiso   1.00
F138   F     0.79151   0.09911   0.11437   0.00000  Uiso   1.00
F139   F     0.77937   0.28663   0.19674   0.00000  Uiso   1.00
F140   F     0.77910   0.04666   0.19707   0.00000  Uiso   1.00
F141   F     0.88732   0.28664   0.30322   0.00000  Uiso   1.00
F142   F     0.87491   0.23446   0.02467   0.00000  Uiso   1.00
F143   F     0.87505   0.09949   0.47598   0.00000  Uiso   1.00
F144   F     0.79207   0.23447   0.47544   0.00000  Uiso   1.00
F145   F     0.79197   0.09945   0.02392   0.00000  Uiso   1.00
F146   F     0.87516   0.23447   0.11517   0.00000  Uiso   1.00
H147   H     0.70422   0.09429   0.26263   0.00000  Uiso   1.00
H148   H     0.96245   0.23904   0.23736   0.00000  Uiso   1.00
H149   H     0.96257   0.09430   0.26274   0.00000  Uiso   1.00
H150   H     0.70409   0.23903   0.23726   0.00000  Uiso   1.00
N151   N     0.83333   0.28573   0.25000   0.00000  Uiso   1.00
N152   N     0.83333   0.04760   0.25000   0.00000  Uiso   1.00
O153   O     0.77226   0.20487   0.25000   0.00000  Uiso   1.00
O154   O     0.89441   0.12846   0.25001   0.00000  Uiso   1.00
O155   O     0.89441   0.20487   0.25001   0.00000  Uiso   1.00
O156   O     0.77226   0.12846   0.25000   0.00000  Uiso   1.00
O157   O     0.83333   0.20489   0.18453   0.00000  Uiso   1.00
O158   O     0.83334   0.12845   0.31547   0.00000  Uiso   1.00
O159   O     0.83334   0.20489   0.31547   0.00000  Uiso   1.00
O160   O     0.83333   0.12845   0.18453   0.00000  Uiso   1.00
Zn161  Zn    0.83333   0.21771   0.25000   0.00000  Uiso   1.00
Zn162  Zn    0.83333   0.11563   0.25000   0.00000  Uiso   1.00
C163   C     0.08662   0.50000   0.24996   0.00000  Uiso   1.00
C164   C     0.31200   0.54071   0.24302   0.00000  Uiso   1.00
C165   C     0.31207   0.45930   0.25703   0.00000  Uiso   1.00
C166   C     0.02126   0.54070   0.24297   0.00000  Uiso   1.00
C167   C     0.18754   0.53474   0.04695   0.00000  Uiso   1.00
C168   C     0.18766   0.46577   0.45338   0.00000  Uiso   1.00
C169   C     0.14608   0.53477   0.45311   0.00000  Uiso   1.00
C170   C     0.14598   0.46573   0.04657   0.00000  Uiso   1.00
C171   C     0.18748   0.53474   0.09303   0.00000  Uiso   1.00
C172   C     0.18758   0.46557   0.40731   0.00000  Uiso   1.00
C173   C     0.14604   0.53476   0.40703   0.00000  Uiso   1.00
C174   C     0.24671   0.50000   0.25004   0.00000  Uiso   1.00
C175   C     0.14596   0.46554   0.09264   0.00000  Uiso   1.00
C176   C     0.16671   0.50008   0.11592   0.00000  Uiso   1.00
C177   C     0.16675   0.50009   0.38408   0.00000  Uiso   1.00
C178   C     0.16680   0.50028   0.02395   0.00000  Uiso   1.00
C179   C     0.16688   0.50031   0.47605   0.00000  Uiso   1.00
C180   C     0.29086   0.50000   0.25005   0.00000  Uiso   1.00
C181   C     0.04247   0.50000   0.24995   0.00000  Uiso   1.00
C182   C     0.16665   0.50001   0.16389   0.00000  Uiso   1.00
C183   C     0.16670   0.50001   0.33611   0.00000  Uiso   1.00
C184   C     0.19371   0.35731   0.27649   0.00000  Uiso   1.00
C185   C     0.13968   0.64268   0.22344   0.00000  Uiso   1.00
C186   C     0.13962   0.35731   0.22351   0.00000  Uiso   1.00
C187   C     0.19366   0.64268   0.27655   0.00000  Uiso   1.00
C188   C     0.02133   0.45929   0.25696   0.00000  Uiso   1.00
F189   F     0.22088   0.37999   0.30296   0.00000  Uiso   1.00
F190   F     0.20866   0.43249   0.38552   0.00000  Uiso   1.00
F191   F     0.12496   0.56781   0.38494   0.00000  Uiso   1.00
F192   F     0.12484   0.43245   0.11437   0.00000  Uiso   1.00
F193   F     0.11271   0.61997   0.19674   0.00000  Uiso   1.00
F194   F     0.11243   0.37999   0.19707   0.00000  Uiso   1.00
F195   F     0.22065   0.61997   0.30322   0.00000  Uiso   1.00
F196   F     0.20824   0.56779   0.02467   0.00000  Uiso   1.00
F197   F     0.20839   0.43282   0.47598   0.00000  Uiso   1.00
F198   F     0.12540   0.56780   0.47544   0.00000  Uiso   1.00
F199   F     0.12531   0.43278   0.02392   0.00000  Uiso   1.00
F200   F     0.20850   0.56780   0.11517   0.00000  Uiso   1.00
H201   H     0.03755   0.42762   0.26263   0.00000  Uiso   1.00
H202   H     0.29578   0.57238   0.23736   0.00000  Uiso   1.00
H203   H     0.29591   0.42764   0.26274   0.00000  Uiso   1.00
H204   H     0.03743   0.57237   0.23726   0.00000  Uiso   1.00
N205   N     0.16667   0.61907   0.25000   0.00000  Uiso   1.00
N206   N     0.16667   0.38093   0.25000   0.00000  Uiso   1.00
O207   O     0.10559   0.53821   0.25000   0.00000  Uiso   1.00
O208   O     0.22774   0.46179   0.25001   0.00000  Uiso   1.00
O209   O     0.22774   0.53821   0.25001   0.00000  Uiso   1.00
O210   O     0.10559   0.46179   0.25000   0.00000  Uiso   1.00
O211   O     0.16666   0.53822   0.18453   0.00000  Uiso   1.00
O212   O     0.16667   0.46178   0.31547   0.00000  Uiso   1.00
O213   O     0.16667   0.53822   0.31547   0.00000  Uiso   1.00
O214   O     0.16666   0.46178   0.18453   0.00000  Uiso   1.00
Zn215  Zn    0.16667   0.55104   0.25000   0.00000  Uiso   1.00
Zn216  Zn    0.16667   0.44896   0.25000   0.00000  Uiso   1.00
C217   C     0.41995   0.50000   0.24996   0.00000  Uiso   1.00
C218   C     0.64534   0.54071   0.24302   0.00000  Uiso   1.00
C219   C     0.64540   0.45930   0.25703   0.00000  Uiso   1.00
C220   C     0.35459   0.54070   0.24297   0.00000  Uiso   1.00
C221   C     0.52088   0.53474   0.04695   0.00000  Uiso   1.00
C222   C     0.52100   0.46577   0.45338   0.00000  Uiso   1.00
C223   C     0.47941   0.53477   0.45311   0.00000  Uiso   1.00
C224   C     0.47932   0.46573   0.04657   0.00000  Uiso   1.00
C225   C     0.52081   0.53474   0.09303   0.00000  Uiso   1.00
C226   C     0.52091   0.46557   0.40731   0.00000  Uiso   1.00
C227   C     0.47937   0.53476   0.40703   0.00000  Uiso   1.00
C228   C     0.58004   0.50000   0.25004   0.00000  Uiso   1.00
C229   C     0.47929   0.46554   0.09264   0.00000  Uiso   1.00
C230   C     0.50005   0.50008   0.11592   0.00000  Uiso   1.00
C231   C     0.50008   0.50009   0.38408   0.00000  Uiso   1.00
C232   C     0.50013   0.50028   0.02395   0.00000  Uiso   1.00
C233   C     0.50022   0.50031   0.47605   0.00000  Uiso   1.00
C234   C     0.62419   0.50000   0.25005   0.00000  Uiso   1.00
C235   C     0.37581   0.50000   0.24995   0.00000  Uiso   1.00
C236   C     0.49998   0.50001   0.16389   0.00000  Uiso   1.00
C237   C     0.50003   0.50001   0.33611   0.00000  Uiso   1.00
C238   C     0.52705   0.35731   0.27649   0.00000  Uiso   1.00
C239   C     0.47301   0.64268   0.22344   0.00000  Uiso   1.00
C240   C     0.47295   0.35731   0.22351   0.00000  Uiso   1.00
C241   C     0.52699   0.64268   0.27655   0.00000  Uiso   1.00
C242   C     0.35466   0.45929   0.25696   0.00000  Uiso   1.00
F243   F     0.55421   0.37999   0.30296   0.00000  Uiso   1.00
F244   F     0.54200   0.43249   0.38552   0.00000  Uiso   1.00
F245   F     0.45830   0.56781   0.38494   0.00000  Uiso   1.00
F246   F     0.45818   0.43245   0.11437   0.00000  Uiso   1.00
F247   F     0.44604   0.61997   0.19674   0.00000  Uiso   1.00
F248   F     0.44576   0.37999   0.19707   0.00000  Uiso   1.00
F249   F     0.55399   0.61997   0.30322   0.00000  Uiso   1.00
F250   F     0.54158   0.56779   0.02467   0.00000  Uiso   1.00
F251   F     0.54172   0.43282   0.47598   0.00000  Uiso   1.00
F252   F     0.45874   0.56780   0.47544   0.00000  Uiso   1.00
F253   F     0.45864   0.43278   0.02392   0.00000  Uiso   1.00
F254   F     0.54183   0.56780   0.11517   0.00000  Uiso   1.00
H255   H     0.37088   0.42762   0.26263   0.00000  Uiso   1.00
H256   H     0.62911   0.57238   0.23736   0.00000  Uiso   1.00
H257   H     0.62924   0.42764   0.26274   0.00000  Uiso   1.00
H258   H     0.37076   0.57237   0.23726   0.00000  Uiso   1.00
N259   N     0.50000   0.61907   0.25000   0.00000  Uiso   1.00
N260   N     0.50000   0.38093   0.25000   0.00000  Uiso   1.00
O261   O     0.43892   0.53821   0.25000   0.00000  Uiso   1.00
O262   O     0.56108   0.46179   0.25001   0.00000  Uiso   1.00
O263   O     0.56108   0.53821   0.25001   0.00000  Uiso   1.00
O264   O     0.43892   0.46179   0.25000   0.00000  Uiso   1.00
O265   O     0.50000   0.53822   0.18453   0.00000  Uiso   1.00
O266   O     0.50000   0.46178   0.31547   0.00000  Uiso   1.00
O267   O     0.50000   0.53822   0.31547   0.00000  Uiso   1.00
O268   O     0.50000   0.46178   0.18453   0.00000  Uiso   1.00
Zn269  Zn    0.50000   0.55104   0.25000   0.00000  Uiso   1.00
Zn270  Zn    0.50000   0.44896   0.25000   0.00000  Uiso   1.00
C271   C     0.75329   0.50000   0.24996   0.00000  Uiso   1.00
C272   C     0.97867   0.54071   0.24302   0.00000  Uiso   1.00
C273   C     0.97874   0.45930   0.25703   0.00000  Uiso   1.00
C274   C     0.68793   0.54070   0.24297   0.00000  Uiso   1.00
C275   C     0.85421   0.53474   0.04695   0.00000  Uiso   1.00
C276   C     0.85433   0.46577   0.45338   0.00000  Uiso   1.00
C277   C     0.81275   0.53477   0.45311   0.00000  Uiso   1.00
C278   C     0.81265   0.46573   0.04657   0.00000  Uiso   1.00
C279   C     0.85415   0.53474   0.09303   0.00000  Uiso   1.00
C280   C     0.85425   0.46557   0.40731   0.00000  Uiso   1.00
C281   C     0.81270   0.53476   0.40703   0.00000  Uiso   1.00
C282   C     0.91338   0.50000   0.25004   0.00000  Uiso   1.00
C283   C     0.81263   0.46554   0.09264   0.00000  Uiso   1.00
C284   C     0.83338   0.50008   0.11592   0.00000  Uiso   1.00
C285   C     0.83341   0.50009   0.38408   0.00000  Uiso   1.00
C286   C     0.83346   0.50028   0.02395   0.00000  Uiso   1.00
C287   C     0.83355   0.50031   0.47605   0.00000  Uiso   1.00
C288   C     0.95753   0.50000   0.25005   0.00000  Uiso   1.00
C289   C     0.70914   0.50000   0.24995   0.00000  Uiso   1.00
C290   C     0.83332   0.50001   0.16389   0.00000  Uiso   1.00
C291   C     0.83337   0.50001   0.33611   0.00000  Uiso   1.00
C292   C     0.86038   0.35731   0.27649   0.00000  Uiso   1.00
C293   C     0.80634   0.64268   0.22344   0.00000  Uiso   1.00
C294   C     0.80628   0.35731   0.22351   0.00000  Uiso   1.00
C295   C     0.86033   0.64268   0.27655   0.00000  Uiso   1.00
C296   C     0.68799   0.45929   0.25696   0.00000  Uiso   1.00
F297   F     0.88754   0.37999   0.30296   0.00000  Uiso   1.00
F298   F     0.87533   0.43249   0.38552   0.00000  Uiso   1.00
F299   F     0.79163   0.56781   0.38494   0.00000  Uiso   1.00
F300   F     0.79151   0.43245   0.11437   0.00000  Uiso   1.00
F301   F     0.77937   0.61997   0.19674   0.00000  Uiso   1.00
F302   F     0.77910   0.37999   0.19707   0.00000  Uiso   1.00
F303   F     0.88732   0.61997   0.30322   0.00000  Uiso   1.00
F304   F     0.87491   0.56779   0.02467   0.00000  Uiso   1.00
F305   F     0.87505   0.43282   0.47598   0.00000  Uiso   1.00
F306   F     0.79207   0.56780   0.47544   0.00000  Uiso   1.00
F307   F     0.79197   0.43278   0.02392   0.00000  Uiso   1.00
F308   F     0.87516   0.56780   0.11517   0.00000  Uiso   1.00
H309   H     0.70422   0.42762   0.26263   0.00000  Uiso   1.00
H310   H     0.96245   0.57238   0.23736   0.00000  Uiso   1.00
H311   H     0.96257   0.42764   0.26274   0.00000  Uiso   1.00
H312   H     0.70409   0.57237   0.23726   0.00000  Uiso   1.00
N313   N     0.83333   0.61907   0.25000   0.00000  Uiso   1.00
N314   N     0.83333   0.38093   0.25000   0.00000  Uiso   1.00
O315   O     0.77226   0.53821   0.25000   0.00000  Uiso   1.00
O316   O     0.89441   0.46179   0.25001   0.00000  Uiso   1.00
O317   O     0.89441   0.53821   0.25001   0.00000  Uiso   1.00
O318   O     0.77226   0.46179   0.25000   0.00000  Uiso   1.00
O319   O     0.83333   0.53822   0.18453   0.00000  Uiso   1.00
O320   O     0.83334   0.46178   0.31547   0.00000  Uiso   1.00
O321   O     0.83334   0.53822   0.31547   0.00000  Uiso   1.00
O322   O     0.83333   0.46178   0.18453   0.00000  Uiso   1.00
Zn323  Zn    0.83333   0.55104   0.25000   0.00000  Uiso   1.00
Zn324  Zn    0.83333   0.44896   0.25000   0.00000  Uiso   1.00
C325   C     0.08662   0.83333   0.24996   0.00000  Uiso   1.00
C326   C     0.31200   0.87404   0.24302   0.00000  Uiso   1.00
C327   C     0.31207   0.79263   0.25703   0.00000  Uiso   1.00
C328   C     0.02126   0.87404   0.24297   0.00000  Uiso   1.00
C329   C     0.18754   0.86808   0.04695   0.00000  Uiso   1.00
C330   C     0.18766   0.79911   0.45338   0.00000  Uiso   1.00
C331   C     0.14608   0.86810   0.45311   0.00000  Uiso   1.00
C332   C     0.14598   0.79907   0.04657   0.00000  Uiso   1.00
C333   C     0.18748   0.86808   0.09303   0.00000  Uiso   1.00
C334   C     0.18758   0.79891   0.40731   0.00000  Uiso   1.00
C335   C     0.14604   0.86809   0.40703   0.00000  Uiso   1.00
C336   C     0.24671   0.83333   0.25004   0.00000  Uiso   1.00
C337   C     0.14596   0.79887   0.09264   0.00000  Uiso   1.00
C338   C     0.16671   0.83341   0.11592   0.00000  Uiso   1.00
C339   C     0.16675   0.83342   0.38408   0.00000  Uiso   1.00
C340   C     0.16680   0.83361   0.02395   0.00000  Uiso   1.00
C341   C     0.16688   0.83364   0.47605   0.00000  Uiso   1.00
C342   C     0.29086   0.83334   0.25005   0.00000  Uiso   1.00
C343   C     0.04247   0.83333   0.24995   0.00000  Uiso   1.00
C344   C     0.16665   0.83334   0.16389   0.00000  Uiso   1.00
C345   C     0.16670   0.83335   0.33611   0.00000  Uiso   1.00
C346   C     0.19371   0.69064   0.27649   0.00000  Uiso   1.00
C347   C     0.13968   0.97601   0.22344   0.00000  Uiso   1.00
C348   C     0.13962   0.69064   0.22351   0.00000  Uiso   1.00
C349   C     0.19366   0.97601   0.27655   0.00000  Uiso   1.00
C350   C     0.02133   0.79262   0.25696   0.00000  Uiso   1.00
F351   F     0.22088   0.71333   0.30296   0.00000  Uiso   1.00
F352   F     0.20866   0.76582   0.38552   0.00000  Uiso   1.00
F353   F     0.12496   0.90114   0.38494   0.00000  Uiso   1.00
F354   F     0.12484   0.76578   0.11437   0.00000  Uiso   1.00
F355   F     0.11271   0.95330   0.19674   0.00000  Uiso   1.00
F356   F     0.11243   0.71333   0.19707   0.00000  Uiso   1.00
F357   F     0.22065   0.95330   0.30322   0.00000  Uiso   1.00
F358   F     0.20824   0.90113   0.02467   0.00000  Uiso   1.00
F359   F     0.20839   0.76616   0.47598   0.00000  Uiso   1.00
F360   F     0.12540   0.90114   0.47544   0.00000  Uiso   1.00
F361   F     0.12531   0.76612   0.02392   0.00000  Uiso   1.00
F362   F     0.20850   0.90113   0.11517   0.00000  Uiso   1.00
H363   H     0.03755   0.76096   0.26263   0.00000  Uiso   1.00
H364   H     0.29578   0.90571   0.23736   0.00000  Uiso   1.00
H365   H     0.29591   0.76097   0.26274   0.00000  Uiso   1.00
H366   H     0.03743   0.90570   0.23726   0.00000  Uiso   1.00
N367   N     0.16667   0.95240   0.25000   0.00000  Uiso   1.00
N368   N     0.16667   0.71427   0.25000   0.00000  Uiso   1.00
O369   O     0.10559   0.87154   0.25000   0.00000  Uiso   1.00
O370   O     0.22774   0.79513   0.25001   0.00000  Uiso   1.00
O371   O     0.22774   0.87154   0.25001   0.00000  Uiso   1.00
O372   O     0.10559   0.79513   0.25000   0.00000  Uiso   1.00
O373   O     0.16666   0.87155   0.18453   0.00000  Uiso   1.00
O374   O     0.16667   0.79511   0.31547   0.00000  Uiso   1.00
O375   O     0.16667   0.87155   0.31547   0.00000  Uiso   1.00
O376   O     0.16666   0.79511   0.18453   0.00000  Uiso   1.00
Zn377  Zn    0.16667   0.88437   0.25000   0.00000  Uiso   1.00
Zn378  Zn    0.16667   0.78229   0.25000   0.00000  Uiso   1.00
C379   C     0.41995   0.83333   0.24996   0.00000  Uiso   1.00
C380   C     0.64534   0.87404   0.24302   0.00000  Uiso   1.00
C381   C     0.64540   0.79263   0.25703   0.00000  Uiso   1.00
C382   C     0.35459   0.87404   0.24297   0.00000  Uiso   1.00
C383   C     0.52088   0.86808   0.04695   0.00000  Uiso   1.00
C384   C     0.52100   0.79911   0.45338   0.00000  Uiso   1.00
C385   C     0.47941   0.86810   0.45311   0.00000  Uiso   1.00
C386   C     0.47932   0.79907   0.04657   0.00000  Uiso   1.00
C387   C     0.52081   0.86808   0.09303   0.00000  Uiso   1.00
C388   C     0.52091   0.79891   0.40731   0.00000  Uiso   1.00
C389   C     0.47937   0.86809   0.40703   0.00000  Uiso   1.00
C390   C     0.58004   0.83333   0.25004   0.00000  Uiso   1.00
C391   C     0.47929   0.79887   0.09264   0.00000  Uiso   1.00
C392   C     0.50005   0.83341   0.11592   0.00000  Uiso   1.00
C393   C     0.50008   0.83342   0.38408   0.00000  Uiso   1.00
C394   C     0.50013   0.83361   0.02395   0.00000  Uiso   1.00
C395   C     0.50022   0.83364   0.47605   0.00000  Uiso   1.00
C396   C     0.62419   0.83334   0.25005   0.00000  Uiso   1.00
C397   C     0.37581   0.83333   0.24995   0.00000  Uiso   1.00
C398   C     0.49998   0.83334   0.16389   0.00000  Uiso   1.00
C399   C     0.50003   0.83335   0.33611   0.00000  Uiso   1.00
C400   C     0.52705   0.69064   0.27649   0.00000  Uiso   1.00
C401   C     0.47301   0.97601   0.22344   0.00000  Uiso   1.00
C402   C     0.47295   0.69064   0.22351   0.00000  Uiso   1.00
C403   C     0.52699   0.97601   0.27655   0.00000  Uiso   1.00
C404   C     0.35466   0.79262   0.25696   0.00000  Uiso   1.00
F405   F     0.55421   0.71333   0.30296   0.00000  Uiso   1.00
F406   F     0.54200   0.76582   0.38552   0.00000  Uiso   1.00
F407   F     0.45830   0.90114   0.38494   0.00000  Uiso   1.00
F408   F     0.45818   0.76578   0.11437   0.00000  Uiso   1.00
F409   F     0.44604   0.95330   0.19674   0.00000  Uiso   1.00
F410   F     0.44576   0.71333   0.19707   0.00000  Uiso   1.00
F411   F     0.55399   0.95330   0.30322   0.00000  Uiso   1.00
F412   F     0.54158   0.90113   0.02467   0.00000  Uiso   1.00
F413   F     0.54172   0.76616   0.47598   0.00000  Uiso   1.00
F414   F     0.45874   0.90114   0.47544   0.00000  Uiso   1.00
F415   F     0.45864   0.76612   0.02392   0.00000  Uiso   1.00
F416   F     0.54183   0.90113   0.11517   0.00000  Uiso   1.00
H417   H     0.37088   0.76096   0.26263   0.00000  Uiso   1.00
H418   H     0.62911   0.90571   0.23736   0.00000  Uiso   1.00
H419   H     0.62924   0.76097   0.26274   0.00000  Uiso   1.00
H420   H     0.37076   0.90570   0.23726   0.00000  Uiso   1.00
N421   N     0.50000   0.95240   0.25000   0.00000  Uiso   1.00
N422   N     0.50000   0.71427   0.25000   0.00000  Uiso   1.00
O423   O     0.43892   0.87154   0.25000   0.00000  Uiso   1.00
O424   O     0.56108   0.79513   0.25001   0.00000  Uiso   1.00
O425   O     0.56108   0.87154   0.25001   0.00000  Uiso   1.00
O426   O     0.43892   0.79513   0.25000   0.00000  Uiso   1.00
O427   O     0.50000   0.87155   0.18453   0.00000  Uiso   1.00
O428   O     0.50000   0.79511   0.31547   0.00000  Uiso   1.00
O429   O     0.50000   0.87155   0.31547   0.00000  Uiso   1.00
O430   O     0.50000   0.79511   0.18453   0.00000  Uiso   1.00
Zn431  Zn    0.50000   0.88437   0.25000   0.00000  Uiso   1.00
Zn432  Zn    0.50000   0.78229   0.25000   0.00000  Uiso   1.00
C433   C     0.75329   0.83333   0.24996   0.00000  Uiso   1.00
C434   C     0.97867   0.87404   0.24302   0.00000  Uiso   1.00
C435   C     0.97874   0.79263   0.25703   0.00000  Uiso   1.00
C436   C     0.68793   0.87404   0.24297   0.00000  Uiso   1.00
C437   C     0.85421   0.86808   0.04695   0.00000  Uiso   1.00
C438   C     0.85433   0.79911   0.45338   0.00000  Uiso   1.00
C439   C     0.81275   0.86810   0.45311   0.00000  Uiso   1.00
C440   C     0.81265   0.79907   0.04657   0.00000  Uiso   1.00
C441   C     0.85415   0.86808   0.09303   0.00000  Uiso   1.00
C442   C     0.85425   0.79891   0.40731   0.00000  Uiso   1.00
C443   C     0.81270   0.86809   0.40703   0.00000  Uiso   1.00
C444   C     0.91338   0.83333   0.25004   0.00000  Uiso   1.00
C445   C     0.81263   0.79887   0.09264   0.00000  Uiso   1.00
C446   C     0.83338   0.83341   0.11592   0.00000  Uiso   1.00
C447   C     0.83341   0.83342   0.38408   0.00000  Uiso   1.00
C448   C     0.83346   0.83361   0.02395   0.00000  Uiso   1.00
C449   C     0.83355   0.83364   0.47605   0.00000  Uiso   1.00
C450   C     0.95753   0.83334   0.25005   0.00000  Uiso   1.00
C451   C     0.70914   0.83333   0.24995   0.00000  Uiso   1.00
C452   C     0.83332   0.83334   0.16389   0.00000  Uiso   1.00
C453   C     0.83337   0.83335   0.33611   0.00000  Uiso   1.00
C454   C     0.86038   0.69064   0.27649   0.00000  Uiso   1.00
C455   C     0.80634   0.97601   0.22344   0.00000  Uiso   1.00
C456   C     0.80628   0.69064   0.22351   0.00000  Uiso   1.00
C457   C     0.86033   0.97601   0.27655   0.00000  Uiso   1.00
C458   C     0.68799   0.79262   0.25696   0.00000  Uiso   1.00
F459   F     0.88754   0.71333   0.30296   0.00000  Uiso   1.00
F460   F     0.87533   0.76582   0.38552   0.00000  Uiso   1.00
F461   F     0.79163   0.90114   0.38494   0.00000  Uiso   1.00
F462   F     0.79151   0.76578   0.11437   0.00000  Uiso   1.00
F463   F     0.77937   0.95330   0.19674   0.00000  Uiso   1.00
F464   F     0.77910   0.71333   0.19707   0.00000  Uiso   1.00
F465   F     0.88732   0.95330   0.30322   0.00000  Uiso   1.00
F466   F     0.87491   0.90113   0.02467   0.00000  Uiso   1.00
F467   F     0.87505   0.76616   0.47598   0.00000  Uiso   1.00
F468   F     0.79207   0.90114   0.47544   0.00000  Uiso   1.00
F469   F     0.79197   0.76612   0.02392   0.00000  Uiso   1.00
F470   F     0.87516   0.90113   0.11517   0.00000  Uiso   1.00
H471   H     0.70422   0.76096   0.26263   0.00000  Uiso   1.00
H472   H     0.96245   0.90571   0.23736   0.00000  Uiso   1.00
H473   H     0.96257   0.76097   0.26274   0.00000  Uiso   1.00
H474   H     0.70409   0.90570   0.23726   0.00000  Uiso   1.00
N475   N     0.83333   0.95240   0.25000   0.00000  Uiso   1.00
N476   N     0.83333   0.71427   0.25000   0.00000  Uiso   1.00
O477   O     0.77226   0.87154   0.25000   0.00000  Uiso   1.00
O478   O     0.89441   0.79513   0.25001   0.00000  Uiso   1.00
O479   O     0.89441   0.87154   0.25001   0.00000  Uiso   1.00
O480   O     0.77226   0.79513   0.25000   0.00000  Uiso   1.00
O481   O     0.83333   0.87155   0.18453   0.00000  Uiso   1.00
O482   O     0.83334   0.79511   0.31547   0.00000  Uiso   1.00
O483   O     0.83334   0.87155   0.31547   0.00000  Uiso   1.00
O484   O     0.83333   0.79511   0.18453   0.00000  Uiso   1.00
Zn485  Zn    0.83333   0.88437   0.25000   0.00000  Uiso   1.00
Zn486  Zn    0.83333   0.78229   0.25000   0.00000  Uiso   1.00
C487   C     0.08662   0.16667   0.74996   0.00000  Uiso   1.00
C488   C     0.31200   0.20737   0.74302   0.00000  Uiso   1.00
C489   C     0.31207   0.12596   0.75703   0.00000  Uiso   1.00
C490   C     0.02126   0.20737   0.74297   0.00000  Uiso   1.00
C491   C     0.18754   0.20141   0.54695   0.00000  Uiso   1.00
C492   C     0.18766   0.13244   0.95338   0.00000  Uiso   1.00
C493   C     0.14608   0.20143   0.95311   0.00000  Uiso   1.00
C494   C     0.14598   0.13240   0.54657   0.00000  Uiso   1.00
C495   C     0.18748   0.20141   0.59303   0.00000  Uiso   1.00
C496   C     0.18758   0.13224   0.90731   0.00000  Uiso   1.00
C497   C     0.14604   0.20143   0.90703   0.00000  Uiso   1.00
C498   C     0.24671   0.16667   0.75004   0.00000  Uiso   1.00
C499   C     0.14596   0.13221   0.59264   0.00000  Uiso   1.00
C500   C     0.16671   0.16674   0.61592   0.00000  Uiso   1.00
C501   C     0.16675   0.16675   0.88408   0.00000  Uiso   1.00
C502   C     0.16680   0.16694   0.52395   0.00000  Uiso   1.00
C503   C     0.16688   0.16697   0.97605   0.00000  Uiso   1.00
C504   C     0.29086   0.16667   0.75005   0.00000  Uiso   1.00
C505   C     0.04247   0.16666   0.74995   0.00000  Uiso   1.00
C506   C     0.16665   0.16668   0.66389   0.00000  Uiso   1.00
C507   C     0.16670   0.16668   0.83611   0.00000  Uiso   1.00
C508   C     0.19371   0.02398   0.77649   0.00000  Uiso   1.00
C509   C     0.13968   0.30934   0.72344   0.00000  Uiso   1.00
C510   C     0.13962   0.02398   0.72351   0.00000  Uiso   1.00
C511   C     0.19366   0.30934   0.77655   0.00000  Uiso   1.00
C512   C     0.02133   0.12596   0.75696   0.00000  Uiso   1.00
F513   F     0.22088   0.04666   0.80296   0.00000  Uiso   1.00
F514   F     0.20866   0.09915   0.88552   0.00000  Uiso   1.00
F515   F     0.12496   0.23447   0.88494   0.00000  Uiso   1.00
F516   F     0.12484   0.09911   0.61437   0.00000  Uiso   1.00
F517   F     0.11271   0.28663   0.69674   0.00000  Uiso   1.00
F518   F     0.11243   0.04666   0.69707   0.00000  Uiso   1.00
F519   F     0.22065   0.28664   0.80322   0.00000  Uiso   1.00
F520   F     0.20824   0.23446   0.52467   0.00000  Uiso   1.00
F521   F     0.20839   0.09949   0.97598   0.00000  Uiso   1.00
F522   F     0.12540   0.23447   0.97544   0.00000  Uiso   1.00
F523   F     0.12531   0.09945   0.52392   0.00000  Uiso   1.00
F524   F     0.20850   0.23447   0.61517   0.00000  Uiso   1.00
H525   H     0.03755   0.09429   0.76263   0.00000  Uiso   1.00
H526   H     0.29578   0.23904   0.73736   0.00000  Uiso   1.00
H527   H     0.29591   0.09430   0.76274   0.00000  Uiso   1.00
H528   H     0.03743   0.23903   0.73726   0.00000  Uiso   1.00
N529   N     0.16667   0.28573   0.75000   0.00000  Uiso   1.00
N530   N     0.16667   0.04760   0.75000   0.00000  Uiso   1.00
O531   O     0.10559   0.20487   0.75000   0.00000  Uiso   1.00
O532   O     0.22774   0.12846   0.75001   0.00000  Uiso   1.00
O533   O     0.22774   0.20487   0.75001   0.00000  Uiso   1.00
O534   O     0.10559   0.12846   0.75000   0.00000  Uiso   1.00
O535   O     0.16666   0.20489   0.68453   0.00000  Uiso   1.00
O536   O     0.16667   0.12845   0.81547   0.00000  Uiso   1.00
O537   O     0.16667   0.20489   0.81547   0.00000  Uiso   1.00
O538   O     0.16666   0.12845   0.68453   0.00000  Uiso   1.00
Zn539  Zn    0.16667   0.21771   0.75000   0.00000  Uiso   1.00
Zn540  Zn    0.16667   0.11563   0.75000   0.00000  Uiso   1.00
C541   C     0.41995   0.16667   0.74996   0.00000  Uiso   1.00
C542   C     0.64534   0.20737   0.74302   0.00000  Uiso   1.00
C543   C     0.64540   0.12596   0.75703   0.00000  Uiso   1.00
C544   C     0.35459   0.20737   0.74297   0.00000  Uiso   1.00
C545   C     0.52088   0.20141   0.54695   0.00000  Uiso   1.00
C546   C     0.52100   0.13244   0.95338   0.00000  Uiso   1.00
C547   C     0.47941   0.20143   0.95311   0.00000  Uiso   1.00
C548   C     0.47932   0.13240   0.54657   0.00000  Uiso   1.00
C549   C     0.52081   0.20141   0.59303   0.00000  Uiso   1.00
C550   C     0.52091   0.13224   0.90731   0.00000  Uiso   1.00
C551   C     0.47937   0.20143   0.90703   0.00000  Uiso   1.00
C552   C     0.58004   0.16667   0.75004   0.00000  Uiso   1.00
C553   C     0.47929   0.13221   0.59264   0.00000  Uiso   1.00
C554   C     0.50005   0.16674   0.61592   0.00000  Uiso   1.00
C555   C     0.50008   0.16675   0.88408   0.00000  Uiso   1.00
C556   C     0.50013   0.16694   0.52395   0.00000  Uiso   1.00
C557   C     0.50022   0.16697   0.97605   0.00000  Uiso   1.00
C558   C     0.62419   0.16667   0.75005   0.00000  Uiso   1.00
C559   C     0.37581   0.16666   0.74995   0.00000  Uiso   1.00
C560   C     0.49998   0.16668   0.66389   0.00000  Uiso   1.00
C561   C     0.50003   0.16668   0.83611   0.00000  Uiso   1.00
C562   C     0.52705   0.02398   0.77649   0.00000  Uiso   1.00
C563   C     0.47301   0.30934   0.72344   0.00000  Uiso   1.00
C564   C     0.47295   0.02398   0.72351   0.00000  Uiso   1.00
C565   C     0.52699   0.30934   0.77655   0.00000  Uiso   1.00
C566   C     0.35466   0.12596   0.75696   0.00000  Uiso   1.00
F567   F     0.55421   0.04666   0.80296   0.00000  Uiso   1.00
F568   F     0.54200   0.09915   0.88552   0.00000  Uiso   1.00
F569   F     0.45830   0.23447   0.88494   0.00000  Uiso   1.00
F570   F     0.45818   0.09911   0.61437   0.00000  Uiso   1.00
F571   F     0.44604   0.28663   0.69674   0.00000  Uiso   1.00
F572   F     0.44576   0.04666   0.69707   0.00000  Uiso   1.00
F573   F     0.55399   0.28664   0.80322   0.00000  Uiso   1.00
F574   F     0.54158   0.23446   0.52467   0.00000  Uiso   1.00
F575   F     0.54172   0.09949   0.97598   0.00000  Uiso   1.00
F576   F     0.45874   0.23447   0.97544   0.00000  Uiso   1.00
F577   F     0.45864   0.09945   0.52392   0.00000  Uiso   1.00
F578   F     0.54183   0.23447   0.61517   0.00000  Uiso   1.00
H579   H     0.37088   0.09429   0.76263   0.00000  Uiso   1.00
H580   H     0.62911   0.23904   0.73736   0.00000  Uiso   1.00
H581   H     0.62924   0.09430   0.76274   0.00000  Uiso   1.00
H582   H     0.37076   0.23903   0.73726   0.00000  Uiso   1.00
N583   N     0.50000   0.28573   0.75000   0.00000  Uiso   1.00
N584   N     0.50000   0.04760   0.75000   0.00000  Uiso   1.00
O585   O     0.43892   0.20487   0.75000   0.00000  Uiso   1.00
O586   O     0.56108   0.12846   0.75001   0.00000  Uiso   1.00
O587   O     0.56108   0.20487   0.75001   0.00000  Uiso   1.00
O588   O     0.43892   0.12846   0.75000   0.00000  Uiso   1.00
O589   O     0.50000   0.20489   0.68453   0.00000  Uiso   1.00
O590   O     0.50000   0.12845   0.81547   0.00000  Uiso   1.00
O591   O     0.50000   0.20489   0.81547   0.00000  Uiso   1.00
O592   O     0.50000   0.12845   0.68453   0.00000  Uiso   1.00
Zn593  Zn    0.50000   0.21771   0.75000   0.00000  Uiso   1.00
Zn594  Zn    0.50000   0.11563   0.75000   0.00000  Uiso   1.00
C595   C     0.75329   0.16667   0.74996   0.00000  Uiso   1.00
C596   C     0.97867   0.20737   0.74302   0.00000  Uiso   1.00
C597   C     0.97874   0.12596   0.75703   0.00000  Uiso   1.00
C598   C     0.68793   0.20737   0.74297   0.00000  Uiso   1.00
C599   C     0.85421   0.20141   0.54695   0.00000  Uiso   1.00
C600   C     0.85433   0.13244   0.95338   0.00000  Uiso   1.00
C601   C     0.81275   0.20143   0.95311   0.00000  Uiso   1.00
C602   C     0.81265   0.13240   0.54657   0.00000  Uiso   1.00
C603   C     0.85415   0.20141   0.59303   0.00000  Uiso   1.00
C604   C     0.85425   0.13224   0.90731   0.00000  Uiso   1.00
C605   C     0.81270   0.20143   0.90703   0.00000  Uiso   1.00
C606   C     0.91338   0.16667   0.75004   0.00000  Uiso   1.00
C607   C     0.81263   0.13221   0.59264   0.00000  Uiso   1.00
C608   C     0.83338   0.16674   0.61592   0.00000  Uiso   1.00
C609   C     0.83341   0.16675   0.88408   0.00000  Uiso   1.00
C610   C     0.83346   0.16694   0.52395   0.00000  Uiso   1.00
C611   C     0.83355   0.16697   0.97605   0.00000  Uiso   1.00
C612   C     0.95753   0.16667   0.75005   0.00000  Uiso   1.00
C613   C     0.70914   0.16666   0.74995   0.00000  Uiso   1.00
C614   C     0.83332   0.16668   0.66389   0.00000  Uiso   1.00
C615   C     0.83337   0.16668   0.83611   0.00000  Uiso   1.00
C616   C     0.86038   0.02398   0.77649   0.00000  Uiso   1.00
C617   C     0.80634   0.30934   0.72344   0.00000  Uiso   1.00
C618   C     0.80628   0.02398   0.72351   0.00000  Uiso   1.00
C619   C     0.86033   0.30934   0.77655   0.00000  Uiso   1.00
C620   C     0.68799   0.12596   0.75696   0.00000  Uiso   1.00
F621   F     0.88754   0.04666   0.80296   0.00000  Uiso   1.00
F622   F     0.87533   0.09915   0.88552   0.00000  Uiso   1.00
F623   F     0.79163   0.23447   0.88494   0.00000  Uiso   1.00
F624   F     0.79151   0.09911   0.61437   0.00000  Uiso   1.00
F625   F     0.77937   0.28663   0.69674   0.00000  Uiso   1.00
F626   F     0.77910   0.04666   0.69707   0.00000  Uiso   1.00
F627   F     0.88732   0.28664   0.80322   0.00000  Uiso   1.00
F628   F     0.87491   0.23446   0.52467   0.00000  Uiso   1.00
F629   F     0.87505   0.09949   0.97598   0.00000  Uiso   1.00
F630   F     0.79207   0.23447   0.97544   0.00000  Uiso   1.00
F631   F     0.79197   0.09945   0.52392   0.00000  Uiso   1.00
F632   F     0.87516   0.23447   0.61517   0.00000  Uiso   1.00
H633   H     0.70422   0.09429   0.76263   0.00000  Uiso   1.00
H634   H     0.96245   0.23904   0.73736   0.00000  Uiso   1.00
H635   H     0.96257   0.09430   0.76274   0.00000  Uiso   1.00
H636   H     0.70409   0.23903   0.73726   0.00000  Uiso   1.00
N637   N     0.83333   0.28573   0.75000   0.00000  Uiso   1.00
N638   N     0.83333   0.04760   0.75000   0.00000  Uiso   1.00
O639   O     0.77226   0.20487   0.75000   0.00000  Uiso   1.00
O640   O     0.89441   0.12846   0.75001   0.00000  Uiso   1.00
O641   O     0.89441   0.20487   0.75001   0.00000  Uiso   1.00
O642   O     0.77226   0.12846   0.75000   0.00000  Uiso   1.00
O643   O     0.83333   0.20489   0.68453   0.00000  Uiso   1.00
O644   O     0.83334   0.12845   0.81547   0.00000  Uiso   1.00
O645   O     0.83334   0.20489   0.81547   0.00000  Uiso   1.00
O646   O     0.83333   0.12845   0.68453   0.00000  Uiso   1.00
Zn647  Zn    0.83333   0.21771   0.75000   0.00000  Uiso   1.00
Zn648  Zn    0.83333   0.11563   0.75000   0.00000  Uiso   1.00
C649   C     0.08662   0.50000   0.74996   0.00000  Uiso   1.00
C650   C     0.31200   0.54071   0.74302   0.00000  Uiso   1.00
C651   C     0.31207   0.45930   0.75703   0.00000  Uiso   1.00
C652   C     0.02126   0.54070   0.74297   0.00000  Uiso   1.00
C653   C     0.18754   0.53474   0.54695   0.00000  Uiso   1.00
C654   C     0.18766   0.46577   0.95338   0.00000  Uiso   1.00
C655   C     0.14608   0.53477   0.95311   0.00000  Uiso   1.00
C656   C     0.14598   0.46573   0.54657   0.00000  Uiso   1.00
C657   C     0.18748   0.53474   0.59303   0.00000  Uiso   1.00
C658   C     0.18758   0.46557   0.90731   0.00000  Uiso   1.00
C659   C     0.14604   0.53476   0.90703   0.00000  Uiso   1.00
C660   C     0.24671   0.50000   0.75004   0.00000  Uiso   1.00
C661   C     0.14596   0.46554   0.59264   0.00000  Uiso   1.00
C662   C     0.16671   0.50008   0.61592   0.00000  Uiso   1.00
C663   C     0.16675   0.50009   0.88408   0.00000  Uiso   1.00
C664   C     0.16680   0.50028   0.52395   0.00000  Uiso   1.00
C665   C     0.16688   0.50031   0.97605   0.00000  Uiso   1.00
C666   C     0.29086   0.50000   0.75005   0.00000  Uiso   1.00
C667   C     0.04247   0.50000   0.74995   0.00000  Uiso   1.00
C668   C     0.16665   0.50001   0.66389   0.00000  Uiso   1.00
C669   C     0.16670   0.50001   0.83611   0.00000  Uiso   1.00
C670   C     0.19371   0.35731   0.77649   0.00000  Uiso   1.00
C671   C     0.13968   0.64268   0.72344   0.00000  Uiso   1.00
C672   C     0.13962   0.35731   0.72351   0.00000  Uiso   1.00
C673   C     0.19366   0.64268   0.77655   0.00000  Uiso   1.00
C674   C     0.02133   0.45929   0.75696   0.00000  Uiso   1.00
F675   F     0.22088   0.37999   0.80296   0.00000  Uiso   1.00
F676   F     0.20866   0.43249   0.88552   0.00000  Uiso   1.00
F677   F     0.12496   0.56781   0.88494   0.00000  Uiso   1.00
F678   F     0.12484   0.43245   0.61437   0.00000  Uiso   1.00
F679   F     0.11271   0.61997   0.69674   0.00000  Uiso   1.00
F680   F     0.11243   0.37999   0.69707   0.00000  Uiso   1.00
F681   F     0.22065   0.61997   0.80322   0.00000  Uiso   1.00
F682   F     0.20824   0.56779   0.52467   0.00000  Uiso   1.00
F683   F     0.20839   0.43282   0.97598   0.00000  Uiso   1.00
F684   F     0.12540   0.56780   0.97544   0.00000  Uiso   1.00
F685   F     0.12531   0.43278   0.52392   0.00000  Uiso   1.00
F686   F     0.20850   0.56780   0.61517   0.00000  Uiso   1.00
H687   H     0.03755   0.42762   0.76263   0.00000  Uiso   1.00
H688   H     0.29578   0.57238   0.73736   0.00000  Uiso   1.00
H689   H     0.29591   0.42764   0.76274   0.00000  Uiso   1.00
H690   H     0.03743   0.57237   0.73726   0.00000  Uiso   1.00
N691   N     0.16667   0.61907   0.75000   0.00000  Uiso   1.00
N692   N     0.16667   0.38093   0.75000   0.00000  Uiso   1.00
O693   O     0.10559   0.53821   0.75000   0.00000  Uiso   1.00
O694   O     0.22774   0.46179   0.75001   0.00000  Uiso   1.00
O695   O     0.22774   0.53821   0.75001   0.00000  Uiso   1.00
O696   O     0.10559   0.46179   0.75000   0.00000  Uiso   1.00
O697   O     0.16666   0.53822   0.68453   0.00000  Uiso   1.00
O698   O     0.16667   0.46178   0.81547   0.00000  Uiso   1.00
O699   O     0.16667   0.53822   0.81547   0.00000  Uiso   1.00
O700   O     0.16666   0.46178   0.68453   0.00000  Uiso   1.00
Zn701  Zn    0.16667   0.55104   0.75000   0.00000  Uiso   1.00
Zn702  Zn    0.16667   0.44896   0.75000   0.00000  Uiso   1.00
C703   C     0.41995   0.50000   0.74996   0.00000  Uiso   1.00
C704   C     0.64534   0.54071   0.74302   0.00000  Uiso   1.00
C705   C     0.64540   0.45930   0.75703   0.00000  Uiso   1.00
C706   C     0.35459   0.54070   0.74297   0.00000  Uiso   1.00
C707   C     0.52088   0.53474   0.54695   0.00000  Uiso   1.00
C708   C     0.52100   0.46577   0.95338   0.00000  Uiso   1.00
C709   C     0.47941   0.53477   0.95311   0.00000  Uiso   1.00
C710   C     0.47932   0.46573   0.54657   0.00000  Uiso   1.00
C711   C     0.52081   0.53474   0.59303   0.00000  Uiso   1.00
C712   C     0.52091   0.46557   0.90731   0.00000  Uiso   1.00
C713   C     0.47937   0.53476   0.90703   0.00000  Uiso   1.00
C714   C     0.58004   0.50000   0.75004   0.00000  Uiso   1.00
C715   C     0.47929   0.46554   0.59264   0.00000  Uiso   1.00
C716   C     0.50005   0.50008   0.61592   0.00000  Uiso   1.00
C717   C     0.50008   0.50009   0.88408   0.00000  Uiso   1.00
C718   C     0.50013   0.50028   0.52395   0.00000  Uiso   1.00
C719   C     0.50022   0.50031   0.97605   0.00000  Uiso   1.00
C720   C     0.62419   0.50000   0.75005   0.00000  Uiso   1.00
C721   C     0.37581   0.50000   0.74995   0.00000  Uiso   1.00
C722   C     0.49998   0.50001   0.66389   0.00000  Uiso   1.00
C723   C     0.50003   0.50001   0.83611   0.00000  Uiso   1.00
C724   C     0.52705   0.35731   0.77649   0.00000  Uiso   1.00
C725   C     0.47301   0.64268   0.72344   0.00000  Uiso   1.00
C726   C     0.47295   0.35731   0.72351   0.00000  Uiso   1.00
C727   C     0.52699   0.64268   0.77655   0.00000  Uiso   1.00
C728   C     0.35466   0.45929   0.75696   0.00000  Uiso   1.00
F729   F     0.55421   0.37999   0.80296   0.00000  Uiso   1.00
F730   F     0.54200   0.43249   0.88552   0.00000  Uiso   1.00
F731   F     0.45830   0.56781   0.88494   0.00000  Uiso   1.00
F732   F     0.45818   0.43245   0.61437   0.00000  Uiso   1.00
F733   F     0.44604   0.61997   0.69674   0.00000  Uiso   1.00
F734   F     0.44576   0.37999   0.69707   0.00000  Uiso   1.00
F735   F     0.55399   0.61997   0.80322   0.00000  Uiso   1.00
F736   F     0.54158   0.56779   0.52467   0.00000  Uiso   1.00
F737   F     0.54172   0.43282   0.97598   0.00000  Uiso   1.00
F738   F     0.45874   0.56780   0.97544   0.00000  Uiso   1.00
F739   F     0.45864   0.43278   0.52392   0.00000  Uiso   1.00
F740   F     0.54183   0.56780   0.61517   0.00000  Uiso   1.00
H741   H     0.37088   0.42762   0.76263   0.00000  Uiso   1.00
H742   H     0.62911   0.57238   0.73736   0.00000  Uiso   1.00
H743   H     0.62924   0.42764   0.76274   0.00000  Uiso   1.00
H744   H     0.37076   0.57237   0.73726   0.00000  Uiso   1.00
N745   N     0.50000   0.61907   0.75000   0.00000  Uiso   1.00
N746   N     0.50000   0.38093   0.75000   0.00000  Uiso   1.00
O747   O     0.43892   0.53821   0.75000   0.00000  Uiso   1.00
O748   O     0.56108   0.46179   0.75001   0.00000  Uiso   1.00
O749   O     0.56108   0.53821   0.75001   0.00000  Uiso   1.00
O750   O     0.43892   0.46179   0.75000   0.00000  Uiso   1.00
O751   O     0.50000   0.53822   0.68453   0.00000  Uiso   1.00
O752   O     0.50000   0.46178   0.81547   0.00000  Uiso   1.00
O753   O     0.50000   0.53822   0.81547   0.00000  Uiso   1.00
O754   O     0.50000   0.46178   0.68453   0.00000  Uiso   1.00
Zn755  Zn    0.50000   0.55104   0.75000   0.00000  Uiso   1.00
Zn756  Zn    0.50000   0.44896   0.75000   0.00000  Uiso   1.00
C757   C     0.75329   0.50000   0.74996   0.00000  Uiso   1.00
C758   C     0.97867   0.54071   0.74302   0.00000  Uiso   1.00
C759   C     0.97874   0.45930   0.75703   0.00000  Uiso   1.00
C760   C     0.68793   0.54070   0.74297   0.00000  Uiso   1.00
C761   C     0.85421   0.53474   0.54695   0.00000  Uiso   1.00
C762   C     0.85433   0.46577   0.95338   0.00000  Uiso   1.00
C763   C     0.81275   0.53477   0.95311   0.00000  Uiso   1.00
C764   C     0.81265   0.46573   0.54657   0.00000  Uiso   1.00
C765   C     0.85415   0.53474   0.59303   0.00000  Uiso   1.00
C766   C     0.85425   0.46557   0.90731   0.00000  Uiso   1.00
C767   C     0.81270   0.53476   0.90703   0.00000  Uiso   1.00
C768   C     0.91338   0.50000   0.75004   0.00000  Uiso   1.00
C769   C     0.81263   0.46554   0.59264   0.00000  Uiso   1.00
C770   C     0.83338   0.50008   0.61592   0.00000  Uiso   1.00
C771   C     0.83341   0.50009   0.88408   0.00000  Uiso   1.00
C772   C     0.83346   0.50028   0.52395   0.00000  Uiso   1.00
C773   C     0.83355   0.50031   0.97605   0.00000  Uiso   1.00
C774   C     0.95753   0.50000   0.75005   0.00000  Uiso   1.00
C775   C     0.70914   0.50000   0.74995   0.00000  Uiso   1.00
C776   C     0.83332   0.50001   0.66389   0.00000  Uiso   1.00
C777   C     0.83337   0.50001   0.83611   0.00000  Uiso   1.00
C778   C     0.86038   0.35731   0.77649   0.00000  Uiso   1.00
C779   C     0.80634   0.64268   0.72344   0.00000  Uiso   1.00
C780   C     0.80628   0.35731   0.72351   0.00000  Uiso   1.00
C781   C     0.86033   0.64268   0.77655   0.00000  Uiso   1.00
C782   C     0.68799   0.45929   0.75696   0.00000  Uiso   1.00
F783   F     0.88754   0.37999   0.80296   0.00000  Uiso   1.00
F784   F     0.87533   0.43249   0.88552   0.00000  Uiso   1.00
F785   F     0.79163   0.56781   0.88494   0.00000  Uiso   1.00
F786   F     0.79151   0.43245   0.61437   0.00000  Uiso   1.00
F787   F     0.77937   0.61997   0.69674   0.00000  Uiso   1.00
F788   F     0.77910   0.37999   0.69707   0.00000  Uiso   1.00
F789   F     0.88732   0.61997   0.80322   0.00000  Uiso   1.00
F790   F     0.87491   0.56779   0.52467   0.00000  Uiso   1.00
F791   F     0.87505   0.43282   0.97598   0.00000  Uiso   1.00
F792   F     0.79207   0.56780   0.97544   0.00000  Uiso   1.00
F793   F     0.79197   0.43278   0.52392   0.00000  Uiso   1.00
F794   F     0.87516   0.56780   0.61517   0.00000  Uiso   1.00
H795   H     0.70422   0.42762   0.76263   0.00000  Uiso   1.00
H796   H     0.96245   0.57238   0.73736   0.00000  Uiso   1.00
H797   H     0.96257   0.42764   0.76274   0.00000  Uiso   1.00
H798   H     0.70409   0.57237   0.73726   0.00000  Uiso   1.00
N799   N     0.83333   0.61907   0.75000   0.00000  Uiso   1.00
N800   N     0.83333   0.38093   0.75000   0.00000  Uiso   1.00
O801   O     0.77226   0.53821   0.75000   0.00000  Uiso   1.00
O802   O     0.89441   0.46179   0.75001   0.00000  Uiso   1.00
O803   O     0.89441   0.53821   0.75001   0.00000  Uiso   1.00
O804   O     0.77226   0.46179   0.75000   0.00000  Uiso   1.00
O805   O     0.83333   0.53822   0.68453   0.00000  Uiso   1.00
O806   O     0.83334   0.46178   0.81547   0.00000  Uiso   1.00
O807   O     0.83334   0.53822   0.81547   0.00000  Uiso   1.00
O808   O     0.83333   0.46178   0.68453   0.00000  Uiso   1.00
Zn809  Zn    0.83333   0.55104   0.75000   0.00000  Uiso   1.00
Zn810  Zn    0.83333   0.44896   0.75000   0.00000  Uiso   1.00
C811   C     0.08662   0.83333   0.74996   0.00000  Uiso   1.00
C812   C     0.31200   0.87404   0.74302   0.00000  Uiso   1.00
C813   C     0.31207   0.79263   0.75703   0.00000  Uiso   1.00
C814   C     0.02126   0.87404   0.74297   0.00000  Uiso   1.00
C815   C     0.18754   0.86808   0.54695   0.00000  Uiso   1.00
C816   C     0.18766   0.79911   0.95338   0.00000  Uiso   1.00
C817   C     0.14608   0.86810   0.95311   0.00000  Uiso   1.00
C818   C     0.14598   0.79907   0.54657   0.00000  Uiso   1.00
C819   C     0.18748   0.86808   0.59303   0.00000  Uiso   1.00
C820   C     0.18758   0.79891   0.90731   0.00000  Uiso   1.00
C821   C     0.14604   0.86809   0.90703   0.00000  Uiso   1.00
C822   C     0.24671   0.83333   0.75004   0.00000  Uiso   1.00
C823   C     0.14596   0.79887   0.59264   0.00000  Uiso   1.00
C824   C     0.16671   0.83341   0.61592   0.00000  Uiso   1.00
C825   C     0.16675   0.83342   0.88408   0.00000  Uiso   1.00
C826   C     0.16680   0.83361   0.52395   0.00000  Uiso   1.00
C827   C     0.16688   0.83364   0.97605   0.00000  Uiso   1.00
C828   C     0.29086   0.83334   0.75005   0.00000  Uiso   1.00
C829   C     0.04247   0.83333   0.74995   0.00000  Uiso   1.00
C830   C     0.16665   0.83334   0.66389   0.00000  Uiso   1.00
C831   C     0.16670   0.83335   0.83611   0.00000  Uiso   1.00
C832   C     0.19371   0.69064   0.77649   0.00000  Uiso   1.00
C833   C     0.13968   0.97601   0.72344   0.00000  Uiso   1.00
C834   C     0.13962   0.69064   0.72351   0.00000  Uiso   1.00
C835   C     0.19366   0.97601   0.77655   0.00000  Uiso   1.00
C836   C     0.02133   0.79262   0.75696   0.00000  Uiso   1.00
F837   F     0.22088   0.71333   0.80296   0.00000  Uiso   1.00
F838   F     0.20866   0.76582   0.88552   0.00000  Uiso   1.00
F839   F     0.12496   0.90114   0.88494   0.00000  Uiso   1.00
F840   F     0.12484   0.76578   0.61437   0.00000  Uiso   1.00
F841   F     0.11271   0.95330   0.69674   0.00000  Uiso   1.00
F842   F     0.11243   0.71333   0.69707   0.00000  Uiso   1.00
F843   F     0.22065   0.95330   0.80322   0.00000  Uiso   1.00
F844   F     0.20824   0.90113   0.52467   0.00000  Uiso   1.00
F845   F     0.20839   0.76616   0.97598   0.00000  Uiso   1.00
F846   F     0.12540   0.90114   0.97544   0.00000  Uiso   1.00
F847   F     0.12531   0.76612   0.52392   0.00000  Uiso   1.00
F848   F     0.20850   0.90113   0.61517   0.00000  Uiso   1.00
H849   H     0.03755   0.76096   0.76263   0.00000  Uiso   1.00
H850   H     0.29578   0.90571   0.73736   0.00000  Uiso   1.00
H851   H     0.29591   0.76097   0.76274   0.00000  Uiso   1.00
H852   H     0.03743   0.90570   0.73726   0.00000  Uiso   1.00
N853   N     0.16667   0.95240   0.75000   0.00000  Uiso   1.00
N854   N     0.16667   0.71427   0.75000   0.00000  Uiso   1.00
O855   O     0.10559   0.87154   0.75000   0.00000  Uiso   1.00
O856   O     0.22774   0.79513   0.75001   0.00000  Uiso   1.00
O857   O     0.22774   0.87154   0.75001   0.00000  Uiso   1.00
O858   O     0.10559   0.79513   0.75000   0.00000  Uiso   1.00
O859   O     0.16666   0.87155   0.68453   0.00000  Uiso   1.00
O860   O     0.16667   0.79511   0.81547   0.00000  Uiso   1.00
O861   O     0.16667   0.87155   0.81547   0.00000  Uiso   1.00
O862   O     0.16666   0.79511   0.68453   0.00000  Uiso   1.00
Zn863  Zn    0.16667   0.88437   0.75000   0.00000  Uiso   1.00
Zn864  Zn    0.16667   0.78229   0.75000   0.00000  Uiso   1.00
C865   C     0.41995   0.83333   0.74996   0.00000  Uiso   1.00
C866   C     0.64534   0.87404   0.74302   0.00000  Uiso   1.00
C867   C     0.64540   0.79263   0.75703   0.00000  Uiso   1.00
C868   C     0.35459   0.87404   0.74297   0.00000  Uiso   1.00
C869   C     0.52088   0.86808   0.54695   0.00000  Uiso   1.00
C870   C     0.52100   0.79911   0.95338   0.00000  Uiso   1.00
C871   C     0.47941   0.86810   0.95311   0.00000  Uiso   1.00
C872   C     0.47932   0.79907   0.54657   0.00000  Uiso   1.00
C873   C     0.52081   0.86808   0.59303   0.00000  Uiso   1.00
C874   C     0.52091   0.79891   0.90731   0.00000  Uiso   1.00
C875   C     0.47937   0.86809   0.90703   0.00000  Uiso   1.00
C876   C     0.58004   0.83333   0.75004   0.00000  Uiso   1.00
C877   C     0.47929   0.79887   0.59264   0.00000  Uiso   1.00
C878   C     0.50005   0.83341   0.61592   0.00000  Uiso   1.00
C879   C     0.50008   0.83342   0.88408   0.00000  Uiso   1.00
C880   C     0.50013   0.83361   0.52395   0.00000  Uiso   1.00
C881   C     0.50022   0.83364   0.97605   0.00000  Uiso   1.00
C882   C     0.62419   0.83334   0.75005   0.00000  Uiso   1.00
C883   C     0.37581   0.83333   0.74995   0.00000  Uiso   1.00
C884   C     0.49998   0.83334   0.66389   0.00000  Uiso   1.00
C885   C     0.50003   0.83335   0.83611   0.00000  Uiso   1.00
C886   C     0.52705   0.69064   0.77649   0.00000  Uiso   1.00
C887   C     0.47301   0.97601   0.72344   0.00000  Uiso   1.00
C888   C     0.47295   0.69064   0.72351   0.00000  Uiso   1.00
C889   C     0.52699   0.97601   0.77655   0.00000  Uiso   1.00
C890   C     0.35466   0.79262   0.75696   0.00000  Uiso   1.00
F891   F     0.55421   0.71333   0.80296   0.00000  Uiso   1.00
F892   F     0.54200   0.76582   0.88552   0.00000  Uiso   1.00
F893   F     0.45830   0.90114   0.88494   0.00000  Uiso   1.00
F894   F     0.45818   0.76578   0.61437   0.00000  Uiso   1.00
F895   F     0.44604   0.95330   0.69674   0.00000  Uiso   1.00
F896   F     0.44576   0.71333   0.69707   0.00000  Uiso   1.00
F897   F     0.55399   0.95330   0.80322   0.00000  Uiso   1.00
F898   F     0.54158   0.90113   0.52467   0.00000  Uiso   1.00
F899   F     0.54172   0.76616   0.97598   0.00000  Uiso   1.00
F900   F     0.45874   0.90114   0.97544   0.00000  Uiso   1.00
F901   F     0.45864   0.76612   0.52392   0.00000  Uiso   1.00
F902   F     0.54183   0.90113   0.61517   0.00000  Uiso   1.00
H903   H     0.37088   0.76096   0.76263   0.00000  Uiso   1.00
H904   H     0.62911   0.90571   0.73736   0.00000  Uiso   1.00
H905   H     0.62924   0.76097   0.76274   0.00000  Uiso   1.00
H906   H     0.37076   0.90570   0.73726   0.00000  Uiso   1.00
N907   N     0.50000   0.95240   0.75000   0.00000  Uiso   1.00
N908   N     0.50000   0.71427   0.75000   0.00000  Uiso   1.00
O909   O     0.43892   0.87154   0.75000   0.00000  Uiso   1.00
O910   O     0.56108   0.79513   0.75001   0.00000  Uiso   1.00
O911   O     0.56108   0.87154   0.75001   0.00000  Uiso   1.00
O912   O     0.43892   0.79513   0.75000   0.00000  Uiso   1.00
O913   O     0.50000   0.87155   0.68453   0.00000  Uiso   1.00
O914   O     0.50000   0.79511   0.81547   0.00000  Uiso   1.00
O915   O     0.50000   0.87155   0.81547   0.00000  Uiso   1.00
O916   O     0.50000   0.79511   0.68453   0.00000  Uiso   1.00
Zn917  Zn    0.50000   0.88437   0.75000   0.00000  Uiso   1.00
Zn918  Zn    0.50000   0.78229   0.75000   0.00000  Uiso   1.00
C919   C     0.75329   0.83333   0.74996   0.00000  Uiso   1.00
C920   C     0.97867   0.87404   0.74302   0.00000  Uiso   1.00
C921   C     0.97874   0.79263   0.75703   0.00000  Uiso   1.00
C922   C     0.68793   0.87404   0.74297   0.00000  Uiso   1.00
C923   C     0.85421   0.86808   0.54695   0.00000  Uiso   1.00
C924   C     0.85433   0.79911   0.95338   0.00000  Uiso   1.00
C925   C     0.81275   0.86810   0.95311   0.00000  Uiso   1.00
C926   C     0.81265   0.79907   0.54657   0.00000  Uiso   1.00
C927   C     0.85415   0.86808   0.59303   0.00000  Uiso   1.00
C928   C     0.85425   0.79891   0.90731   0.00000  Uiso   1.00
C929   C     0.81270   0.86809   0.90703   0.00000  Uiso   1.00
C930   C     0.91338   0.83333   0.75004   0.00000  Uiso   1.00
C931   C     0.81263   0.79887   0.59264   0.00000  Uiso   1.00
C932   C     0.83338   0.83341   0.61592   0.00000  Uiso   1.00
C933   C     0.83341   0.83342   0.88408   0.00000  Uiso   1.00
C934   C     0.83346   0.83361   0.52395   0.00000  Uiso   1.00
C935   C     0.83355   0.83364   0.97605   0.00000  Uiso   1.00
C936   C     0.95753   0.83334   0.75005   0.00000  Uiso   1.00
C937   C     0.70914   0.83333   0.74995   0.00000  Uiso   1.00
C938   C     0.83332   0.83334   0.66389   0.00000  Uiso   1.00
C939   C     0.83337   0.83335   0.83611   0.00000  Uiso   1.00
C940   C     0.86038   0.69064   0.77649   0.00000  Uiso   1.00
C941   C     0.80634   0.97601   0.72344   0.00000  Uiso   1.00
C942   C     0.80628   0.69064   0.72351   0.00000  Uiso   1.00
C943   C     0.86033   0.97601   0.77655   0.00000  Uiso   1.00
C944   C     0.68799   0.79262   0.75696   0.00000  Uiso   1.00
F945   F     0.88754   0.71333   0.80296   0.00000  Uiso   1.00
F946   F     0.87533   0.76582   0.88552   0.00000  Uiso   1.00
F947   F     0.79163   0.90114   0.88494   0.00000  Uiso   1.00
F948   F     0.79151   0.76578   0.61437   0.00000  Uiso   1.00
F949   F     0.77937   0.95330   0.69674   0.00000  Uiso   1.00
F950   F     0.77910   0.71333   0.69707   0.00000  Uiso   1.00
F951   F     0.88732   0.95330   0.80322   0.00000  Uiso   1.00
F952   F     0.87491   0.90113   0.52467   0.00000  Uiso   1.00
F953   F     0.87505   0.76616   0.97598   0.00000  Uiso   1.00
F954   F     0.79207   0.90114   0.97544   0.00000  Uiso   1.00
F955   F     0.79197   0.76612   0.52392   0.00000  Uiso   1.00
F956   F     0.87516   0.90113   0.61517   0.00000  Uiso   1.00
H957   H     0.70422   0.76096   0.76263   0.00000  Uiso   1.00
H958   H     0.96245   0.90571   0.73736   0.00000  Uiso   1.00
H959   H     0.96257   0.76097   0.76274   0.00000  Uiso   1.00
H960   H     0.70409   0.90570   0.73726   0.00000  Uiso   1.00
N961   N     0.83333   0.95240   0.75000   0.00000  Uiso   1.00
N962   N     0.83333   0.71427   0.75000   0.00000  Uiso   1.00
O963   O     0.77226   0.87154   0.75000   0.00000  Uiso   1.00
O964   O     0.89441   0.79513   0.75001   0.00000  Uiso   1.00
O965   O     0.89441   0.87154   0.75001   0.00000  Uiso   1.00
O966   O     0.77226   0.79513   0.75000   0.00000  Uiso   1.00
O967   O     0.83333   0.87155   0.68453   0.00000  Uiso   1.00
O968   O     0.83334   0.79511   0.81547   0.00000  Uiso   1.00
O969   O     0.83334   0.87155   0.81547   0.00000  Uiso   1.00
O970   O     0.83333   0.79511   0.68453   0.00000  Uiso   1.00
Zn971  Zn    0.83333   0.88437   0.75000   0.00000  Uiso   1.00
Zn972  Zn    0.83333   0.78229   0.75000   0.00000  Uiso   1.00
loop_
_geom_bond_atom_site_label_1
_geom_bond_atom_site_label_2
_geom_bond_distance
_geom_bond_site_symmetry_2
_ccdc_geom_bond_type
C1     O48     1.282   .     A
C1     O45     1.282   .     A
C1     C19     1.420   .     S
C2     C18     1.397   .     A
C2     H40     1.084   .     S
C2     C58     1.370   .     S
C3     C18     1.397   .     A
C3     H41     1.084   .     S
C3     C80     1.370   .     S
C4     H42     1.084   .     S
C4     C19     1.397   .     A
C4     C110    1.370   1_455 S
C5     C9      1.382   .     A
C5     F34     1.359   .     S
C5     C16     1.397   .     A
C6     C10     1.382   .     A
C6     F35     1.359   .     S
C6     C17     1.397   .     A
C7     F36     1.359   .     S
C7     C11     1.382   .     A
C7     C17     1.397   .     A
C8     C13     1.382   .     A
C8     C16     1.397   .     A
C8     F37     1.359   .     S
C9     C14     1.403   .     A
C9     F38     1.359   .     S
C10    F28     1.358   .     S
C10    C15     1.403   .     A
C11    F29     1.359   .     S
C11    C15     1.403   .     A
C12    O47     1.282   .     A
C12    C18     1.420   .     S
C12    O46     1.282   .     A
C13    C14     1.403   .     A
C13    F30     1.358   .     S
C14    C20     1.439   .     S
C15    C21     1.439   .     S
C16    C503    1.436   1_554 S
C17    C502    1.436   .     S
C19    C26     1.397   .     A
C20    O49     1.287   .     A
C20    O52     1.287   .     A
C21    O50     1.287   .     A
C21    O51     1.287   .     A
C22    F27     1.355   .     S
C22    N44     1.367   .     A
C22    C349    1.416   1_545 S
C23    F31     1.355   .     S
C23    N43     1.367   .     A
C23    C186    1.416   .     S
C24    F32     1.355   .     S
C24    N44     1.367   .     A
C24    C347    1.416   1_545 S
C25    N43     1.366   .     A
C25    F33     1.355   .     S
C25    C184    1.416   .     S
C26    H39     1.084   .     S
C26    C111    1.370   1_455 S
N43    Zn53    2.008   .     S
N44    Zn54    2.008   .     S
O45    Zn53    2.001   .     S
O46    Zn54    2.001   .     S
O47    Zn53    2.001   .     S
O48    Zn54    2.001   .     S
O49    Zn53    1.999   .     S
O50    Zn54    1.999   .     S
O51    Zn53    1.999   .     S
O52    Zn54    1.999   .     S
C55    O102    1.282   .     A
C55    O99     1.282   .     A
C55    C73     1.420   .     S
C56    C72     1.397   .     A
C56    H94     1.084   .     S
C56    C112    1.370   .     S
C57    C72     1.397   .     A
C57    H95     1.084   .     S
C57    C134    1.370   .     S
C58    H96     1.084   .     S
C58    C73     1.397   .     A
C59    C63     1.382   .     A
C59    F88     1.359   .     S
C59    C70     1.397   .     A
C60    C64     1.382   .     A
C60    F89     1.359   .     S
C60    C71     1.397   .     A
C61    F90     1.359   .     S
C61    C65     1.382   .     A
C61    C71     1.397   .     A
C62    C67     1.382   .     A
C62    C70     1.397   .     A
C62    F91     1.359   .     S
C63    C68     1.403   .     A
C63    F92     1.359   .     S
C64    F82     1.358   .     S
C64    C69     1.403   .     A
C65    F83     1.359   .     S
C65    C69     1.403   .     A
C66    O101    1.282   .     A
C66    C72     1.420   .     S
C66    O100    1.282   .     A
C67    C68     1.403   .     A
C67    F84     1.358   .     S
C68    C74     1.439   .     S
C69    C75     1.439   .     S
C70    C557    1.436   1_554 S
C71    C556    1.436   .     S
C73    C80     1.397   .     A
C74    O103    1.287   .     A
C74    O106    1.287   .     A
C75    O104    1.287   .     A
C75    O105    1.287   .     A
C76    F81     1.355   .     S
C76    N98     1.367   .     A
C76    C403    1.416   1_545 S
C77    F85     1.355   .     S
C77    N97     1.367   .     A
C77    C240    1.416   .     S
C78    F86     1.355   .     S
C78    N98     1.367   .     A
C78    C401    1.416   1_545 S
C79    N97     1.366   .     A
C79    F87     1.355   .     S
C79    C238    1.416   .     S
C80    H93     1.084   .     S
N97    Zn107   2.008   .     S
N98    Zn108   2.008   .     S
O99    Zn107   2.001   .     S
O100   Zn108   2.001   .     S
O101   Zn107   2.001   .     S
O102   Zn108   2.001   .     S
O103   Zn107   1.999   .     S
O104   Zn108   1.999   .     S
O105   Zn107   1.999   .     S
O106   Zn108   1.999   .     S
C109   O156    1.282   .     A
C109   O153    1.282   .     A
C109   C127    1.420   .     S
C110   C126    1.397   .     A
C110   H148    1.084   .     S
C110   C4      1.370   1_655 S
C111   C126    1.397   .     A
C111   H149    1.084   .     S
C111   C26     1.370   1_655 S
C112   H150    1.084   .     S
C112   C127    1.397   .     A
C113   C117    1.382   .     A
C113   F142    1.359   .     S
C113   C124    1.397   .     A
C114   C118    1.382   .     A
C114   F143    1.359   .     S
C114   C125    1.397   .     A
C115   F144    1.359   .     S
C115   C119    1.382   .     A
C115   C125    1.397   .     A
C116   C121    1.382   .     A
C116   C124    1.397   .     A
C116   F145    1.359   .     S
C117   C122    1.403   .     A
C117   F146    1.359   .     S
C118   F136    1.358   .     S
C118   C123    1.403   .     A
C119   F137    1.359   .     S
C119   C123    1.403   .     A
C120   O155    1.282   .     A
C120   C126    1.420   .     S
C120   O154    1.282   .     A
C121   C122    1.403   .     A
C121   F138    1.358   .     S
C122   C128    1.439   .     S
C123   C129    1.439   .     S
C124   C611    1.436   1_554 S
C125   C610    1.436   .     S
C127   C134    1.397   .     A
C128   O157    1.287   .     A
C128   O160    1.287   .     A
C129   O158    1.287   .     A
C129   O159    1.287   .     A
C130   F135    1.355   .     S
C130   N152    1.367   .     A
C130   C457    1.416   1_545 S
C131   F139    1.355   .     S
C131   N151    1.367   .     A
C131   C294    1.416   .     S
C132   F140    1.355   .     S
C132   N152    1.367   .     A
C132   C455    1.416   1_545 S
C133   N151    1.366   .     A
C133   F141    1.355   .     S
C133   C292    1.416   .     S
C134   H147    1.084   .     S
N151   Zn161   2.008   .     S
N152   Zn162   2.008   .     S
O153   Zn161   2.001   .     S
O154   Zn162   2.001   .     S
O155   Zn161   2.001   .     S
O156   Zn162   2.001   .     S
O157   Zn161   1.999   .     S
O158   Zn162   1.999   .     S
O159   Zn161   1.999   .     S
O160   Zn162   1.999   .     S
C163   O210    1.282   .     A
C163   O207    1.282   .     A
C163   C181    1.420   .     S
C164   C180    1.397   .     A
C164   H202    1.084   .     S
C164   C220    1.370   .     S
C165   C180    1.397   .     A
C165   H203    1.084   .     S
C165   C242    1.370   .     S
C166   H204    1.084   .     S
C166   C181    1.397   .     A
C166   C272    1.370   1_455 S
C167   C171    1.382   .     A
C167   F196    1.359   .     S
C167   C178    1.397   .     A
C168   C172    1.382   .     A
C168   F197    1.359   .     S
C168   C179    1.397   .     A
C169   F198    1.359   .     S
C169   C173    1.382   .     A
C169   C179    1.397   .     A
C170   C175    1.382   .     A
C170   C178    1.397   .     A
C170   F199    1.359   .     S
C171   C176    1.403   .     A
C171   F200    1.359   .     S
C172   F190    1.358   .     S
C172   C177    1.403   .     A
C173   F191    1.359   .     S
C173   C177    1.403   .     A
C174   O209    1.282   .     A
C174   C180    1.420   .     S
C174   O208    1.282   .     A
C175   C176    1.403   .     A
C175   F192    1.358   .     S
C176   C182    1.439   .     S
C177   C183    1.439   .     S
C178   C665    1.436   1_554 S
C179   C664    1.436   .     S
C181   C188    1.397   .     A
C182   O211    1.287   .     A
C182   O214    1.287   .     A
C183   O212    1.287   .     A
C183   O213    1.287   .     A
C184   F189    1.355   .     S
C184   N206    1.367   .     A
C185   F193    1.355   .     S
C185   N205    1.367   .     A
C185   C348    1.416   .     S
C186   F194    1.355   .     S
C186   N206    1.367   .     A
C187   N205    1.366   .     A
C187   F195    1.355   .     S
C187   C346    1.416   .     S
C188   H201    1.084   .     S
C188   C273    1.370   1_455 S
N205   Zn215   2.008   .     S
N206   Zn216   2.008   .     S
O207   Zn215   2.001   .     S
O208   Zn216   2.001   .     S
O209   Zn215   2.001   .     S
O210   Zn216   2.001   .     S
O211   Zn215   1.999   .     S
O212   Zn216   1.999   .     S
O213   Zn215   1.999   .     S
O214   Zn216   1.999   .     S
C217   O264    1.282   .     A
C217   O261    1.282   .     A
C217   C235    1.420   .     S
C218   C234    1.397   .     A
C218   H256    1.084   .     S
C218   C274    1.370   .     S
C219   C234    1.397   .     A
C219   H257    1.084   .     S
C219   C296    1.370   .     S
C220   H258    1.084   .     S
C220   C235    1.397   .     A
C221   C225    1.382   .     A
C221   F250    1.359   .     S
C221   C232    1.397   .     A
C222   C226    1.382   .     A
C222   F251    1.359   .     S
C222   C233    1.397   .     A
C223   F252    1.359   .     S
C223   C227    1.382   .     A
C223   C233    1.397   .     A
C224   C229    1.382   .     A
C224   C232    1.397   .     A
C224   F253    1.359   .     S
C225   C230    1.403   .     A
C225   F254    1.359   .     S
C226   F244    1.358   .     S
C226   C231    1.403   .     A
C227   F245    1.359   .     S
C227   C231    1.403   .     A
C228   O263    1.282   .     A
C228   C234    1.420   .     S
C228   O262    1.282   .     A
C229   C230    1.403   .     A
C229   F246    1.358   .     S
C230   C236    1.439   .     S
C231   C237    1.439   .     S
C232   C719    1.436   1_554 S
C233   C718    1.436   .     S
C235   C242    1.397   .     A
C236   O265    1.287   .     A
C236   O268    1.287   .     A
C237   O266    1.287   .     A
C237   O267    1.287   .     A
C238   F243    1.355   .     S
C238   N260    1.367   .     A
C239   F247    1.355   .     S
C239   N259    1.367   .     A
C239   C402    1.416   .     S
C240   F248    1.355   .     S
C240   N260    1.367   .     A
C241   N259    1.366   .     A
C241   F249    1.355   .     S
C241   C400    1.416   .     S
C242   H255    1.084   .     S
N259   Zn269   2.008   .     S
N260   Zn270   2.008   .     S
O261   Zn269   2.001   .     S
O262   Zn270   2.001   .     S
O263   Zn269   2.001   .     S
O264   Zn270   2.001   .     S
O265   Zn269   1.999   .     S
O266   Zn270   1.999   .     S
O267   Zn269   1.999   .     S
O268   Zn270   1.999   .     S
C271   O318    1.282   .     A
C271   O315    1.282   .     A
C271   C289    1.420   .     S
C272   C288    1.397   .     A
C272   H310    1.084   .     S
C272   C166    1.370   1_655 S
C273   C288    1.397   .     A
C273   H311    1.084   .     S
C273   C188    1.370   1_655 S
C274   H312    1.084   .     S
C274   C289    1.397   .     A
C275   C279    1.382   .     A
C275   F304    1.359   .     S
C275   C286    1.397   .     A
C276   C280    1.382   .     A
C276   F305    1.359   .     S
C276   C287    1.397   .     A
C277   F306    1.359   .     S
C277   C281    1.382   .     A
C277   C287    1.397   .     A
C278   C283    1.382   .     A
C278   C286    1.397   .     A
C278   F307    1.359   .     S
C279   C284    1.403   .     A
C279   F308    1.359   .     S
C280   F298    1.358   .     S
C280   C285    1.403   .     A
C281   F299    1.359   .     S
C281   C285    1.403   .     A
C282   O317    1.282   .     A
C282   C288    1.420   .     S
C282   O316    1.282   .     A
C283   C284    1.403   .     A
C283   F300    1.358   .     S
C284   C290    1.439   .     S
C285   C291    1.439   .     S
C286   C773    1.436   1_554 S
C287   C772    1.436   .     S
C289   C296    1.397   .     A
C290   O319    1.287   .     A
C290   O322    1.287   .     A
C291   O320    1.287   .     A
C291   O321    1.287   .     A
C292   F297    1.355   .     S
C292   N314    1.367   .     A
C293   F301    1.355   .     S
C293   N313    1.367   .     A
C293   C456    1.416   .     S
C294   F302    1.355   .     S
C294   N314    1.367   .     A
C295   N313    1.366   .     A
C295   F303    1.355   .     S
C295   C454    1.416   .     S
C296   H309    1.084   .     S
N313   Zn323   2.008   .     S
N314   Zn324   2.008   .     S
O315   Zn323   2.001   .     S
O316   Zn324   2.001   .     S
O317   Zn323   2.001   .     S
O318   Zn324   2.001   .     S
O319   Zn323   1.999   .     S
O320   Zn324   1.999   .     S
O321   Zn323   1.999   .     S
O322   Zn324   1.999   .     S
C325   O372    1.282   .     A
C325   O369    1.282   .     A
C325   C343    1.420   .     S
C326   C342    1.397   .     A
C326   H364    1.084   .     S
C326   C382    1.370   .     S
C327   C342    1.397   .     A
C327   H365    1.084   .     S
C327   C404    1.370   .     S
C328   H366    1.084   .     S
C328   C343    1.397   .     A
C328   C434    1.370   1_455 S
C329   C333    1.382   .     A
C329   F358    1.359   .     S
C329   C340    1.397   .     A
C330   C334    1.382   .     A
C330   F359    1.359   .     S
C330   C341    1.397   .     A
C331   F360    1.359   .     S
C331   C335    1.382   .     A
C331   C341    1.397   .     A
C332   C337    1.382   .     A
C332   C340    1.397   .     A
C332   F361    1.359   .     S
C333   C338    1.403   .     A
C333   F362    1.359   .     S
C334   F352    1.358   .     S
C334   C339    1.403   .     A
C335   F353    1.359   .     S
C335   C339    1.403   .     A
C336   O371    1.282   .     A
C336   C342    1.420   .     S
C336   O370    1.282   .     A
C337   C338    1.403   .     A
C337   F354    1.358   .     S
C338   C344    1.439   .     S
C339   C345    1.439   .     S
C340   C827    1.436   1_554 S
C341   C826    1.436   .     S
C343   C350    1.397   .     A
C344   O373    1.287   .     A
C344   O376    1.287   .     A
C345   O374    1.287   .     A
C345   O375    1.287   .     A
C346   F351    1.355   .     S
C346   N368    1.367   .     A
C347   F355    1.355   .     S
C347   N367    1.367   .     A
C347   C24     1.416   1_565 S
C348   F356    1.355   .     S
C348   N368    1.367   .     A
C349   N367    1.366   .     A
C349   F357    1.355   .     S
C349   C22     1.416   1_565 S
C350   H363    1.084   .     S
C350   C435    1.370   1_455 S
N367   Zn377   2.008   .     S
N368   Zn378   2.008   .     S
O369   Zn377   2.001   .     S
O370   Zn378   2.001   .     S
O371   Zn377   2.001   .     S
O372   Zn378   2.001   .     S
O373   Zn377   1.999   .     S
O374   Zn378   1.999   .     S
O375   Zn377   1.999   .     S
O376   Zn378   1.999   .     S
C379   O426    1.282   .     A
C379   O423    1.282   .     A
C379   C397    1.420   .     S
C380   C396    1.397   .     A
C380   H418    1.084   .     S
C380   C436    1.370   .     S
C381   C396    1.397   .     A
C381   H419    1.084   .     S
C381   C458    1.370   .     S
C382   H420    1.084   .     S
C382   C397    1.397   .     A
C383   C387    1.382   .     A
C383   F412    1.359   .     S
C383   C394    1.397   .     A
C384   C388    1.382   .     A
C384   F413    1.359   .     S
C384   C395    1.397   .     A
C385   F414    1.359   .     S
C385   C389    1.382   .     A
C385   C395    1.397   .     A
C386   C391    1.382   .     A
C386   C394    1.397   .     A
C386   F415    1.359   .     S
C387   C392    1.403   .     A
C387   F416    1.359   .     S
C388   F406    1.358   .     S
C388   C393    1.403   .     A
C389   F407    1.359   .     S
C389   C393    1.403   .     A
C390   O425    1.282   .     A
C390   C396    1.420   .     S
C390   O424    1.282   .     A
C391   C392    1.403   .     A
C391   F408    1.358   .     S
C392   C398    1.439   .     S
C393   C399    1.439   .     S
C394   C881    1.436   1_554 S
C395   C880    1.436   .     S
C397   C404    1.397   .     A
C398   O427    1.287   .     A
C398   O430    1.287   .     A
C399   O428    1.287   .     A
C399   O429    1.287   .     A
C400   F405    1.355   .     S
C400   N422    1.367   .     A
C401   F409    1.355   .     S
C401   N421    1.367   .     A
C401   C78     1.416   1_565 S
C402   F410    1.355   .     S
C402   N422    1.367   .     A
C403   N421    1.366   .     A
C403   F411    1.355   .     S
C403   C76     1.416   1_565 S
C404   H417    1.084   .     S
N421   Zn431   2.008   .     S
N422   Zn432   2.008   .     S
O423   Zn431   2.001   .     S
O424   Zn432   2.001   .     S
O425   Zn431   2.001   .     S
O426   Zn432   2.001   .     S
O427   Zn431   1.999   .     S
O428   Zn432   1.999   .     S
O429   Zn431   1.999   .     S
O430   Zn432   1.999   .     S
C433   O480    1.282   .     A
C433   O477    1.282   .     A
C433   C451    1.420   .     S
C434   C450    1.397   .     A
C434   H472    1.084   .     S
C434   C328    1.370   1_655 S
C435   C450    1.397   .     A
C435   H473    1.084   .     S
C435   C350    1.370   1_655 S
C436   H474    1.084   .     S
C436   C451    1.397   .     A
C437   C441    1.382   .     A
C437   F466    1.359   .     S
C437   C448    1.397   .     A
C438   C442    1.382   .     A
C438   F467    1.359   .     S
C438   C449    1.397   .     A
C439   F468    1.359   .     S
C439   C443    1.382   .     A
C439   C449    1.397   .     A
C440   C445    1.382   .     A
C440   C448    1.397   .     A
C440   F469    1.359   .     S
C441   C446    1.403   .     A
C441   F470    1.359   .     S
C442   F460    1.358   .     S
C442   C447    1.403   .     A
C443   F461    1.359   .     S
C443   C447    1.403   .     A
C444   O479    1.282   .     A
C444   C450    1.420   .     S
C444   O478    1.282   .     A
C445   C446    1.403   .     A
C445   F462    1.358   .     S
C446   C452    1.439   .     S
C447   C453    1.439   .     S
C448   C935    1.436   1_554 S
C449   C934    1.436   .     S
C451   C458    1.397   .     A
C452   O481    1.287   .     A
C452   O484    1.287   .     A
C453   O482    1.287   .     A
C453   O483    1.287   .     A
C454   F459    1.355   .     S
C454   N476    1.367   .     A
C455   F463    1.355   .     S
C455   N475    1.367   .     A
C455   C132    1.416   1_565 S
C456   F464    1.355   .     S
C456   N476    1.367   .     A
C457   N475    1.366   .     A
C457   F465    1.355   .     S
C457   C130    1.416   1_565 S
C458   H471    1.084   .     S
N475   Zn485   2.008   .     S
N476   Zn486   2.008   .     S
O477   Zn485   2.001   .     S
O478   Zn486   2.001   .     S
O479   Zn485   2.001   .     S
O480   Zn486   2.001   .     S
O481   Zn485   1.999   .     S
O482   Zn486   1.999   .     S
O483   Zn485   1.999   .     S
O484   Zn486   1.999   .     S
C487   O534    1.282   .     A
C487   O531    1.282   .     A
C487   C505    1.420   .     S
C488   C504    1.397   .     A
C488   H526    1.084   .     S
C488   C544    1.370   .     S
C489   C504    1.397   .     A
C489   H527    1.084   .     S
C489   C566    1.370   .     S
C490   H528    1.084   .     S
C490   C505    1.397   .     A
C490   C596    1.370   1_455 S
C491   C495    1.382   .     A
C491   F520    1.359   .     S
C491   C502    1.397   .     A
C492   C496    1.382   .     A
C492   F521    1.359   .     S
C492   C503    1.397   .     A
C493   F522    1.359   .     S
C493   C497    1.382   .     A
C493   C503    1.397   .     A
C494   C499    1.382   .     A
C494   C502    1.397   .     A
C494   F523    1.359   .     S
C495   C500    1.403   .     A
C495   F524    1.359   .     S
C496   F514    1.358   .     S
C496   C501    1.403   .     A
C497   F515    1.359   .     S
C497   C501    1.403   .     A
C498   O533    1.282   .     A
C498   C504    1.420   .     S
C498   O532    1.282   .     A
C499   C500    1.403   .     A
C499   F516    1.358   .     S
C500   C506    1.439   .     S
C501   C507    1.439   .     S
C503   C16     1.436   1_556 S
C505   C512    1.397   .     A
C506   O535    1.287   .     A
C506   O538    1.287   .     A
C507   O536    1.287   .     A
C507   O537    1.287   .     A
C508   F513    1.355   .     S
C508   N530    1.367   .     A
C508   C835    1.416   1_545 S
C509   F517    1.355   .     S
C509   N529    1.367   .     A
C509   C672    1.416   .     S
C510   F518    1.355   .     S
C510   N530    1.367   .     A
C510   C833    1.416   1_545 S
C511   N529    1.366   .     A
C511   F519    1.355   .     S
C511   C670    1.416   .     S
C512   H525    1.084   .     S
C512   C597    1.370   1_455 S
N529   Zn539   2.008   .     S
N530   Zn540   2.008   .     S
O531   Zn539   2.001   .     S
O532   Zn540   2.001   .     S
O533   Zn539   2.001   .     S
O534   Zn540   2.001   .     S
O535   Zn539   1.999   .     S
O536   Zn540   1.999   .     S
O537   Zn539   1.999   .     S
O538   Zn540   1.999   .     S
C541   O588    1.282   .     A
C541   O585    1.282   .     A
C541   C559    1.420   .     S
C542   C558    1.397   .     A
C542   H580    1.084   .     S
C542   C598    1.370   .     S
C543   C558    1.397   .     A
C543   H581    1.084   .     S
C543   C620    1.370   .     S
C544   H582    1.084   .     S
C544   C559    1.397   .     A
C545   C549    1.382   .     A
C545   F574    1.359   .     S
C545   C556    1.397   .     A
C546   C550    1.382   .     A
C546   F575    1.359   .     S
C546   C557    1.397   .     A
C547   F576    1.359   .     S
C547   C551    1.382   .     A
C547   C557    1.397   .     A
C548   C553    1.382   .     A
C548   C556    1.397   .     A
C548   F577    1.359   .     S
C549   C554    1.403   .     A
C549   F578    1.359   .     S
C550   F568    1.358   .     S
C550   C555    1.403   .     A
C551   F569    1.359   .     S
C551   C555    1.403   .     A
C552   O587    1.282   .     A
C552   C558    1.420   .     S
C552   O586    1.282   .     A
C553   C554    1.403   .     A
C553   F570    1.358   .     S
C554   C560    1.439   .     S
C555   C561    1.439   .     S
C557   C70     1.436   1_556 S
C559   C566    1.397   .     A
C560   O589    1.287   .     A
C560   O592    1.287   .     A
C561   O590    1.287   .     A
C561   O591    1.287   .     A
C562   F567    1.355   .     S
C562   N584    1.367   .     A
C562   C889    1.416   1_545 S
C563   F571    1.355   .     S
C563   N583    1.367   .     A
C563   C726    1.416   .     S
C564   F572    1.355   .     S
C564   N584    1.367   .     A
C564   C887    1.416   1_545 S
C565   N583    1.366   .     A
C565   F573    1.355   .     S
C565   C724    1.416   .     S
C566   H579    1.084   .     S
N583   Zn593   2.008   .     S
N584   Zn594   2.008   .     S
O585   Zn593   2.001   .     S
O586   Zn594   2.001   .     S
O587   Zn593   2.001   .     S
O588   Zn594   2.001   .     S
O589   Zn593   1.999   .     S
O590   Zn594   1.999   .     S
O591   Zn593   1.999   .     S
O592   Zn594   1.999   .     S
C595   O642    1.282   .     A
C595   O639    1.282   .     A
C595   C613    1.420   .     S
C596   C612    1.397   .     A
C596   H634    1.084   .     S
C596   C490    1.370   1_655 S
C597   C612    1.397   .     A
C597   H635    1.084   .     S
C597   C512    1.370   1_655 S
C598   H636    1.084   .     S
C598   C613    1.397   .     A
C599   C603    1.382   .     A
C599   F628    1.359   .     S
C599   C610    1.397   .     A
C600   C604    1.382   .     A
C600   F629    1.359   .     S
C600   C611    1.397   .     A
C601   F630    1.359   .     S
C601   C605    1.382   .     A
C601   C611    1.397   .     A
C602   C607    1.382   .     A
C602   C610    1.397   .     A
C602   F631    1.359   .     S
C603   C608    1.403   .     A
C603   F632    1.359   .     S
C604   F622    1.358   .     S
C604   C609    1.403   .     A
C605   F623    1.359   .     S
C605   C609    1.403   .     A
C606   O641    1.282   .     A
C606   C612    1.420   .     S
C606   O640    1.282   .     A
C607   C608    1.403   .     A
C607   F624    1.358   .     S
C608   C614    1.439   .     S
C609   C615    1.439   .     S
C611   C124    1.436   1_556 S
C613   C620    1.397   .     A
C614   O643    1.287   .     A
C614   O646    1.287   .     A
C615   O644    1.287   .     A
C615   O645    1.287   .     A
C616   F621    1.355   .     S
C616   N638    1.367   .     A
C616   C943    1.416   1_545 S
C617   F625    1.355   .     S
C617   N637    1.367   .     A
C617   C780    1.416   .     S
C618   F626    1.355   .     S
C618   N638    1.367   .     A
C618   C941    1.416   1_545 S
C619   N637    1.366   .     A
C619   F627    1.355   .     S
C619   C778    1.416   .     S
C620   H633    1.084   .     S
N637   Zn647   2.008   .     S
N638   Zn648   2.008   .     S
O639   Zn647   2.001   .     S
O640   Zn648   2.001   .     S
O641   Zn647   2.001   .     S
O642   Zn648   2.001   .     S
O643   Zn647   1.999   .     S
O644   Zn648   1.999   .     S
O645   Zn647   1.999   .     S
O646   Zn648   1.999   .     S
C649   O696    1.282   .     A
C649   O693    1.282   .     A
C649   C667    1.420   .     S
C650   C666    1.397   .     A
C650   H688    1.084   .     S
C650   C706    1.370   .     S
C651   C666    1.397   .     A
C651   H689    1.084   .     S
C651   C728    1.370   .     S
C652   H690    1.084   .     S
C652   C667    1.397   .     A
C652   C758    1.370   1_455 S
C653   C657    1.382   .     A
C653   F682    1.359   .     S
C653   C664    1.397   .     A
C654   C658    1.382   .     A
C654   F683    1.359   .     S
C654   C665    1.397   .     A
C655   F684    1.359   .     S
C655   C659    1.382   .     A
C655   C665    1.397   .     A
C656   C661    1.382   .     A
C656   C664    1.397   .     A
C656   F685    1.359   .     S
C657   C662    1.403   .     A
C657   F686    1.359   .     S
C658   F676    1.358   .     S
C658   C663    1.403   .     A
C659   F677    1.359   .     S
C659   C663    1.403   .     A
C660   O695    1.282   .     A
C660   C666    1.420   .     S
C660   O694    1.282   .     A
C661   C662    1.403   .     A
C661   F678    1.358   .     S
C662   C668    1.439   .     S
C663   C669    1.439   .     S
C665   C178    1.436   1_556 S
C667   C674    1.397   .     A
C668   O697    1.287   .     A
C668   O700    1.287   .     A
C669   O698    1.287   .     A
C669   O699    1.287   .     A
C670   F675    1.355   .     S
C670   N692    1.367   .     A
C671   F679    1.355   .     S
C671   N691    1.367   .     A
C671   C834    1.416   .     S
C672   F680    1.355   .     S
C672   N692    1.367   .     A
C673   N691    1.366   .     A
C673   F681    1.355   .     S
C673   C832    1.416   .     S
C674   H687    1.084   .     S
C674   C759    1.370   1_455 S
N691   Zn701   2.008   .     S
N692   Zn702   2.008   .     S
O693   Zn701   2.001   .     S
O694   Zn702   2.001   .     S
O695   Zn701   2.001   .     S
O696   Zn702   2.001   .     S
O697   Zn701   1.999   .     S
O698   Zn702   1.999   .     S
O699   Zn701   1.999   .     S
O700   Zn702   1.999   .     S
C703   O750    1.282   .     A
C703   O747    1.282   .     A
C703   C721    1.420   .     S
C704   C720    1.397   .     A
C704   H742    1.084   .     S
C704   C760    1.370   .     S
C705   C720    1.397   .     A
C705   H743    1.084   .     S
C705   C782    1.370   .     S
C706   H744    1.084   .     S
C706   C721    1.397   .     A
C707   C711    1.382   .     A
C707   F736    1.359   .     S
C707   C718    1.397   .     A
C708   C712    1.382   .     A
C708   F737    1.359   .     S
C708   C719    1.397   .     A
C709   F738    1.359   .     S
C709   C713    1.382   .     A
C709   C719    1.397   .     A
C710   C715    1.382   .     A
C710   C718    1.397   .     A
C710   F739    1.359   .     S
C711   C716    1.403   .     A
C711   F740    1.359   .     S
C712   F730    1.358   .     S
C712   C717    1.403   .     A
C713   F731    1.359   .     S
C713   C717    1.403   .     A
C714   O749    1.282   .     A
C714   C720    1.420   .     S
C714   O748    1.282   .     A
C715   C716    1.403   .     A
C715   F732    1.358   .     S
C716   C722    1.439   .     S
C717   C723    1.439   .     S
C719   C232    1.436   1_556 S
C721   C728    1.397   .     A
C722   O751    1.287   .     A
C722   O754    1.287   .     A
C723   O752    1.287   .     A
C723   O753    1.287   .     A
C724   F729    1.355   .     S
C724   N746    1.367   .     A
C725   F733    1.355   .     S
C725   N745    1.367   .     A
C725   C888    1.416   .     S
C726   F734    1.355   .     S
C726   N746    1.367   .     A
C727   N745    1.366   .     A
C727   F735    1.355   .     S
C727   C886    1.416   .     S
C728   H741    1.084   .     S
N745   Zn755   2.008   .     S
N746   Zn756   2.008   .     S
O747   Zn755   2.001   .     S
O748   Zn756   2.001   .     S
O749   Zn755   2.001   .     S
O750   Zn756   2.001   .     S
O751   Zn755   1.999   .     S
O752   Zn756   1.999   .     S
O753   Zn755   1.999   .     S
O754   Zn756   1.999   .     S
C757   O804    1.282   .     A
C757   O801    1.282   .     A
C757   C775    1.420   .     S
C758   C774    1.397   .     A
C758   H796    1.084   .     S
C758   C652    1.370   1_655 S
C759   C774    1.397   .     A
C759   H797    1.084   .     S
C759   C674    1.370   1_655 S
C760   H798    1.084   .     S
C760   C775    1.397   .     A
C761   C765    1.382   .     A
C761   F790    1.359   .     S
C761   C772    1.397   .     A
C762   C766    1.382   .     A
C762   F791    1.359   .     S
C762   C773    1.397   .     A
C763   F792    1.359   .     S
C763   C767    1.382   .     A
C763   C773    1.397   .     A
C764   C769    1.382   .     A
C764   C772    1.397   .     A
C764   F793    1.359   .     S
C765   C770    1.403   .     A
C765   F794    1.359   .     S
C766   F784    1.358   .     S
C766   C771    1.403   .     A
C767   F785    1.359   .     S
C767   C771    1.403   .     A
C768   O803    1.282   .     A
C768   C774    1.420   .     S
C768   O802    1.282   .     A
C769   C770    1.403   .     A
C769   F786    1.358   .     S
C770   C776    1.439   .     S
C771   C777    1.439   .     S
C773   C286    1.436   1_556 S
C775   C782    1.397   .     A
C776   O805    1.287   .     A
C776   O808    1.287   .     A
C777   O806    1.287   .     A
C777   O807    1.287   .     A
C778   F783    1.355   .     S
C778   N800    1.367   .     A
C779   F787    1.355   .     S
C779   N799    1.367   .     A
C779   C942    1.416   .     S
C780   F788    1.355   .     S
C780   N800    1.367   .     A
C781   N799    1.366   .     A
C781   F789    1.355   .     S
C781   C940    1.416   .     S
C782   H795    1.084   .     S
N799   Zn809   2.008   .     S
N800   Zn810   2.008   .     S
O801   Zn809   2.001   .     S
O802   Zn810   2.001   .     S
O803   Zn809   2.001   .     S
O804   Zn810   2.001   .     S
O805   Zn809   1.999   .     S
O806   Zn810   1.999   .     S
O807   Zn809   1.999   .     S
O808   Zn810   1.999   .     S
C811   O858    1.282   .     A
C811   O855    1.282   .     A
C811   C829    1.420   .     S
C812   C828    1.397   .     A
C812   H850    1.084   .     S
C812   C868    1.370   .     S
C813   C828    1.397   .     A
C813   H851    1.084   .     S
C813   C890    1.370   .     S
C814   H852    1.084   .     S
C814   C829    1.397   .     A
C814   C920    1.370   1_455 S
C815   C819    1.382   .     A
C815   F844    1.359   .     S
C815   C826    1.397   .     A
C816   C820    1.382   .     A
C816   F845    1.359   .     S
C816   C827    1.397   .     A
C817   F846    1.359   .     S
C817   C821    1.382   .     A
C817   C827    1.397   .     A
C818   C823    1.382   .     A
C818   C826    1.397   .     A
C818   F847    1.359   .     S
C819   C824    1.403   .     A
C819   F848    1.359   .     S
C820   F838    1.358   .     S
C820   C825    1.403   .     A
C821   F839    1.359   .     S
C821   C825    1.403   .     A
C822   O857    1.282   .     A
C822   C828    1.420   .     S
C822   O856    1.282   .     A
C823   C824    1.403   .     A
C823   F840    1.358   .     S
C824   C830    1.439   .     S
C825   C831    1.439   .     S
C827   C340    1.436   1_556 S
C829   C836    1.397   .     A
C830   O859    1.287   .     A
C830   O862    1.287   .     A
C831   O860    1.287   .     A
C831   O861    1.287   .     A
C832   F837    1.355   .     S
C832   N854    1.367   .     A
C833   F841    1.355   .     S
C833   N853    1.367   .     A
C833   C510    1.416   1_565 S
C834   F842    1.355   .     S
C834   N854    1.367   .     A
C835   N853    1.366   .     A
C835   F843    1.355   .     S
C835   C508    1.416   1_565 S
C836   H849    1.084   .     S
C836   C921    1.370   1_455 S
N853   Zn863   2.008   .     S
N854   Zn864   2.008   .     S
O855   Zn863   2.001   .     S
O856   Zn864   2.001   .     S
O857   Zn863   2.001   .     S
O858   Zn864   2.001   .     S
O859   Zn863   1.999   .     S
O860   Zn864   1.999   .     S
O861   Zn863   1.999   .     S
O862   Zn864   1.999   .     S
C865   O912    1.282   .     A
C865   O909    1.282   .     A
C865   C883    1.420   .     S
C866   C882    1.397   .     A
C866   H904    1.084   .     S
C866   C922    1.370   .     S
C867   C882    1.397   .     A
C867   H905    1.084   .     S
C867   C944    1.370   .     S
C868   H906    1.084   .     S
C868   C883    1.397   .     A
C869   C873    1.382   .     A
C869   F898    1.359   .     S
C869   C880    1.397   .     A
C870   C874    1.382   .     A
C870   F899    1.359   .     S
C870   C881    1.397   .     A
C871   F900    1.359   .     S
C871   C875    1.382   .     A
C871   C881    1.397   .     A
C872   C877    1.382   .     A
C872   C880    1.397   .     A
C872   F901    1.359   .     S
C873   C878    1.403   .     A
C873   F902    1.359   .     S
C874   F892    1.358   .     S
C874   C879    1.403   .     A
C875   F893    1.359   .     S
C875   C879    1.403   .     A
C876   O911    1.282   .     A
C876   C882    1.420   .     S
C876   O910    1.282   .     A
C877   C878    1.403   .     A
C877   F894    1.358   .     S
C878   C884    1.439   .     S
C879   C885    1.439   .     S
C881   C394    1.436   1_556 S
C883   C890    1.397   .     A
C884   O913    1.287   .     A
C884   O916    1.287   .     A
C885   O914    1.287   .     A
C885   O915    1.287   .     A
C886   F891    1.355   .     S
C886   N908    1.367   .     A
C887   F895    1.355   .     S
C887   N907    1.367   .     A
C887   C564    1.416   1_565 S
C888   F896    1.355   .     S
C888   N908    1.367   .     A
C889   N907    1.366   .     A
C889   F897    1.355   .     S
C889   C562    1.416   1_565 S
C890   H903    1.084   .     S
N907   Zn917   2.008   .     S
N908   Zn918   2.008   .     S
O909   Zn917   2.001   .     S
O910   Zn918   2.001   .     S
O911   Zn917   2.001   .     S
O912   Zn918   2.001   .     S
O913   Zn917   1.999   .     S
O914   Zn918   1.999   .     S
O915   Zn917   1.999   .     S
O916   Zn918   1.999   .     S
C919   O966    1.282   .     A
C919   O963    1.282   .     A
C919   C937    1.420   .     S
C920   C936    1.397   .     A
C920   H958    1.084   .     S
C920   C814    1.370   1_655 S
C921   C936    1.397   .     A
C921   H959    1.084   .     S
C921   C836    1.370   1_655 S
C922   H960    1.084   .     S
C922   C937    1.397   .     A
C923   C927    1.382   .     A
C923   F952    1.359   .     S
C923   C934    1.397   .     A
C924   C928    1.382   .     A
C924   F953    1.359   .     S
C924   C935    1.397   .     A
C925   F954    1.359   .     S
C925   C929    1.382   .     A
C925   C935    1.397   .     A
C926   C931    1.382   .     A
C926   C934    1.397   .     A
C926   F955    1.359   .     S
C927   C932    1.403   .     A
C927   F956    1.359   .     S
C928   F946    1.358   .     S
C928   C933    1.403   .     A
C929   F947    1.359   .     S
C929   C933    1.403   .     A
C930   O965    1.282   .     A
C930   C936    1.420   .     S
C930   O964    1.282   .     A
C931   C932    1.403   .     A
C931   F948    1.358   .     S
C932   C938    1.439   .     S
C933   C939    1.439   .     S
C935   C448    1.436   1_556 S
C937   C944    1.397   .     A
C938   O967    1.287   .     A
C938   O970    1.287   .     A
C939   O968    1.287   .     A
C939   O969    1.287   .     A
C940   F945    1.355   .     S
C940   N962    1.367   .     A
C941   F949    1.355   .     S
C941   N961    1.367   .     A
C941   C618    1.416   1_565 S
C942   F950    1.355   .     S
C942   N962    1.367   .     A
C943   N961    1.366   .     A
C943   F951    1.355   .     S
C943   C616    1.416   1_565 S
C944   H957    1.084   .     S
N961   Zn971   2.008   .     S
N962   Zn972   2.008   .     S
O963   Zn971   2.001   .     S
O964   Zn972   2.001   .     S
O965   Zn971   2.001   .     S
O966   Zn972   2.001   .     S
O967   Zn971   1.999   .     S
O968   Zn972   1.999   .     S
O969   Zn971   1.999   .     S
O970   Zn972   1.999   .     S
