data_str_m2_o2_o10_pcu_sym.58
_audit_creation_date              2020-01-03
_audit_creation_method            'Materials Studio'
_symmetry_space_group_name_H-M    'P1'
_symmetry_Int_Tables_number       1
_symmetry_cell_setting            triclinic
loop_
_symmetry_equiv_pos_as_xyz
  x,y,z
_cell_length_a                    26.2666
_cell_length_b                    30.2034
_cell_length_c                    27.9633
_cell_angle_alpha                 88.3165
_cell_angle_beta                  96.9384
_cell_angle_gamma                 93.1143
loop_
_atom_site_label
_atom_site_type_symbol
_atom_site_fract_x
_atom_site_fract_y
_atom_site_fract_z
_atom_site_U_iso_or_equiv
_atom_site_adp_type
_atom_site_occupancy
C1     C     0.16712   0.16499   0.25050   0.00000  Uiso   1.00
C2     C     0.20144   0.27867   0.44844   0.00000  Uiso   1.00
C3     C     0.16761   0.24870   0.02725   0.00000  Uiso   1.00
C4     C     0.16796   0.25010   0.47281   0.00000  Uiso   1.00
C5     C     0.06818   0.24910   0.23801   0.00000  Uiso   1.00
C6     C     0.26516   0.25132   0.26190   0.00000  Uiso   1.00
C7     C     0.01318   0.24243   0.23285   0.00000  Uiso   1.00
C8     C     0.32012   0.25842   0.26664   0.00000  Uiso   1.00
C9     C     0.18495   0.04687   0.29272   0.00000  Uiso   1.00
C10    C     0.12975   0.45098   0.22068   0.00000  Uiso   1.00
C11    C     0.18519   0.09295   0.29284   0.00000  Uiso   1.00
C12    C     0.16686   0.33478   0.24949   0.00000  Uiso   1.00
C13    C     0.12983   0.40499   0.21981   0.00000  Uiso   1.00
C14    C     0.16773   0.11663   0.25083   0.00000  Uiso   1.00
C15    C     0.16789   0.38273   0.24866   0.00000  Uiso   1.00
C16    C     0.15196   0.09383   0.20815   0.00000  Uiso   1.00
C17    C     0.20630   0.40634   0.27793   0.00000  Uiso   1.00
C18    C     0.15286   0.04795   0.20768   0.00000  Uiso   1.00
C19    C     0.20708   0.45239   0.27793   0.00000  Uiso   1.00
C20    C     0.16875   0.02393   0.25008   0.00000  Uiso   1.00
C21    C     0.16854   0.47516   0.24960   0.00000  Uiso   1.00
C22    C     0.31708   0.22897   0.14831   0.00000  Uiso   1.00
C23    C     0.18712   0.28506   0.05394   0.00000  Uiso   1.00
C24    C     0.01420   0.27341   0.35125   0.00000  Uiso   1.00
C25    C     0.13389   0.22242   0.44421   0.00000  Uiso   1.00
C26    C     0.18940   0.28512   0.10435   0.00000  Uiso   1.00
C27    C     0.13454   0.22055   0.39416   0.00000  Uiso   1.00
C28    C     0.14578   0.21425   0.10369   0.00000  Uiso   1.00
C29    C     0.19920   0.27885   0.39767   0.00000  Uiso   1.00
C30    C     0.14706   0.21241   0.05336   0.00000  Uiso   1.00
Cu31   Cu    0.16667   0.24999   0.29822   0.00000  Uiso   1.00
Cu32   Cu    0.16667   0.25000   0.20179   0.00000  Uiso   1.00
H33    H     0.19719   0.02929   0.32607   0.00000  Uiso   1.00
H34    H     0.10737   0.20053   0.46127   0.00000  Uiso   1.00
H35    H     0.12847   0.18642   0.12209   0.00000  Uiso   1.00
H36    H     0.22465   0.30153   0.38003   0.00000  Uiso   1.00
H37    H     0.13204   0.18234   0.03564   0.00000  Uiso   1.00
H38    H     0.22994   0.30062   0.46798   0.00000  Uiso   1.00
H39    H     0.00534   0.18145   0.20056   0.00000  Uiso   1.00
H40    H     0.28876   0.20718   0.12607   0.00000  Uiso   1.00
H41    H     0.02088   0.22931   0.13305   0.00000  Uiso   1.00
H42    H     0.30293   0.26298   0.14622   0.00000  Uiso   1.00
H43    H     0.32986   0.32035   0.29699   0.00000  Uiso   1.00
H44    H     0.09891   0.46747   0.19929   0.00000  Uiso   1.00
H45    H     0.04700   0.29141   0.37237   0.00000  Uiso   1.00
H46    H     0.02061   0.23740   0.35410   0.00000  Uiso   1.00
H47    H     0.31191   0.27977   0.36702   0.00000  Uiso   1.00
H48    H     0.26947   0.35707   0.19347   0.00000  Uiso   1.00
H49    H     0.06061   0.14336   0.30430   0.00000  Uiso   1.00
H50    H     0.19980   0.11002   0.32549   0.00000  Uiso   1.00
H51    H     0.09964   0.38671   0.19756   0.00000  Uiso   1.00
H52    H     0.13889   0.11145   0.17502   0.00000  Uiso   1.00
H53    H     0.23601   0.38912   0.30020   0.00000  Uiso   1.00
H54    H     0.14151   0.03139   0.17396   0.00000  Uiso   1.00
H55    H     0.23805   0.47007   0.29975   0.00000  Uiso   1.00
H56    H     0.20047   0.31439   0.03527   0.00000  Uiso   1.00
N57    N     0.16667   0.25001   0.12935   0.00000  Uiso   1.00
N58    N     0.16667   0.24999   0.37066   0.00000  Uiso   1.00
N59    N     0.32280   0.21206   0.19755   0.00000  Uiso   1.00
N60    N     0.01053   0.28906   0.30159   0.00000  Uiso   1.00
O61    O     0.16667   0.18572   0.29072   0.00000  Uiso   1.00
O62    O     0.18216   0.36752   0.13452   0.00000  Uiso   1.00
O63    O     0.25754   0.32685   0.18286   0.00000  Uiso   1.00
O64    O     0.13562   0.13487   0.37602   0.00000  Uiso   1.00
O65    O     0.05598   0.16022   0.39841   0.00000  Uiso   1.00
O66    O     0.07377   0.17407   0.31165   0.00000  Uiso   1.00
O67    O     0.16666   0.31427   0.20929   0.00000  Uiso   1.00
O68    O     0.16667   0.18573   0.20928   0.00000  Uiso   1.00
O69    O     0.16666   0.31427   0.29072   0.00000  Uiso   1.00
O70    O     0.09161   0.24999   0.28132   0.00000  Uiso   1.00
O71    O     0.24172   0.25000   0.21868   0.00000  Uiso   1.00
O72    O     0.09161   0.25000   0.19989   0.00000  Uiso   1.00
O73    O     0.24172   0.25000   0.30012   0.00000  Uiso   1.00
O74    O     0.25743   0.35395   0.09560   0.00000  Uiso   1.00
S75    S     0.22170   0.33432   0.12968   0.00000  Uiso   1.00
S76    S     0.09961   0.17206   0.36938   0.00000  Uiso   1.00
C77    C     0.50045   0.16499   0.25050   0.00000  Uiso   1.00
C78    C     0.53478   0.27867   0.44844   0.00000  Uiso   1.00
C79    C     0.50094   0.24870   0.02725   0.00000  Uiso   1.00
C80    C     0.50130   0.25010   0.47281   0.00000  Uiso   1.00
C81    C     0.40151   0.24910   0.23801   0.00000  Uiso   1.00
C82    C     0.59849   0.25132   0.26190   0.00000  Uiso   1.00
C83    C     0.34651   0.24243   0.23285   0.00000  Uiso   1.00
C84    C     0.65345   0.25842   0.26664   0.00000  Uiso   1.00
C85    C     0.51828   0.04687   0.29272   0.00000  Uiso   1.00
C86    C     0.46308   0.45098   0.22068   0.00000  Uiso   1.00
C87    C     0.51853   0.09295   0.29284   0.00000  Uiso   1.00
C88    C     0.50020   0.33478   0.24949   0.00000  Uiso   1.00
C89    C     0.46317   0.40499   0.21981   0.00000  Uiso   1.00
C90    C     0.50106   0.11663   0.25083   0.00000  Uiso   1.00
C91    C     0.50123   0.38273   0.24866   0.00000  Uiso   1.00
C92    C     0.48529   0.09383   0.20815   0.00000  Uiso   1.00
C93    C     0.53963   0.40634   0.27793   0.00000  Uiso   1.00
C94    C     0.48619   0.04795   0.20768   0.00000  Uiso   1.00
C95    C     0.54041   0.45239   0.27793   0.00000  Uiso   1.00
C96    C     0.50209   0.02393   0.25008   0.00000  Uiso   1.00
C97    C     0.50187   0.47516   0.24960   0.00000  Uiso   1.00
C98    C     0.65042   0.22897   0.14831   0.00000  Uiso   1.00
C99    C     0.52045   0.28506   0.05394   0.00000  Uiso   1.00
C100   C     0.34753   0.27341   0.35125   0.00000  Uiso   1.00
C101   C     0.46722   0.22242   0.44421   0.00000  Uiso   1.00
C102   C     0.52274   0.28512   0.10435   0.00000  Uiso   1.00
C103   C     0.46788   0.22055   0.39416   0.00000  Uiso   1.00
C104   C     0.47912   0.21425   0.10369   0.00000  Uiso   1.00
C105   C     0.53253   0.27885   0.39767   0.00000  Uiso   1.00
C106   C     0.48040   0.21241   0.05336   0.00000  Uiso   1.00
Cu107  Cu    0.50000   0.24999   0.29822   0.00000  Uiso   1.00
Cu108  Cu    0.50000   0.25000   0.20179   0.00000  Uiso   1.00
H109   H     0.53052   0.02929   0.32607   0.00000  Uiso   1.00
H110   H     0.44070   0.20053   0.46127   0.00000  Uiso   1.00
H111   H     0.46181   0.18642   0.12209   0.00000  Uiso   1.00
H112   H     0.55798   0.30153   0.38003   0.00000  Uiso   1.00
H113   H     0.46537   0.18234   0.03564   0.00000  Uiso   1.00
H114   H     0.56328   0.30062   0.46798   0.00000  Uiso   1.00
H115   H     0.33867   0.18145   0.20056   0.00000  Uiso   1.00
H116   H     0.62210   0.20718   0.12607   0.00000  Uiso   1.00
H117   H     0.35421   0.22931   0.13305   0.00000  Uiso   1.00
H118   H     0.63626   0.26298   0.14622   0.00000  Uiso   1.00
H119   H     0.66320   0.32035   0.29699   0.00000  Uiso   1.00
H120   H     0.43224   0.46747   0.19929   0.00000  Uiso   1.00
H121   H     0.38033   0.29141   0.37237   0.00000  Uiso   1.00
H122   H     0.35395   0.23740   0.35410   0.00000  Uiso   1.00
H123   H     0.64525   0.27977   0.36702   0.00000  Uiso   1.00
H124   H     0.60280   0.35707   0.19347   0.00000  Uiso   1.00
H125   H     0.39394   0.14336   0.30430   0.00000  Uiso   1.00
H126   H     0.53314   0.11002   0.32549   0.00000  Uiso   1.00
H127   H     0.43297   0.38671   0.19756   0.00000  Uiso   1.00
H128   H     0.47222   0.11145   0.17502   0.00000  Uiso   1.00
H129   H     0.56934   0.38912   0.30020   0.00000  Uiso   1.00
H130   H     0.47485   0.03139   0.17396   0.00000  Uiso   1.00
H131   H     0.57139   0.47007   0.29975   0.00000  Uiso   1.00
H132   H     0.53381   0.31439   0.03527   0.00000  Uiso   1.00
N133   N     0.50000   0.25001   0.12935   0.00000  Uiso   1.00
N134   N     0.50000   0.24999   0.37066   0.00000  Uiso   1.00
N135   N     0.65613   0.21206   0.19755   0.00000  Uiso   1.00
N136   N     0.34386   0.28906   0.30159   0.00000  Uiso   1.00
O137   O     0.50000   0.18572   0.29072   0.00000  Uiso   1.00
O138   O     0.51549   0.36752   0.13452   0.00000  Uiso   1.00
O139   O     0.59087   0.32685   0.18286   0.00000  Uiso   1.00
O140   O     0.46895   0.13487   0.37602   0.00000  Uiso   1.00
O141   O     0.38931   0.16022   0.39841   0.00000  Uiso   1.00
O142   O     0.40710   0.17407   0.31165   0.00000  Uiso   1.00
O143   O     0.50000   0.31427   0.20929   0.00000  Uiso   1.00
O144   O     0.50000   0.18573   0.20928   0.00000  Uiso   1.00
O145   O     0.50000   0.31427   0.29072   0.00000  Uiso   1.00
O146   O     0.42495   0.24999   0.28132   0.00000  Uiso   1.00
O147   O     0.57505   0.25000   0.21868   0.00000  Uiso   1.00
O148   O     0.42495   0.25000   0.19989   0.00000  Uiso   1.00
O149   O     0.57505   0.25000   0.30012   0.00000  Uiso   1.00
O150   O     0.59077   0.35395   0.09560   0.00000  Uiso   1.00
S151   S     0.55504   0.33432   0.12968   0.00000  Uiso   1.00
S152   S     0.43294   0.17206   0.36938   0.00000  Uiso   1.00
C153   C     0.83378   0.16499   0.25050   0.00000  Uiso   1.00
C154   C     0.86811   0.27867   0.44844   0.00000  Uiso   1.00
C155   C     0.83428   0.24870   0.02725   0.00000  Uiso   1.00
C156   C     0.83463   0.25010   0.47281   0.00000  Uiso   1.00
C157   C     0.73484   0.24910   0.23801   0.00000  Uiso   1.00
C158   C     0.93182   0.25132   0.26190   0.00000  Uiso   1.00
C159   C     0.67984   0.24243   0.23285   0.00000  Uiso   1.00
C160   C     0.98678   0.25842   0.26664   0.00000  Uiso   1.00
C161   C     0.85162   0.04687   0.29272   0.00000  Uiso   1.00
C162   C     0.79642   0.45098   0.22068   0.00000  Uiso   1.00
C163   C     0.85186   0.09295   0.29284   0.00000  Uiso   1.00
C164   C     0.83353   0.33478   0.24949   0.00000  Uiso   1.00
C165   C     0.79650   0.40499   0.21981   0.00000  Uiso   1.00
C166   C     0.83439   0.11663   0.25083   0.00000  Uiso   1.00
C167   C     0.83456   0.38273   0.24866   0.00000  Uiso   1.00
C168   C     0.81862   0.09383   0.20815   0.00000  Uiso   1.00
C169   C     0.87297   0.40634   0.27793   0.00000  Uiso   1.00
C170   C     0.81953   0.04795   0.20768   0.00000  Uiso   1.00
C171   C     0.87374   0.45239   0.27793   0.00000  Uiso   1.00
C172   C     0.83542   0.02393   0.25008   0.00000  Uiso   1.00
C173   C     0.83521   0.47516   0.24960   0.00000  Uiso   1.00
C174   C     0.98375   0.22897   0.14831   0.00000  Uiso   1.00
C175   C     0.85378   0.28506   0.05394   0.00000  Uiso   1.00
C176   C     0.68087   0.27341   0.35125   0.00000  Uiso   1.00
C177   C     0.80056   0.22242   0.44421   0.00000  Uiso   1.00
C178   C     0.85607   0.28512   0.10435   0.00000  Uiso   1.00
C179   C     0.80121   0.22055   0.39416   0.00000  Uiso   1.00
C180   C     0.81245   0.21425   0.10369   0.00000  Uiso   1.00
C181   C     0.86587   0.27885   0.39767   0.00000  Uiso   1.00
C182   C     0.81373   0.21241   0.05336   0.00000  Uiso   1.00
Cu183  Cu    0.83333   0.24999   0.29822   0.00000  Uiso   1.00
Cu184  Cu    0.83333   0.25000   0.20179   0.00000  Uiso   1.00
H185   H     0.86385   0.02929   0.32607   0.00000  Uiso   1.00
H186   H     0.77403   0.20053   0.46127   0.00000  Uiso   1.00
H187   H     0.79514   0.18642   0.12209   0.00000  Uiso   1.00
H188   H     0.89132   0.30153   0.38003   0.00000  Uiso   1.00
H189   H     0.79871   0.18234   0.03564   0.00000  Uiso   1.00
H190   H     0.89661   0.30062   0.46798   0.00000  Uiso   1.00
H191   H     0.67200   0.18145   0.20056   0.00000  Uiso   1.00
H192   H     0.95543   0.20718   0.12607   0.00000  Uiso   1.00
H193   H     0.68755   0.22931   0.13305   0.00000  Uiso   1.00
H194   H     0.96960   0.26298   0.14622   0.00000  Uiso   1.00
H195   H     0.99653   0.32035   0.29699   0.00000  Uiso   1.00
H196   H     0.76557   0.46747   0.19929   0.00000  Uiso   1.00
H197   H     0.71367   0.29141   0.37237   0.00000  Uiso   1.00
H198   H     0.68728   0.23740   0.35410   0.00000  Uiso   1.00
H199   H     0.97858   0.27977   0.36702   0.00000  Uiso   1.00
H200   H     0.93614   0.35707   0.19347   0.00000  Uiso   1.00
H201   H     0.72728   0.14336   0.30430   0.00000  Uiso   1.00
H202   H     0.86647   0.11002   0.32549   0.00000  Uiso   1.00
H203   H     0.76631   0.38671   0.19756   0.00000  Uiso   1.00
H204   H     0.80556   0.11145   0.17502   0.00000  Uiso   1.00
H205   H     0.90267   0.38912   0.30020   0.00000  Uiso   1.00
H206   H     0.80818   0.03139   0.17396   0.00000  Uiso   1.00
H207   H     0.90472   0.47007   0.29975   0.00000  Uiso   1.00
H208   H     0.86714   0.31439   0.03527   0.00000  Uiso   1.00
N209   N     0.83333   0.25001   0.12935   0.00000  Uiso   1.00
N210   N     0.83333   0.24999   0.37066   0.00000  Uiso   1.00
N211   N     0.98946   0.21206   0.19755   0.00000  Uiso   1.00
N212   N     0.67719   0.28906   0.30159   0.00000  Uiso   1.00
O213   O     0.83334   0.18572   0.29072   0.00000  Uiso   1.00
O214   O     0.84882   0.36752   0.13452   0.00000  Uiso   1.00
O215   O     0.92420   0.32685   0.18286   0.00000  Uiso   1.00
O216   O     0.80229   0.13487   0.37602   0.00000  Uiso   1.00
O217   O     0.72264   0.16022   0.39841   0.00000  Uiso   1.00
O218   O     0.74044   0.17407   0.31165   0.00000  Uiso   1.00
O219   O     0.83333   0.31427   0.20929   0.00000  Uiso   1.00
O220   O     0.83334   0.18573   0.20928   0.00000  Uiso   1.00
O221   O     0.83333   0.31427   0.29072   0.00000  Uiso   1.00
O222   O     0.75828   0.24999   0.28132   0.00000  Uiso   1.00
O223   O     0.90839   0.25000   0.21868   0.00000  Uiso   1.00
O224   O     0.75828   0.25000   0.19989   0.00000  Uiso   1.00
O225   O     0.90839   0.25000   0.30012   0.00000  Uiso   1.00
O226   O     0.92410   0.35395   0.09560   0.00000  Uiso   1.00
S227   S     0.88837   0.33432   0.12968   0.00000  Uiso   1.00
S228   S     0.76628   0.17206   0.36938   0.00000  Uiso   1.00
C229   C     0.16712   0.66499   0.25050   0.00000  Uiso   1.00
C230   C     0.20144   0.77867   0.44844   0.00000  Uiso   1.00
C231   C     0.16761   0.74870   0.02725   0.00000  Uiso   1.00
C232   C     0.16796   0.75010   0.47281   0.00000  Uiso   1.00
C233   C     0.06818   0.74910   0.23801   0.00000  Uiso   1.00
C234   C     0.26516   0.75132   0.26190   0.00000  Uiso   1.00
C235   C     0.01318   0.74243   0.23285   0.00000  Uiso   1.00
C236   C     0.32012   0.75842   0.26664   0.00000  Uiso   1.00
C237   C     0.18495   0.54687   0.29272   0.00000  Uiso   1.00
C238   C     0.12975   0.95098   0.22068   0.00000  Uiso   1.00
C239   C     0.18519   0.59295   0.29284   0.00000  Uiso   1.00
C240   C     0.16686   0.83478   0.24949   0.00000  Uiso   1.00
C241   C     0.12983   0.90499   0.21981   0.00000  Uiso   1.00
C242   C     0.16773   0.61663   0.25083   0.00000  Uiso   1.00
C243   C     0.16789   0.88273   0.24866   0.00000  Uiso   1.00
C244   C     0.15196   0.59383   0.20815   0.00000  Uiso   1.00
C245   C     0.20630   0.90634   0.27793   0.00000  Uiso   1.00
C246   C     0.15286   0.54795   0.20768   0.00000  Uiso   1.00
C247   C     0.20708   0.95239   0.27793   0.00000  Uiso   1.00
C248   C     0.16875   0.52393   0.25008   0.00000  Uiso   1.00
C249   C     0.16854   0.97516   0.24960   0.00000  Uiso   1.00
C250   C     0.31708   0.72897   0.14831   0.00000  Uiso   1.00
C251   C     0.18712   0.78506   0.05394   0.00000  Uiso   1.00
C252   C     0.01420   0.77341   0.35125   0.00000  Uiso   1.00
C253   C     0.13389   0.72242   0.44421   0.00000  Uiso   1.00
C254   C     0.18940   0.78512   0.10435   0.00000  Uiso   1.00
C255   C     0.13454   0.72055   0.39416   0.00000  Uiso   1.00
C256   C     0.14578   0.71425   0.10369   0.00000  Uiso   1.00
C257   C     0.19920   0.77885   0.39767   0.00000  Uiso   1.00
C258   C     0.14706   0.71241   0.05336   0.00000  Uiso   1.00
Cu259  Cu    0.16667   0.74999   0.29822   0.00000  Uiso   1.00
Cu260  Cu    0.16667   0.75000   0.20179   0.00000  Uiso   1.00
H261   H     0.19719   0.52929   0.32607   0.00000  Uiso   1.00
H262   H     0.10737   0.70053   0.46127   0.00000  Uiso   1.00
H263   H     0.12847   0.68642   0.12209   0.00000  Uiso   1.00
H264   H     0.22465   0.80153   0.38003   0.00000  Uiso   1.00
H265   H     0.13204   0.68234   0.03564   0.00000  Uiso   1.00
H266   H     0.22994   0.80062   0.46798   0.00000  Uiso   1.00
H267   H     0.00534   0.68145   0.20056   0.00000  Uiso   1.00
H268   H     0.28876   0.70718   0.12607   0.00000  Uiso   1.00
H269   H     0.02088   0.72931   0.13305   0.00000  Uiso   1.00
H270   H     0.30293   0.76298   0.14622   0.00000  Uiso   1.00
H271   H     0.32986   0.82035   0.29699   0.00000  Uiso   1.00
H272   H     0.09891   0.96747   0.19929   0.00000  Uiso   1.00
H273   H     0.04700   0.79141   0.37237   0.00000  Uiso   1.00
H274   H     0.02061   0.73740   0.35410   0.00000  Uiso   1.00
H275   H     0.31191   0.77977   0.36702   0.00000  Uiso   1.00
H276   H     0.26947   0.85707   0.19347   0.00000  Uiso   1.00
H277   H     0.06061   0.64336   0.30430   0.00000  Uiso   1.00
H278   H     0.19980   0.61002   0.32549   0.00000  Uiso   1.00
H279   H     0.09964   0.88671   0.19756   0.00000  Uiso   1.00
H280   H     0.13889   0.61145   0.17502   0.00000  Uiso   1.00
H281   H     0.23601   0.88912   0.30020   0.00000  Uiso   1.00
H282   H     0.14151   0.53139   0.17396   0.00000  Uiso   1.00
H283   H     0.23805   0.97007   0.29975   0.00000  Uiso   1.00
H284   H     0.20047   0.81439   0.03527   0.00000  Uiso   1.00
N285   N     0.16667   0.75001   0.12935   0.00000  Uiso   1.00
N286   N     0.16667   0.74999   0.37066   0.00000  Uiso   1.00
N287   N     0.32280   0.71206   0.19755   0.00000  Uiso   1.00
N288   N     0.01053   0.78906   0.30159   0.00000  Uiso   1.00
O289   O     0.16667   0.68572   0.29072   0.00000  Uiso   1.00
O290   O     0.18216   0.86752   0.13452   0.00000  Uiso   1.00
O291   O     0.25754   0.82685   0.18286   0.00000  Uiso   1.00
O292   O     0.13562   0.63487   0.37602   0.00000  Uiso   1.00
O293   O     0.05598   0.66022   0.39841   0.00000  Uiso   1.00
O294   O     0.07377   0.67407   0.31165   0.00000  Uiso   1.00
O295   O     0.16666   0.81427   0.20929   0.00000  Uiso   1.00
O296   O     0.16667   0.68573   0.20928   0.00000  Uiso   1.00
O297   O     0.16666   0.81427   0.29072   0.00000  Uiso   1.00
O298   O     0.09161   0.74999   0.28132   0.00000  Uiso   1.00
O299   O     0.24172   0.75000   0.21868   0.00000  Uiso   1.00
O300   O     0.09161   0.75000   0.19989   0.00000  Uiso   1.00
O301   O     0.24172   0.75000   0.30012   0.00000  Uiso   1.00
O302   O     0.25743   0.85395   0.09560   0.00000  Uiso   1.00
S303   S     0.22170   0.83432   0.12968   0.00000  Uiso   1.00
S304   S     0.09961   0.67206   0.36938   0.00000  Uiso   1.00
C305   C     0.50045   0.66499   0.25050   0.00000  Uiso   1.00
C306   C     0.53478   0.77867   0.44844   0.00000  Uiso   1.00
C307   C     0.50094   0.74870   0.02725   0.00000  Uiso   1.00
C308   C     0.50130   0.75010   0.47281   0.00000  Uiso   1.00
C309   C     0.40151   0.74910   0.23801   0.00000  Uiso   1.00
C310   C     0.59849   0.75132   0.26190   0.00000  Uiso   1.00
C311   C     0.34651   0.74243   0.23285   0.00000  Uiso   1.00
C312   C     0.65345   0.75842   0.26664   0.00000  Uiso   1.00
C313   C     0.51828   0.54687   0.29272   0.00000  Uiso   1.00
C314   C     0.46308   0.95098   0.22068   0.00000  Uiso   1.00
C315   C     0.51853   0.59295   0.29284   0.00000  Uiso   1.00
C316   C     0.50020   0.83478   0.24949   0.00000  Uiso   1.00
C317   C     0.46317   0.90499   0.21981   0.00000  Uiso   1.00
C318   C     0.50106   0.61663   0.25083   0.00000  Uiso   1.00
C319   C     0.50123   0.88273   0.24866   0.00000  Uiso   1.00
C320   C     0.48529   0.59383   0.20815   0.00000  Uiso   1.00
C321   C     0.53963   0.90634   0.27793   0.00000  Uiso   1.00
C322   C     0.48619   0.54795   0.20768   0.00000  Uiso   1.00
C323   C     0.54041   0.95239   0.27793   0.00000  Uiso   1.00
C324   C     0.50209   0.52393   0.25008   0.00000  Uiso   1.00
C325   C     0.50187   0.97516   0.24960   0.00000  Uiso   1.00
C326   C     0.65042   0.72897   0.14831   0.00000  Uiso   1.00
C327   C     0.52045   0.78506   0.05394   0.00000  Uiso   1.00
C328   C     0.34753   0.77341   0.35125   0.00000  Uiso   1.00
C329   C     0.46722   0.72242   0.44421   0.00000  Uiso   1.00
C330   C     0.52274   0.78512   0.10435   0.00000  Uiso   1.00
C331   C     0.46788   0.72055   0.39416   0.00000  Uiso   1.00
C332   C     0.47912   0.71425   0.10369   0.00000  Uiso   1.00
C333   C     0.53253   0.77885   0.39767   0.00000  Uiso   1.00
C334   C     0.48040   0.71241   0.05336   0.00000  Uiso   1.00
Cu335  Cu    0.50000   0.74999   0.29822   0.00000  Uiso   1.00
Cu336  Cu    0.50000   0.75000   0.20179   0.00000  Uiso   1.00
H337   H     0.53052   0.52929   0.32607   0.00000  Uiso   1.00
H338   H     0.44070   0.70053   0.46127   0.00000  Uiso   1.00
H339   H     0.46181   0.68642   0.12209   0.00000  Uiso   1.00
H340   H     0.55798   0.80153   0.38003   0.00000  Uiso   1.00
H341   H     0.46537   0.68234   0.03564   0.00000  Uiso   1.00
H342   H     0.56328   0.80062   0.46798   0.00000  Uiso   1.00
H343   H     0.33867   0.68145   0.20056   0.00000  Uiso   1.00
H344   H     0.62210   0.70718   0.12607   0.00000  Uiso   1.00
H345   H     0.35421   0.72931   0.13305   0.00000  Uiso   1.00
H346   H     0.63626   0.76298   0.14622   0.00000  Uiso   1.00
H347   H     0.66320   0.82035   0.29699   0.00000  Uiso   1.00
H348   H     0.43224   0.96747   0.19929   0.00000  Uiso   1.00
H349   H     0.38033   0.79141   0.37237   0.00000  Uiso   1.00
H350   H     0.35395   0.73740   0.35410   0.00000  Uiso   1.00
H351   H     0.64525   0.77977   0.36702   0.00000  Uiso   1.00
H352   H     0.60280   0.85707   0.19347   0.00000  Uiso   1.00
H353   H     0.39394   0.64336   0.30430   0.00000  Uiso   1.00
H354   H     0.53314   0.61002   0.32549   0.00000  Uiso   1.00
H355   H     0.43297   0.88671   0.19756   0.00000  Uiso   1.00
H356   H     0.47222   0.61145   0.17502   0.00000  Uiso   1.00
H357   H     0.56934   0.88912   0.30020   0.00000  Uiso   1.00
H358   H     0.47485   0.53139   0.17396   0.00000  Uiso   1.00
H359   H     0.57139   0.97007   0.29975   0.00000  Uiso   1.00
H360   H     0.53381   0.81439   0.03527   0.00000  Uiso   1.00
N361   N     0.50000   0.75001   0.12935   0.00000  Uiso   1.00
N362   N     0.50000   0.74999   0.37066   0.00000  Uiso   1.00
N363   N     0.65613   0.71206   0.19755   0.00000  Uiso   1.00
N364   N     0.34386   0.78906   0.30159   0.00000  Uiso   1.00
O365   O     0.50000   0.68572   0.29072   0.00000  Uiso   1.00
O366   O     0.51549   0.86752   0.13452   0.00000  Uiso   1.00
O367   O     0.59087   0.82685   0.18286   0.00000  Uiso   1.00
O368   O     0.46895   0.63487   0.37602   0.00000  Uiso   1.00
O369   O     0.38931   0.66022   0.39841   0.00000  Uiso   1.00
O370   O     0.40710   0.67407   0.31165   0.00000  Uiso   1.00
O371   O     0.50000   0.81427   0.20929   0.00000  Uiso   1.00
O372   O     0.50000   0.68573   0.20928   0.00000  Uiso   1.00
O373   O     0.50000   0.81427   0.29072   0.00000  Uiso   1.00
O374   O     0.42495   0.74999   0.28132   0.00000  Uiso   1.00
O375   O     0.57505   0.75000   0.21868   0.00000  Uiso   1.00
O376   O     0.42495   0.75000   0.19989   0.00000  Uiso   1.00
O377   O     0.57505   0.75000   0.30012   0.00000  Uiso   1.00
O378   O     0.59077   0.85395   0.09560   0.00000  Uiso   1.00
S379   S     0.55504   0.83432   0.12968   0.00000  Uiso   1.00
S380   S     0.43294   0.67206   0.36938   0.00000  Uiso   1.00
C381   C     0.83378   0.66499   0.25050   0.00000  Uiso   1.00
C382   C     0.86811   0.77867   0.44844   0.00000  Uiso   1.00
C383   C     0.83428   0.74870   0.02725   0.00000  Uiso   1.00
C384   C     0.83463   0.75010   0.47281   0.00000  Uiso   1.00
C385   C     0.73484   0.74910   0.23801   0.00000  Uiso   1.00
C386   C     0.93182   0.75132   0.26190   0.00000  Uiso   1.00
C387   C     0.67984   0.74243   0.23285   0.00000  Uiso   1.00
C388   C     0.98678   0.75842   0.26664   0.00000  Uiso   1.00
C389   C     0.85162   0.54687   0.29272   0.00000  Uiso   1.00
C390   C     0.79642   0.95098   0.22068   0.00000  Uiso   1.00
C391   C     0.85186   0.59295   0.29284   0.00000  Uiso   1.00
C392   C     0.83353   0.83478   0.24949   0.00000  Uiso   1.00
C393   C     0.79650   0.90499   0.21981   0.00000  Uiso   1.00
C394   C     0.83439   0.61663   0.25083   0.00000  Uiso   1.00
C395   C     0.83456   0.88273   0.24866   0.00000  Uiso   1.00
C396   C     0.81862   0.59383   0.20815   0.00000  Uiso   1.00
C397   C     0.87297   0.90634   0.27793   0.00000  Uiso   1.00
C398   C     0.81953   0.54795   0.20768   0.00000  Uiso   1.00
C399   C     0.87374   0.95239   0.27793   0.00000  Uiso   1.00
C400   C     0.83542   0.52393   0.25008   0.00000  Uiso   1.00
C401   C     0.83521   0.97516   0.24960   0.00000  Uiso   1.00
C402   C     0.98375   0.72897   0.14831   0.00000  Uiso   1.00
C403   C     0.85378   0.78506   0.05394   0.00000  Uiso   1.00
C404   C     0.68087   0.77341   0.35125   0.00000  Uiso   1.00
C405   C     0.80056   0.72242   0.44421   0.00000  Uiso   1.00
C406   C     0.85607   0.78512   0.10435   0.00000  Uiso   1.00
C407   C     0.80121   0.72055   0.39416   0.00000  Uiso   1.00
C408   C     0.81245   0.71425   0.10369   0.00000  Uiso   1.00
C409   C     0.86587   0.77885   0.39767   0.00000  Uiso   1.00
C410   C     0.81373   0.71241   0.05336   0.00000  Uiso   1.00
Cu411  Cu    0.83333   0.74999   0.29822   0.00000  Uiso   1.00
Cu412  Cu    0.83333   0.75000   0.20179   0.00000  Uiso   1.00
H413   H     0.86385   0.52929   0.32607   0.00000  Uiso   1.00
H414   H     0.77403   0.70053   0.46127   0.00000  Uiso   1.00
H415   H     0.79514   0.68642   0.12209   0.00000  Uiso   1.00
H416   H     0.89132   0.80153   0.38003   0.00000  Uiso   1.00
H417   H     0.79871   0.68234   0.03564   0.00000  Uiso   1.00
H418   H     0.89661   0.80062   0.46798   0.00000  Uiso   1.00
H419   H     0.67200   0.68145   0.20056   0.00000  Uiso   1.00
H420   H     0.95543   0.70718   0.12607   0.00000  Uiso   1.00
H421   H     0.68755   0.72931   0.13305   0.00000  Uiso   1.00
H422   H     0.96960   0.76298   0.14622   0.00000  Uiso   1.00
H423   H     0.99653   0.82035   0.29699   0.00000  Uiso   1.00
H424   H     0.76557   0.96747   0.19929   0.00000  Uiso   1.00
H425   H     0.71367   0.79141   0.37237   0.00000  Uiso   1.00
H426   H     0.68728   0.73740   0.35410   0.00000  Uiso   1.00
H427   H     0.97858   0.77977   0.36702   0.00000  Uiso   1.00
H428   H     0.93614   0.85707   0.19347   0.00000  Uiso   1.00
H429   H     0.72728   0.64336   0.30430   0.00000  Uiso   1.00
H430   H     0.86647   0.61002   0.32549   0.00000  Uiso   1.00
H431   H     0.76631   0.88671   0.19756   0.00000  Uiso   1.00
H432   H     0.80556   0.61145   0.17502   0.00000  Uiso   1.00
H433   H     0.90267   0.88912   0.30020   0.00000  Uiso   1.00
H434   H     0.80818   0.53139   0.17396   0.00000  Uiso   1.00
H435   H     0.90472   0.97007   0.29975   0.00000  Uiso   1.00
H436   H     0.86714   0.81439   0.03527   0.00000  Uiso   1.00
N437   N     0.83333   0.75001   0.12935   0.00000  Uiso   1.00
N438   N     0.83333   0.74999   0.37066   0.00000  Uiso   1.00
N439   N     0.98946   0.71206   0.19755   0.00000  Uiso   1.00
N440   N     0.67719   0.78906   0.30159   0.00000  Uiso   1.00
O441   O     0.83334   0.68572   0.29072   0.00000  Uiso   1.00
O442   O     0.84882   0.86752   0.13452   0.00000  Uiso   1.00
O443   O     0.92420   0.82685   0.18286   0.00000  Uiso   1.00
O444   O     0.80229   0.63487   0.37602   0.00000  Uiso   1.00
O445   O     0.72264   0.66022   0.39841   0.00000  Uiso   1.00
O446   O     0.74044   0.67407   0.31165   0.00000  Uiso   1.00
O447   O     0.83333   0.81427   0.20929   0.00000  Uiso   1.00
O448   O     0.83334   0.68573   0.20928   0.00000  Uiso   1.00
O449   O     0.83333   0.81427   0.29072   0.00000  Uiso   1.00
O450   O     0.75828   0.74999   0.28132   0.00000  Uiso   1.00
O451   O     0.90839   0.75000   0.21868   0.00000  Uiso   1.00
O452   O     0.75828   0.75000   0.19989   0.00000  Uiso   1.00
O453   O     0.90839   0.75000   0.30012   0.00000  Uiso   1.00
O454   O     0.92410   0.85395   0.09560   0.00000  Uiso   1.00
S455   S     0.88837   0.83432   0.12968   0.00000  Uiso   1.00
S456   S     0.76628   0.67206   0.36938   0.00000  Uiso   1.00
C457   C     0.16712   0.16499   0.75050   0.00000  Uiso   1.00
C458   C     0.20144   0.27867   0.94844   0.00000  Uiso   1.00
C459   C     0.16761   0.24870   0.52725   0.00000  Uiso   1.00
C460   C     0.16796   0.25010   0.97281   0.00000  Uiso   1.00
C461   C     0.06818   0.24910   0.73801   0.00000  Uiso   1.00
C462   C     0.26516   0.25132   0.76190   0.00000  Uiso   1.00
C463   C     0.01318   0.24243   0.73285   0.00000  Uiso   1.00
C464   C     0.32012   0.25842   0.76664   0.00000  Uiso   1.00
C465   C     0.18495   0.04687   0.79272   0.00000  Uiso   1.00
C466   C     0.12975   0.45098   0.72068   0.00000  Uiso   1.00
C467   C     0.18519   0.09295   0.79284   0.00000  Uiso   1.00
C468   C     0.16686   0.33478   0.74949   0.00000  Uiso   1.00
C469   C     0.12983   0.40499   0.71981   0.00000  Uiso   1.00
C470   C     0.16773   0.11663   0.75083   0.00000  Uiso   1.00
C471   C     0.16789   0.38273   0.74866   0.00000  Uiso   1.00
C472   C     0.15196   0.09383   0.70815   0.00000  Uiso   1.00
C473   C     0.20630   0.40634   0.77793   0.00000  Uiso   1.00
C474   C     0.15286   0.04795   0.70768   0.00000  Uiso   1.00
C475   C     0.20708   0.45239   0.77793   0.00000  Uiso   1.00
C476   C     0.16875   0.02393   0.75008   0.00000  Uiso   1.00
C477   C     0.16854   0.47516   0.74960   0.00000  Uiso   1.00
C478   C     0.31708   0.22897   0.64831   0.00000  Uiso   1.00
C479   C     0.18712   0.28506   0.55394   0.00000  Uiso   1.00
C480   C     0.01420   0.27341   0.85125   0.00000  Uiso   1.00
C481   C     0.13389   0.22242   0.94421   0.00000  Uiso   1.00
C482   C     0.18940   0.28512   0.60435   0.00000  Uiso   1.00
C483   C     0.13454   0.22055   0.89416   0.00000  Uiso   1.00
C484   C     0.14578   0.21425   0.60369   0.00000  Uiso   1.00
C485   C     0.19920   0.27885   0.89767   0.00000  Uiso   1.00
C486   C     0.14706   0.21241   0.55336   0.00000  Uiso   1.00
Cu487  Cu    0.16667   0.24999   0.79822   0.00000  Uiso   1.00
Cu488  Cu    0.16667   0.25000   0.70179   0.00000  Uiso   1.00
H489   H     0.19719   0.02929   0.82607   0.00000  Uiso   1.00
H490   H     0.10737   0.20053   0.96127   0.00000  Uiso   1.00
H491   H     0.12847   0.18642   0.62209   0.00000  Uiso   1.00
H492   H     0.22465   0.30153   0.88003   0.00000  Uiso   1.00
H493   H     0.13204   0.18234   0.53564   0.00000  Uiso   1.00
H494   H     0.22994   0.30062   0.96798   0.00000  Uiso   1.00
H495   H     0.00534   0.18145   0.70056   0.00000  Uiso   1.00
H496   H     0.28876   0.20718   0.62607   0.00000  Uiso   1.00
H497   H     0.02088   0.22931   0.63305   0.00000  Uiso   1.00
H498   H     0.30293   0.26298   0.64622   0.00000  Uiso   1.00
H499   H     0.32986   0.32035   0.79699   0.00000  Uiso   1.00
H500   H     0.09891   0.46747   0.69929   0.00000  Uiso   1.00
H501   H     0.04700   0.29141   0.87237   0.00000  Uiso   1.00
H502   H     0.02061   0.23740   0.85410   0.00000  Uiso   1.00
H503   H     0.31191   0.27977   0.86702   0.00000  Uiso   1.00
H504   H     0.26947   0.35707   0.69347   0.00000  Uiso   1.00
H505   H     0.06061   0.14336   0.80430   0.00000  Uiso   1.00
H506   H     0.19980   0.11002   0.82549   0.00000  Uiso   1.00
H507   H     0.09964   0.38671   0.69756   0.00000  Uiso   1.00
H508   H     0.13889   0.11145   0.67502   0.00000  Uiso   1.00
H509   H     0.23601   0.38912   0.80020   0.00000  Uiso   1.00
H510   H     0.14151   0.03139   0.67396   0.00000  Uiso   1.00
H511   H     0.23805   0.47007   0.79975   0.00000  Uiso   1.00
H512   H     0.20047   0.31439   0.53527   0.00000  Uiso   1.00
N513   N     0.16667   0.25001   0.62935   0.00000  Uiso   1.00
N514   N     0.16667   0.24999   0.87066   0.00000  Uiso   1.00
N515   N     0.32280   0.21206   0.69755   0.00000  Uiso   1.00
N516   N     0.01053   0.28906   0.80159   0.00000  Uiso   1.00
O517   O     0.16667   0.18572   0.79072   0.00000  Uiso   1.00
O518   O     0.18216   0.36752   0.63452   0.00000  Uiso   1.00
O519   O     0.25754   0.32685   0.68286   0.00000  Uiso   1.00
O520   O     0.13562   0.13487   0.87602   0.00000  Uiso   1.00
O521   O     0.05598   0.16022   0.89841   0.00000  Uiso   1.00
O522   O     0.07377   0.17407   0.81165   0.00000  Uiso   1.00
O523   O     0.16666   0.31427   0.70929   0.00000  Uiso   1.00
O524   O     0.16667   0.18573   0.70928   0.00000  Uiso   1.00
O525   O     0.16666   0.31427   0.79072   0.00000  Uiso   1.00
O526   O     0.09161   0.24999   0.78132   0.00000  Uiso   1.00
O527   O     0.24172   0.25000   0.71868   0.00000  Uiso   1.00
O528   O     0.09161   0.25000   0.69989   0.00000  Uiso   1.00
O529   O     0.24172   0.25000   0.80012   0.00000  Uiso   1.00
O530   O     0.25743   0.35395   0.59560   0.00000  Uiso   1.00
S531   S     0.22170   0.33432   0.62968   0.00000  Uiso   1.00
S532   S     0.09961   0.17206   0.86938   0.00000  Uiso   1.00
C533   C     0.50045   0.16499   0.75050   0.00000  Uiso   1.00
C534   C     0.53478   0.27867   0.94844   0.00000  Uiso   1.00
C535   C     0.50094   0.24870   0.52725   0.00000  Uiso   1.00
C536   C     0.50130   0.25010   0.97281   0.00000  Uiso   1.00
C537   C     0.40151   0.24910   0.73801   0.00000  Uiso   1.00
C538   C     0.59849   0.25132   0.76190   0.00000  Uiso   1.00
C539   C     0.34651   0.24243   0.73285   0.00000  Uiso   1.00
C540   C     0.65345   0.25842   0.76664   0.00000  Uiso   1.00
C541   C     0.51828   0.04687   0.79272   0.00000  Uiso   1.00
C542   C     0.46308   0.45098   0.72068   0.00000  Uiso   1.00
C543   C     0.51853   0.09295   0.79284   0.00000  Uiso   1.00
C544   C     0.50020   0.33478   0.74949   0.00000  Uiso   1.00
C545   C     0.46317   0.40499   0.71981   0.00000  Uiso   1.00
C546   C     0.50106   0.11663   0.75083   0.00000  Uiso   1.00
C547   C     0.50123   0.38273   0.74866   0.00000  Uiso   1.00
C548   C     0.48529   0.09383   0.70815   0.00000  Uiso   1.00
C549   C     0.53963   0.40634   0.77793   0.00000  Uiso   1.00
C550   C     0.48619   0.04795   0.70768   0.00000  Uiso   1.00
C551   C     0.54041   0.45239   0.77793   0.00000  Uiso   1.00
C552   C     0.50209   0.02393   0.75008   0.00000  Uiso   1.00
C553   C     0.50187   0.47516   0.74960   0.00000  Uiso   1.00
C554   C     0.65042   0.22897   0.64831   0.00000  Uiso   1.00
C555   C     0.52045   0.28506   0.55394   0.00000  Uiso   1.00
C556   C     0.34753   0.27341   0.85125   0.00000  Uiso   1.00
C557   C     0.46722   0.22242   0.94421   0.00000  Uiso   1.00
C558   C     0.52274   0.28512   0.60435   0.00000  Uiso   1.00
C559   C     0.46788   0.22055   0.89416   0.00000  Uiso   1.00
C560   C     0.47912   0.21425   0.60369   0.00000  Uiso   1.00
C561   C     0.53253   0.27885   0.89767   0.00000  Uiso   1.00
C562   C     0.48040   0.21241   0.55336   0.00000  Uiso   1.00
Cu563  Cu    0.50000   0.24999   0.79822   0.00000  Uiso   1.00
Cu564  Cu    0.50000   0.25000   0.70179   0.00000  Uiso   1.00
H565   H     0.53052   0.02929   0.82607   0.00000  Uiso   1.00
H566   H     0.44070   0.20053   0.96127   0.00000  Uiso   1.00
H567   H     0.46181   0.18642   0.62209   0.00000  Uiso   1.00
H568   H     0.55798   0.30153   0.88003   0.00000  Uiso   1.00
H569   H     0.46537   0.18234   0.53564   0.00000  Uiso   1.00
H570   H     0.56328   0.30062   0.96798   0.00000  Uiso   1.00
H571   H     0.33867   0.18145   0.70056   0.00000  Uiso   1.00
H572   H     0.62210   0.20718   0.62607   0.00000  Uiso   1.00
H573   H     0.35421   0.22931   0.63305   0.00000  Uiso   1.00
H574   H     0.63626   0.26298   0.64622   0.00000  Uiso   1.00
H575   H     0.66320   0.32035   0.79699   0.00000  Uiso   1.00
H576   H     0.43224   0.46747   0.69929   0.00000  Uiso   1.00
H577   H     0.38033   0.29141   0.87237   0.00000  Uiso   1.00
H578   H     0.35395   0.23740   0.85410   0.00000  Uiso   1.00
H579   H     0.64525   0.27977   0.86702   0.00000  Uiso   1.00
H580   H     0.60280   0.35707   0.69347   0.00000  Uiso   1.00
H581   H     0.39394   0.14336   0.80430   0.00000  Uiso   1.00
H582   H     0.53314   0.11002   0.82549   0.00000  Uiso   1.00
H583   H     0.43297   0.38671   0.69756   0.00000  Uiso   1.00
H584   H     0.47222   0.11145   0.67502   0.00000  Uiso   1.00
H585   H     0.56934   0.38912   0.80020   0.00000  Uiso   1.00
H586   H     0.47485   0.03139   0.67396   0.00000  Uiso   1.00
H587   H     0.57139   0.47007   0.79975   0.00000  Uiso   1.00
H588   H     0.53381   0.31439   0.53527   0.00000  Uiso   1.00
N589   N     0.50000   0.25001   0.62935   0.00000  Uiso   1.00
N590   N     0.50000   0.24999   0.87066   0.00000  Uiso   1.00
N591   N     0.65613   0.21206   0.69755   0.00000  Uiso   1.00
N592   N     0.34386   0.28906   0.80159   0.00000  Uiso   1.00
O593   O     0.50000   0.18572   0.79072   0.00000  Uiso   1.00
O594   O     0.51549   0.36752   0.63452   0.00000  Uiso   1.00
O595   O     0.59087   0.32685   0.68286   0.00000  Uiso   1.00
O596   O     0.46895   0.13487   0.87602   0.00000  Uiso   1.00
O597   O     0.38931   0.16022   0.89841   0.00000  Uiso   1.00
O598   O     0.40710   0.17407   0.81165   0.00000  Uiso   1.00
O599   O     0.50000   0.31427   0.70929   0.00000  Uiso   1.00
O600   O     0.50000   0.18573   0.70928   0.00000  Uiso   1.00
O601   O     0.50000   0.31427   0.79072   0.00000  Uiso   1.00
O602   O     0.42495   0.24999   0.78132   0.00000  Uiso   1.00
O603   O     0.57505   0.25000   0.71868   0.00000  Uiso   1.00
O604   O     0.42495   0.25000   0.69989   0.00000  Uiso   1.00
O605   O     0.57505   0.25000   0.80012   0.00000  Uiso   1.00
O606   O     0.59077   0.35395   0.59560   0.00000  Uiso   1.00
S607   S     0.55504   0.33432   0.62968   0.00000  Uiso   1.00
S608   S     0.43294   0.17206   0.86938   0.00000  Uiso   1.00
C609   C     0.83378   0.16499   0.75050   0.00000  Uiso   1.00
C610   C     0.86811   0.27867   0.94844   0.00000  Uiso   1.00
C611   C     0.83428   0.24870   0.52725   0.00000  Uiso   1.00
C612   C     0.83463   0.25010   0.97281   0.00000  Uiso   1.00
C613   C     0.73484   0.24910   0.73801   0.00000  Uiso   1.00
C614   C     0.93182   0.25132   0.76190   0.00000  Uiso   1.00
C615   C     0.67984   0.24243   0.73285   0.00000  Uiso   1.00
C616   C     0.98678   0.25842   0.76664   0.00000  Uiso   1.00
C617   C     0.85162   0.04687   0.79272   0.00000  Uiso   1.00
C618   C     0.79642   0.45098   0.72068   0.00000  Uiso   1.00
C619   C     0.85186   0.09295   0.79284   0.00000  Uiso   1.00
C620   C     0.83353   0.33478   0.74949   0.00000  Uiso   1.00
C621   C     0.79650   0.40499   0.71981   0.00000  Uiso   1.00
C622   C     0.83439   0.11663   0.75083   0.00000  Uiso   1.00
C623   C     0.83456   0.38273   0.74866   0.00000  Uiso   1.00
C624   C     0.81862   0.09383   0.70815   0.00000  Uiso   1.00
C625   C     0.87297   0.40634   0.77793   0.00000  Uiso   1.00
C626   C     0.81953   0.04795   0.70768   0.00000  Uiso   1.00
C627   C     0.87374   0.45239   0.77793   0.00000  Uiso   1.00
C628   C     0.83542   0.02393   0.75008   0.00000  Uiso   1.00
C629   C     0.83521   0.47516   0.74960   0.00000  Uiso   1.00
C630   C     0.98375   0.22897   0.64831   0.00000  Uiso   1.00
C631   C     0.85378   0.28506   0.55394   0.00000  Uiso   1.00
C632   C     0.68087   0.27341   0.85125   0.00000  Uiso   1.00
C633   C     0.80056   0.22242   0.94421   0.00000  Uiso   1.00
C634   C     0.85607   0.28512   0.60435   0.00000  Uiso   1.00
C635   C     0.80121   0.22055   0.89416   0.00000  Uiso   1.00
C636   C     0.81245   0.21425   0.60369   0.00000  Uiso   1.00
C637   C     0.86587   0.27885   0.89767   0.00000  Uiso   1.00
C638   C     0.81373   0.21241   0.55336   0.00000  Uiso   1.00
Cu639  Cu    0.83333   0.24999   0.79822   0.00000  Uiso   1.00
Cu640  Cu    0.83333   0.25000   0.70179   0.00000  Uiso   1.00
H641   H     0.86385   0.02929   0.82607   0.00000  Uiso   1.00
H642   H     0.77403   0.20053   0.96127   0.00000  Uiso   1.00
H643   H     0.79514   0.18642   0.62209   0.00000  Uiso   1.00
H644   H     0.89132   0.30153   0.88003   0.00000  Uiso   1.00
H645   H     0.79871   0.18234   0.53564   0.00000  Uiso   1.00
H646   H     0.89661   0.30062   0.96798   0.00000  Uiso   1.00
H647   H     0.67200   0.18145   0.70056   0.00000  Uiso   1.00
H648   H     0.95543   0.20718   0.62607   0.00000  Uiso   1.00
H649   H     0.68755   0.22931   0.63305   0.00000  Uiso   1.00
H650   H     0.96960   0.26298   0.64622   0.00000  Uiso   1.00
H651   H     0.99653   0.32035   0.79699   0.00000  Uiso   1.00
H652   H     0.76557   0.46747   0.69929   0.00000  Uiso   1.00
H653   H     0.71367   0.29141   0.87237   0.00000  Uiso   1.00
H654   H     0.68728   0.23740   0.85410   0.00000  Uiso   1.00
H655   H     0.97858   0.27977   0.86702   0.00000  Uiso   1.00
H656   H     0.93614   0.35707   0.69347   0.00000  Uiso   1.00
H657   H     0.72728   0.14336   0.80430   0.00000  Uiso   1.00
H658   H     0.86647   0.11002   0.82549   0.00000  Uiso   1.00
H659   H     0.76631   0.38671   0.69756   0.00000  Uiso   1.00
H660   H     0.80556   0.11145   0.67502   0.00000  Uiso   1.00
H661   H     0.90267   0.38912   0.80020   0.00000  Uiso   1.00
H662   H     0.80818   0.03139   0.67396   0.00000  Uiso   1.00
H663   H     0.90472   0.47007   0.79975   0.00000  Uiso   1.00
H664   H     0.86714   0.31439   0.53527   0.00000  Uiso   1.00
N665   N     0.83333   0.25001   0.62935   0.00000  Uiso   1.00
N666   N     0.83333   0.24999   0.87066   0.00000  Uiso   1.00
N667   N     0.98946   0.21206   0.69755   0.00000  Uiso   1.00
N668   N     0.67719   0.28906   0.80159   0.00000  Uiso   1.00
O669   O     0.83334   0.18572   0.79072   0.00000  Uiso   1.00
O670   O     0.84882   0.36752   0.63452   0.00000  Uiso   1.00
O671   O     0.92420   0.32685   0.68286   0.00000  Uiso   1.00
O672   O     0.80229   0.13487   0.87602   0.00000  Uiso   1.00
O673   O     0.72264   0.16022   0.89841   0.00000  Uiso   1.00
O674   O     0.74044   0.17407   0.81165   0.00000  Uiso   1.00
O675   O     0.83333   0.31427   0.70929   0.00000  Uiso   1.00
O676   O     0.83334   0.18573   0.70928   0.00000  Uiso   1.00
O677   O     0.83333   0.31427   0.79072   0.00000  Uiso   1.00
O678   O     0.75828   0.24999   0.78132   0.00000  Uiso   1.00
O679   O     0.90839   0.25000   0.71868   0.00000  Uiso   1.00
O680   O     0.75828   0.25000   0.69989   0.00000  Uiso   1.00
O681   O     0.90839   0.25000   0.80012   0.00000  Uiso   1.00
O682   O     0.92410   0.35395   0.59560   0.00000  Uiso   1.00
S683   S     0.88837   0.33432   0.62968   0.00000  Uiso   1.00
S684   S     0.76628   0.17206   0.86938   0.00000  Uiso   1.00
C685   C     0.16712   0.66499   0.75050   0.00000  Uiso   1.00
C686   C     0.20144   0.77867   0.94844   0.00000  Uiso   1.00
C687   C     0.16761   0.74870   0.52725   0.00000  Uiso   1.00
C688   C     0.16796   0.75010   0.97281   0.00000  Uiso   1.00
C689   C     0.06818   0.74910   0.73801   0.00000  Uiso   1.00
C690   C     0.26516   0.75132   0.76190   0.00000  Uiso   1.00
C691   C     0.01318   0.74243   0.73285   0.00000  Uiso   1.00
C692   C     0.32012   0.75842   0.76664   0.00000  Uiso   1.00
C693   C     0.18495   0.54687   0.79272   0.00000  Uiso   1.00
C694   C     0.12975   0.95098   0.72068   0.00000  Uiso   1.00
C695   C     0.18519   0.59295   0.79284   0.00000  Uiso   1.00
C696   C     0.16686   0.83478   0.74949   0.00000  Uiso   1.00
C697   C     0.12983   0.90499   0.71981   0.00000  Uiso   1.00
C698   C     0.16773   0.61663   0.75083   0.00000  Uiso   1.00
C699   C     0.16789   0.88273   0.74866   0.00000  Uiso   1.00
C700   C     0.15196   0.59383   0.70815   0.00000  Uiso   1.00
C701   C     0.20630   0.90634   0.77793   0.00000  Uiso   1.00
C702   C     0.15286   0.54795   0.70768   0.00000  Uiso   1.00
C703   C     0.20708   0.95239   0.77793   0.00000  Uiso   1.00
C704   C     0.16875   0.52393   0.75008   0.00000  Uiso   1.00
C705   C     0.16854   0.97516   0.74960   0.00000  Uiso   1.00
C706   C     0.31708   0.72897   0.64831   0.00000  Uiso   1.00
C707   C     0.18712   0.78506   0.55394   0.00000  Uiso   1.00
C708   C     0.01420   0.77341   0.85125   0.00000  Uiso   1.00
C709   C     0.13389   0.72242   0.94421   0.00000  Uiso   1.00
C710   C     0.18940   0.78512   0.60435   0.00000  Uiso   1.00
C711   C     0.13454   0.72055   0.89416   0.00000  Uiso   1.00
C712   C     0.14578   0.71425   0.60369   0.00000  Uiso   1.00
C713   C     0.19920   0.77885   0.89767   0.00000  Uiso   1.00
C714   C     0.14706   0.71241   0.55336   0.00000  Uiso   1.00
Cu715  Cu    0.16667   0.74999   0.79822   0.00000  Uiso   1.00
Cu716  Cu    0.16667   0.75000   0.70179   0.00000  Uiso   1.00
H717   H     0.19719   0.52929   0.82607   0.00000  Uiso   1.00
H718   H     0.10737   0.70053   0.96127   0.00000  Uiso   1.00
H719   H     0.12847   0.68642   0.62209   0.00000  Uiso   1.00
H720   H     0.22465   0.80153   0.88003   0.00000  Uiso   1.00
H721   H     0.13204   0.68234   0.53564   0.00000  Uiso   1.00
H722   H     0.22994   0.80062   0.96798   0.00000  Uiso   1.00
H723   H     0.00534   0.68145   0.70056   0.00000  Uiso   1.00
H724   H     0.28876   0.70718   0.62607   0.00000  Uiso   1.00
H725   H     0.02088   0.72931   0.63305   0.00000  Uiso   1.00
H726   H     0.30293   0.76298   0.64622   0.00000  Uiso   1.00
H727   H     0.32986   0.82035   0.79699   0.00000  Uiso   1.00
H728   H     0.09891   0.96747   0.69929   0.00000  Uiso   1.00
H729   H     0.04700   0.79141   0.87237   0.00000  Uiso   1.00
H730   H     0.02061   0.73740   0.85410   0.00000  Uiso   1.00
H731   H     0.31191   0.77977   0.86702   0.00000  Uiso   1.00
H732   H     0.26947   0.85707   0.69347   0.00000  Uiso   1.00
H733   H     0.06061   0.64336   0.80430   0.00000  Uiso   1.00
H734   H     0.19980   0.61002   0.82549   0.00000  Uiso   1.00
H735   H     0.09964   0.88671   0.69756   0.00000  Uiso   1.00
H736   H     0.13889   0.61145   0.67502   0.00000  Uiso   1.00
H737   H     0.23601   0.88912   0.80020   0.00000  Uiso   1.00
H738   H     0.14151   0.53139   0.67396   0.00000  Uiso   1.00
H739   H     0.23805   0.97007   0.79975   0.00000  Uiso   1.00
H740   H     0.20047   0.81439   0.53527   0.00000  Uiso   1.00
N741   N     0.16667   0.75001   0.62935   0.00000  Uiso   1.00
N742   N     0.16667   0.74999   0.87066   0.00000  Uiso   1.00
N743   N     0.32280   0.71206   0.69755   0.00000  Uiso   1.00
N744   N     0.01053   0.78906   0.80159   0.00000  Uiso   1.00
O745   O     0.16667   0.68572   0.79072   0.00000  Uiso   1.00
O746   O     0.18216   0.86752   0.63452   0.00000  Uiso   1.00
O747   O     0.25754   0.82685   0.68286   0.00000  Uiso   1.00
O748   O     0.13562   0.63487   0.87602   0.00000  Uiso   1.00
O749   O     0.05598   0.66022   0.89841   0.00000  Uiso   1.00
O750   O     0.07377   0.67407   0.81165   0.00000  Uiso   1.00
O751   O     0.16666   0.81427   0.70929   0.00000  Uiso   1.00
O752   O     0.16667   0.68573   0.70928   0.00000  Uiso   1.00
O753   O     0.16666   0.81427   0.79072   0.00000  Uiso   1.00
O754   O     0.09161   0.74999   0.78132   0.00000  Uiso   1.00
O755   O     0.24172   0.75000   0.71868   0.00000  Uiso   1.00
O756   O     0.09161   0.75000   0.69989   0.00000  Uiso   1.00
O757   O     0.24172   0.75000   0.80012   0.00000  Uiso   1.00
O758   O     0.25743   0.85395   0.59560   0.00000  Uiso   1.00
S759   S     0.22170   0.83432   0.62968   0.00000  Uiso   1.00
S760   S     0.09961   0.67206   0.86938   0.00000  Uiso   1.00
C761   C     0.50045   0.66499   0.75050   0.00000  Uiso   1.00
C762   C     0.53478   0.77867   0.94844   0.00000  Uiso   1.00
C763   C     0.50094   0.74870   0.52725   0.00000  Uiso   1.00
C764   C     0.50130   0.75010   0.97281   0.00000  Uiso   1.00
C765   C     0.40151   0.74910   0.73801   0.00000  Uiso   1.00
C766   C     0.59849   0.75132   0.76190   0.00000  Uiso   1.00
C767   C     0.34651   0.74243   0.73285   0.00000  Uiso   1.00
C768   C     0.65345   0.75842   0.76664   0.00000  Uiso   1.00
C769   C     0.51828   0.54687   0.79272   0.00000  Uiso   1.00
C770   C     0.46308   0.95098   0.72068   0.00000  Uiso   1.00
C771   C     0.51853   0.59295   0.79284   0.00000  Uiso   1.00
C772   C     0.50020   0.83478   0.74949   0.00000  Uiso   1.00
C773   C     0.46317   0.90499   0.71981   0.00000  Uiso   1.00
C774   C     0.50106   0.61663   0.75083   0.00000  Uiso   1.00
C775   C     0.50123   0.88273   0.74866   0.00000  Uiso   1.00
C776   C     0.48529   0.59383   0.70815   0.00000  Uiso   1.00
C777   C     0.53963   0.90634   0.77793   0.00000  Uiso   1.00
C778   C     0.48619   0.54795   0.70768   0.00000  Uiso   1.00
C779   C     0.54041   0.95239   0.77793   0.00000  Uiso   1.00
C780   C     0.50209   0.52393   0.75008   0.00000  Uiso   1.00
C781   C     0.50187   0.97516   0.74960   0.00000  Uiso   1.00
C782   C     0.65042   0.72897   0.64831   0.00000  Uiso   1.00
C783   C     0.52045   0.78506   0.55394   0.00000  Uiso   1.00
C784   C     0.34753   0.77341   0.85125   0.00000  Uiso   1.00
C785   C     0.46722   0.72242   0.94421   0.00000  Uiso   1.00
C786   C     0.52274   0.78512   0.60435   0.00000  Uiso   1.00
C787   C     0.46788   0.72055   0.89416   0.00000  Uiso   1.00
C788   C     0.47912   0.71425   0.60369   0.00000  Uiso   1.00
C789   C     0.53253   0.77885   0.89767   0.00000  Uiso   1.00
C790   C     0.48040   0.71241   0.55336   0.00000  Uiso   1.00
Cu791  Cu    0.50000   0.74999   0.79822   0.00000  Uiso   1.00
Cu792  Cu    0.50000   0.75000   0.70179   0.00000  Uiso   1.00
H793   H     0.53052   0.52929   0.82607   0.00000  Uiso   1.00
H794   H     0.44070   0.70053   0.96127   0.00000  Uiso   1.00
H795   H     0.46181   0.68642   0.62209   0.00000  Uiso   1.00
H796   H     0.55798   0.80153   0.88003   0.00000  Uiso   1.00
H797   H     0.46537   0.68234   0.53564   0.00000  Uiso   1.00
H798   H     0.56328   0.80062   0.96798   0.00000  Uiso   1.00
H799   H     0.33867   0.68145   0.70056   0.00000  Uiso   1.00
H800   H     0.62210   0.70718   0.62607   0.00000  Uiso   1.00
H801   H     0.35421   0.72931   0.63305   0.00000  Uiso   1.00
H802   H     0.63626   0.76298   0.64622   0.00000  Uiso   1.00
H803   H     0.66320   0.82035   0.79699   0.00000  Uiso   1.00
H804   H     0.43224   0.96747   0.69929   0.00000  Uiso   1.00
H805   H     0.38033   0.79141   0.87237   0.00000  Uiso   1.00
H806   H     0.35395   0.73740   0.85410   0.00000  Uiso   1.00
H807   H     0.64525   0.77977   0.86702   0.00000  Uiso   1.00
H808   H     0.60280   0.85707   0.69347   0.00000  Uiso   1.00
H809   H     0.39394   0.64336   0.80430   0.00000  Uiso   1.00
H810   H     0.53314   0.61002   0.82549   0.00000  Uiso   1.00
H811   H     0.43297   0.88671   0.69756   0.00000  Uiso   1.00
H812   H     0.47222   0.61145   0.67502   0.00000  Uiso   1.00
H813   H     0.56934   0.88912   0.80020   0.00000  Uiso   1.00
H814   H     0.47485   0.53139   0.67396   0.00000  Uiso   1.00
H815   H     0.57139   0.97007   0.79975   0.00000  Uiso   1.00
H816   H     0.53381   0.81439   0.53527   0.00000  Uiso   1.00
N817   N     0.50000   0.75001   0.62935   0.00000  Uiso   1.00
N818   N     0.50000   0.74999   0.87066   0.00000  Uiso   1.00
N819   N     0.65613   0.71206   0.69755   0.00000  Uiso   1.00
N820   N     0.34386   0.78906   0.80159   0.00000  Uiso   1.00
O821   O     0.50000   0.68572   0.79072   0.00000  Uiso   1.00
O822   O     0.51549   0.86752   0.63452   0.00000  Uiso   1.00
O823   O     0.59087   0.82685   0.68286   0.00000  Uiso   1.00
O824   O     0.46895   0.63487   0.87602   0.00000  Uiso   1.00
O825   O     0.38931   0.66022   0.89841   0.00000  Uiso   1.00
O826   O     0.40710   0.67407   0.81165   0.00000  Uiso   1.00
O827   O     0.50000   0.81427   0.70929   0.00000  Uiso   1.00
O828   O     0.50000   0.68573   0.70928   0.00000  Uiso   1.00
O829   O     0.50000   0.81427   0.79072   0.00000  Uiso   1.00
O830   O     0.42495   0.74999   0.78132   0.00000  Uiso   1.00
O831   O     0.57505   0.75000   0.71868   0.00000  Uiso   1.00
O832   O     0.42495   0.75000   0.69989   0.00000  Uiso   1.00
O833   O     0.57505   0.75000   0.80012   0.00000  Uiso   1.00
O834   O     0.59077   0.85395   0.59560   0.00000  Uiso   1.00
S835   S     0.55504   0.83432   0.62968   0.00000  Uiso   1.00
S836   S     0.43294   0.67206   0.86938   0.00000  Uiso   1.00
C837   C     0.83378   0.66499   0.75050   0.00000  Uiso   1.00
C838   C     0.86811   0.77867   0.94844   0.00000  Uiso   1.00
C839   C     0.83428   0.74870   0.52725   0.00000  Uiso   1.00
C840   C     0.83463   0.75010   0.97281   0.00000  Uiso   1.00
C841   C     0.73484   0.74910   0.73801   0.00000  Uiso   1.00
C842   C     0.93182   0.75132   0.76190   0.00000  Uiso   1.00
C843   C     0.67984   0.74243   0.73285   0.00000  Uiso   1.00
C844   C     0.98678   0.75842   0.76664   0.00000  Uiso   1.00
C845   C     0.85162   0.54687   0.79272   0.00000  Uiso   1.00
C846   C     0.79642   0.95098   0.72068   0.00000  Uiso   1.00
C847   C     0.85186   0.59295   0.79284   0.00000  Uiso   1.00
C848   C     0.83353   0.83478   0.74949   0.00000  Uiso   1.00
C849   C     0.79650   0.90499   0.71981   0.00000  Uiso   1.00
C850   C     0.83439   0.61663   0.75083   0.00000  Uiso   1.00
C851   C     0.83456   0.88273   0.74866   0.00000  Uiso   1.00
C852   C     0.81862   0.59383   0.70815   0.00000  Uiso   1.00
C853   C     0.87297   0.90634   0.77793   0.00000  Uiso   1.00
C854   C     0.81953   0.54795   0.70768   0.00000  Uiso   1.00
C855   C     0.87374   0.95239   0.77793   0.00000  Uiso   1.00
C856   C     0.83542   0.52393   0.75008   0.00000  Uiso   1.00
C857   C     0.83521   0.97516   0.74960   0.00000  Uiso   1.00
C858   C     0.98375   0.72897   0.64831   0.00000  Uiso   1.00
C859   C     0.85378   0.78506   0.55394   0.00000  Uiso   1.00
C860   C     0.68087   0.77341   0.85125   0.00000  Uiso   1.00
C861   C     0.80056   0.72242   0.94421   0.00000  Uiso   1.00
C862   C     0.85607   0.78512   0.60435   0.00000  Uiso   1.00
C863   C     0.80121   0.72055   0.89416   0.00000  Uiso   1.00
C864   C     0.81245   0.71425   0.60369   0.00000  Uiso   1.00
C865   C     0.86587   0.77885   0.89767   0.00000  Uiso   1.00
C866   C     0.81373   0.71241   0.55336   0.00000  Uiso   1.00
Cu867  Cu    0.83333   0.74999   0.79822   0.00000  Uiso   1.00
Cu868  Cu    0.83333   0.75000   0.70179   0.00000  Uiso   1.00
H869   H     0.86385   0.52929   0.82607   0.00000  Uiso   1.00
H870   H     0.77403   0.70053   0.96127   0.00000  Uiso   1.00
H871   H     0.79514   0.68642   0.62209   0.00000  Uiso   1.00
H872   H     0.89132   0.80153   0.88003   0.00000  Uiso   1.00
H873   H     0.79871   0.68234   0.53564   0.00000  Uiso   1.00
H874   H     0.89661   0.80062   0.96798   0.00000  Uiso   1.00
H875   H     0.67200   0.68145   0.70056   0.00000  Uiso   1.00
H876   H     0.95543   0.70718   0.62607   0.00000  Uiso   1.00
H877   H     0.68755   0.72931   0.63305   0.00000  Uiso   1.00
H878   H     0.96960   0.76298   0.64622   0.00000  Uiso   1.00
H879   H     0.99653   0.82035   0.79699   0.00000  Uiso   1.00
H880   H     0.76557   0.96747   0.69929   0.00000  Uiso   1.00
H881   H     0.71367   0.79141   0.87237   0.00000  Uiso   1.00
H882   H     0.68728   0.73740   0.85410   0.00000  Uiso   1.00
H883   H     0.97858   0.77977   0.86702   0.00000  Uiso   1.00
H884   H     0.93614   0.85707   0.69347   0.00000  Uiso   1.00
H885   H     0.72728   0.64336   0.80430   0.00000  Uiso   1.00
H886   H     0.86647   0.61002   0.82549   0.00000  Uiso   1.00
H887   H     0.76631   0.88671   0.69756   0.00000  Uiso   1.00
H888   H     0.80556   0.61145   0.67502   0.00000  Uiso   1.00
H889   H     0.90267   0.88912   0.80020   0.00000  Uiso   1.00
H890   H     0.80818   0.53139   0.67396   0.00000  Uiso   1.00
H891   H     0.90472   0.97007   0.79975   0.00000  Uiso   1.00
H892   H     0.86714   0.81439   0.53527   0.00000  Uiso   1.00
N893   N     0.83333   0.75001   0.62935   0.00000  Uiso   1.00
N894   N     0.83333   0.74999   0.87066   0.00000  Uiso   1.00
N895   N     0.98946   0.71206   0.69755   0.00000  Uiso   1.00
N896   N     0.67719   0.78906   0.80159   0.00000  Uiso   1.00
O897   O     0.83334   0.68572   0.79072   0.00000  Uiso   1.00
O898   O     0.84882   0.86752   0.63452   0.00000  Uiso   1.00
O899   O     0.92420   0.82685   0.68286   0.00000  Uiso   1.00
O900   O     0.80229   0.63487   0.87602   0.00000  Uiso   1.00
O901   O     0.72264   0.66022   0.89841   0.00000  Uiso   1.00
O902   O     0.74044   0.67407   0.81165   0.00000  Uiso   1.00
O903   O     0.83333   0.81427   0.70929   0.00000  Uiso   1.00
O904   O     0.83334   0.68573   0.70928   0.00000  Uiso   1.00
O905   O     0.83333   0.81427   0.79072   0.00000  Uiso   1.00
O906   O     0.75828   0.74999   0.78132   0.00000  Uiso   1.00
O907   O     0.90839   0.75000   0.71868   0.00000  Uiso   1.00
O908   O     0.75828   0.75000   0.69989   0.00000  Uiso   1.00
O909   O     0.90839   0.75000   0.80012   0.00000  Uiso   1.00
O910   O     0.92410   0.85395   0.59560   0.00000  Uiso   1.00
S911   S     0.88837   0.83432   0.62968   0.00000  Uiso   1.00
S912   S     0.76628   0.67206   0.86938   0.00000  Uiso   1.00
loop_
_geom_bond_atom_site_label_1
_geom_bond_atom_site_label_2
_geom_bond_distance
_geom_bond_site_symmetry_2
_ccdc_geom_bond_type
C1     O68     1.295   .     A
C1     O61     1.305   .     A
C1     C14     1.461   .     S
C2     C29     1.414   .     A
C2     C4      1.418   .     A
C2     H38     1.080   .     S
C3     C23     1.386   .     A
C3     C30     1.418   .     A
C3     C460    1.523   1_554 S
C4     C25     1.387   .     A
C4     C459    1.523   .     S
C5     O72     1.293   .     A
C5     C7      1.438   .     S
C5     O70     1.291   .     A
C6     O71     1.289   .     A
C6     C8      1.439   .     S
C6     O73     1.295   .     A
C7     C160    1.352   1_455 S
C7     N211    1.431   1_455 S
C8     C83     1.352   .     S
C8     N136    1.430   .     S
C9     H33     1.082   .     S
C9     C20     1.406   .     A
C9     C11     1.392   .     A
C10    C21     1.407   .     A
C10    H44     1.082   .     S
C10    C13     1.390   .     A
C11    C14     1.399   .     A
C11    H50     1.081   .     S
C12    O69     1.293   .     A
C12    O67     1.299   .     A
C12    C15     1.446   .     S
C13    H51     1.084   .     S
C13    C15     1.396   .     A
C14    C16     1.403   .     A
C15    C17     1.397   .     A
C16    H52     1.083   .     S
C16    C18     1.388   .     A
C17    H53     1.084   .     S
C17    C19     1.390   .     A
C18    C20     1.403   .     A
C18    H54     1.083   .     S
C19    C21     1.405   .     A
C19    H55     1.082   .     S
C20    C249    1.473   1_545 S
C21    C248    1.473   .     S
C22    H40     1.110   .     S
C22    N59     1.448   .     S
C22    H42     1.109   .     S
C22    H117    1.110   .     S
C23    C26     1.404   .     A
C23    H56     1.079   .     S
C24    H45     1.110   .     S
C24    N60     1.447   .     S
C24    H46     1.109   .     S
C24    H199    1.110   1_455 S
C25    H34     1.078   .     S
C25    C27     1.405   .     A
C26    S75     1.792   .     S
C26    N57     1.399   .     A
C27    N58     1.397   .     A
C27    S76     1.796   .     S
C28    N57     1.367   .     A
C28    H35     1.081   .     S
C28    C30     1.415   .     A
C29    H36     1.081   .     S
C29    N58     1.365   .     A
C30    H37     1.080   .     S
Cu31   O61     1.959   .     S
Cu31   N58     2.026   .     S
Cu31   O73     1.966   .     S
Cu31   O70     1.971   .     S
Cu31   Cu32    2.696   .     S
Cu31   O69     1.946   .     S
Cu32   O72     1.966   .     S
Cu32   O68     1.946   .     S
Cu32   N57     2.026   .     S
Cu32   O71     1.971   .     S
Cu32   O67     1.959   .     S
H39    N211    1.032   1_455 S
H41    C174    1.110   1_455 S
H43    N136    1.032   .     S
H47    C100    1.110   .     S
H48    O63     0.991   .     S
H49    O66     0.991   .     S
N59    H115    1.032   .     S
N59    C83     1.431   .     S
N60    H195    1.032   1_455 S
N60    C160    1.430   1_455 S
O62    S75     1.503   .     D
O63    S75     1.677   .     S
O64    S76     1.501   .     D
O65    S76     1.504   .     D
O66    S76     1.675   .     S
O74    S75     1.504   .     D
C77    O144    1.295   .     A
C77    O137    1.305   .     A
C77    C90     1.461   .     S
C78    C105    1.414   .     A
C78    C80     1.418   .     A
C78    H114    1.080   .     S
C79    C99     1.386   .     A
C79    C106    1.418   .     A
C79    C536    1.523   1_554 S
C80    C101    1.387   .     A
C80    C535    1.523   .     S
C81    O148    1.293   .     A
C81    C83     1.438   .     S
C81    O146    1.291   .     A
C82    O147    1.289   .     A
C82    C84     1.439   .     S
C82    O149    1.295   .     A
C84    C159    1.352   .     S
C84    N212    1.430   .     S
C85    H109    1.082   .     S
C85    C96     1.406   .     A
C85    C87     1.392   .     A
C86    C97     1.407   .     A
C86    H120    1.082   .     S
C86    C89     1.390   .     A
C87    C90     1.399   .     A
C87    H126    1.081   .     S
C88    O145    1.293   .     A
C88    O143    1.299   .     A
C88    C91     1.446   .     S
C89    H127    1.084   .     S
C89    C91     1.396   .     A
C90    C92     1.403   .     A
C91    C93     1.397   .     A
C92    H128    1.083   .     S
C92    C94     1.388   .     A
C93    H129    1.084   .     S
C93    C95     1.390   .     A
C94    C96     1.403   .     A
C94    H130    1.083   .     S
C95    C97     1.405   .     A
C95    H131    1.082   .     S
C96    C325    1.473   1_545 S
C97    C324    1.473   .     S
C98    H116    1.110   .     S
C98    N135    1.448   .     S
C98    H118    1.109   .     S
C98    H193    1.110   .     S
C99    C102    1.404   .     A
C99    H132    1.079   .     S
C100   H121    1.110   .     S
C100   N136    1.447   .     S
C100   H122    1.109   .     S
C101   H110    1.078   .     S
C101   C103    1.405   .     A
C102   S151    1.792   .     S
C102   N133    1.399   .     A
C103   N134    1.397   .     A
C103   S152    1.796   .     S
C104   N133    1.367   .     A
C104   H111    1.081   .     S
C104   C106    1.415   .     A
C105   H112    1.081   .     S
C105   N134    1.365   .     A
C106   H113    1.080   .     S
Cu107  O137    1.959   .     S
Cu107  N134    2.026   .     S
Cu107  O149    1.966   .     S
Cu107  O146    1.971   .     S
Cu107  Cu108   2.696   .     S
Cu107  O145    1.946   .     S
Cu108  O148    1.966   .     S
Cu108  O144    1.946   .     S
Cu108  N133    2.026   .     S
Cu108  O147    1.971   .     S
Cu108  O143    1.959   .     S
H119   N212    1.032   .     S
H123   C176    1.110   .     S
H124   O139    0.991   .     S
H125   O142    0.991   .     S
N135   H191    1.032   .     S
N135   C159    1.431   .     S
O138   S151    1.503   .     D
O139   S151    1.677   .     S
O140   S152    1.501   .     D
O141   S152    1.504   .     D
O142   S152    1.675   .     S
O150   S151    1.504   .     D
C153   O220    1.295   .     A
C153   O213    1.305   .     A
C153   C166    1.461   .     S
C154   C181    1.414   .     A
C154   C156    1.418   .     A
C154   H190    1.080   .     S
C155   C175    1.386   .     A
C155   C182    1.418   .     A
C155   C612    1.523   1_554 S
C156   C177    1.387   .     A
C156   C611    1.523   .     S
C157   O224    1.293   .     A
C157   C159    1.438   .     S
C157   O222    1.291   .     A
C158   O223    1.289   .     A
C158   C160    1.439   .     S
C158   O225    1.295   .     A
C160   C7      1.352   1_655 S
C160   N60     1.430   1_655 S
C161   H185    1.082   .     S
C161   C172    1.406   .     A
C161   C163    1.392   .     A
C162   C173    1.407   .     A
C162   H196    1.082   .     S
C162   C165    1.390   .     A
C163   C166    1.399   .     A
C163   H202    1.081   .     S
C164   O221    1.293   .     A
C164   O219    1.299   .     A
C164   C167    1.446   .     S
C165   H203    1.084   .     S
C165   C167    1.396   .     A
C166   C168    1.403   .     A
C167   C169    1.397   .     A
C168   H204    1.083   .     S
C168   C170    1.388   .     A
C169   H205    1.084   .     S
C169   C171    1.390   .     A
C170   C172    1.403   .     A
C170   H206    1.083   .     S
C171   C173    1.405   .     A
C171   H207    1.082   .     S
C172   C401    1.473   1_545 S
C173   C400    1.473   .     S
C174   H192    1.110   .     S
C174   N211    1.448   .     S
C174   H194    1.109   .     S
C174   H41     1.110   1_655 S
C175   C178    1.404   .     A
C175   H208    1.079   .     S
C176   H197    1.110   .     S
C176   N212    1.447   .     S
C176   H198    1.109   .     S
C177   H186    1.078   .     S
C177   C179    1.405   .     A
C178   S227    1.792   .     S
C178   N209    1.399   .     A
C179   N210    1.397   .     A
C179   S228    1.796   .     S
C180   N209    1.367   .     A
C180   H187    1.081   .     S
C180   C182    1.415   .     A
C181   H188    1.081   .     S
C181   N210    1.365   .     A
C182   H189    1.080   .     S
Cu183  O213    1.959   .     S
Cu183  N210    2.026   .     S
Cu183  O225    1.966   .     S
Cu183  O222    1.971   .     S
Cu183  Cu184   2.696   .     S
Cu183  O221    1.946   .     S
Cu184  O224    1.966   .     S
Cu184  O220    1.946   .     S
Cu184  N209    2.026   .     S
Cu184  O223    1.971   .     S
Cu184  O219    1.959   .     S
H195   N60     1.032   1_655 S
H199   C24     1.110   1_655 S
H200   O215    0.991   .     S
H201   O218    0.991   .     S
N211   H39     1.032   1_655 S
N211   C7      1.431   1_655 S
O214   S227    1.503   .     D
O215   S227    1.677   .     S
O216   S228    1.501   .     D
O217   S228    1.504   .     D
O218   S228    1.675   .     S
O226   S227    1.504   .     D
C229   O296    1.295   .     A
C229   O289    1.305   .     A
C229   C242    1.461   .     S
C230   C257    1.414   .     A
C230   C232    1.418   .     A
C230   H266    1.080   .     S
C231   C251    1.386   .     A
C231   C258    1.418   .     A
C231   C688    1.523   1_554 S
C232   C253    1.387   .     A
C232   C687    1.523   .     S
C233   O300    1.293   .     A
C233   C235    1.438   .     S
C233   O298    1.291   .     A
C234   O299    1.289   .     A
C234   C236    1.439   .     S
C234   O301    1.295   .     A
C235   C388    1.352   1_455 S
C235   N439    1.431   1_455 S
C236   C311    1.352   .     S
C236   N364    1.430   .     S
C237   H261    1.082   .     S
C237   C248    1.406   .     A
C237   C239    1.392   .     A
C238   C249    1.407   .     A
C238   H272    1.082   .     S
C238   C241    1.390   .     A
C239   C242    1.399   .     A
C239   H278    1.081   .     S
C240   O297    1.293   .     A
C240   O295    1.299   .     A
C240   C243    1.446   .     S
C241   H279    1.084   .     S
C241   C243    1.396   .     A
C242   C244    1.403   .     A
C243   C245    1.397   .     A
C244   H280    1.083   .     S
C244   C246    1.388   .     A
C245   H281    1.084   .     S
C245   C247    1.390   .     A
C246   C248    1.403   .     A
C246   H282    1.083   .     S
C247   C249    1.405   .     A
C247   H283    1.082   .     S
C249   C20     1.473   1_565 S
C250   H268    1.110   .     S
C250   N287    1.448   .     S
C250   H270    1.109   .     S
C250   H345    1.110   .     S
C251   C254    1.404   .     A
C251   H284    1.079   .     S
C252   H273    1.110   .     S
C252   N288    1.447   .     S
C252   H274    1.109   .     S
C252   H427    1.110   1_455 S
C253   H262    1.078   .     S
C253   C255    1.405   .     A
C254   S303    1.792   .     S
C254   N285    1.399   .     A
C255   N286    1.397   .     A
C255   S304    1.796   .     S
C256   N285    1.367   .     A
C256   H263    1.081   .     S
C256   C258    1.415   .     A
C257   H264    1.081   .     S
C257   N286    1.365   .     A
C258   H265    1.080   .     S
Cu259  O289    1.959   .     S
Cu259  N286    2.026   .     S
Cu259  O301    1.966   .     S
Cu259  O298    1.971   .     S
Cu259  Cu260   2.696   .     S
Cu259  O297    1.946   .     S
Cu260  O300    1.966   .     S
Cu260  O296    1.946   .     S
Cu260  N285    2.026   .     S
Cu260  O299    1.971   .     S
Cu260  O295    1.959   .     S
H267   N439    1.032   1_455 S
H269   C402    1.110   1_455 S
H271   N364    1.032   .     S
H275   C328    1.110   .     S
H276   O291    0.991   .     S
H277   O294    0.991   .     S
N287   H343    1.032   .     S
N287   C311    1.431   .     S
N288   H423    1.032   1_455 S
N288   C388    1.430   1_455 S
O290   S303    1.503   .     D
O291   S303    1.677   .     S
O292   S304    1.501   .     D
O293   S304    1.504   .     D
O294   S304    1.675   .     S
O302   S303    1.504   .     D
C305   O372    1.295   .     A
C305   O365    1.305   .     A
C305   C318    1.461   .     S
C306   C333    1.414   .     A
C306   C308    1.418   .     A
C306   H342    1.080   .     S
C307   C327    1.386   .     A
C307   C334    1.418   .     A
C307   C764    1.523   1_554 S
C308   C329    1.387   .     A
C308   C763    1.523   .     S
C309   O376    1.293   .     A
C309   C311    1.438   .     S
C309   O374    1.291   .     A
C310   O375    1.289   .     A
C310   C312    1.439   .     S
C310   O377    1.295   .     A
C312   C387    1.352   .     S
C312   N440    1.430   .     S
C313   H337    1.082   .     S
C313   C324    1.406   .     A
C313   C315    1.392   .     A
C314   C325    1.407   .     A
C314   H348    1.082   .     S
C314   C317    1.390   .     A
C315   C318    1.399   .     A
C315   H354    1.081   .     S
C316   O373    1.293   .     A
C316   O371    1.299   .     A
C316   C319    1.446   .     S
C317   H355    1.084   .     S
C317   C319    1.396   .     A
C318   C320    1.403   .     A
C319   C321    1.397   .     A
C320   H356    1.083   .     S
C320   C322    1.388   .     A
C321   H357    1.084   .     S
C321   C323    1.390   .     A
C322   C324    1.403   .     A
C322   H358    1.083   .     S
C323   C325    1.405   .     A
C323   H359    1.082   .     S
C325   C96     1.473   1_565 S
C326   H344    1.110   .     S
C326   N363    1.448   .     S
C326   H346    1.109   .     S
C326   H421    1.110   .     S
C327   C330    1.404   .     A
C327   H360    1.079   .     S
C328   H349    1.110   .     S
C328   N364    1.447   .     S
C328   H350    1.109   .     S
C329   H338    1.078   .     S
C329   C331    1.405   .     A
C330   S379    1.792   .     S
C330   N361    1.399   .     A
C331   N362    1.397   .     A
C331   S380    1.796   .     S
C332   N361    1.367   .     A
C332   H339    1.081   .     S
C332   C334    1.415   .     A
C333   H340    1.081   .     S
C333   N362    1.365   .     A
C334   H341    1.080   .     S
Cu335  O365    1.959   .     S
Cu335  N362    2.026   .     S
Cu335  O377    1.966   .     S
Cu335  O374    1.971   .     S
Cu335  Cu336   2.696   .     S
Cu335  O373    1.946   .     S
Cu336  O376    1.966   .     S
Cu336  O372    1.946   .     S
Cu336  N361    2.026   .     S
Cu336  O375    1.971   .     S
Cu336  O371    1.959   .     S
H347   N440    1.032   .     S
H351   C404    1.110   .     S
H352   O367    0.991   .     S
H353   O370    0.991   .     S
N363   H419    1.032   .     S
N363   C387    1.431   .     S
O366   S379    1.503   .     D
O367   S379    1.677   .     S
O368   S380    1.501   .     D
O369   S380    1.504   .     D
O370   S380    1.675   .     S
O378   S379    1.504   .     D
C381   O448    1.295   .     A
C381   O441    1.305   .     A
C381   C394    1.461   .     S
C382   C409    1.414   .     A
C382   C384    1.418   .     A
C382   H418    1.080   .     S
C383   C403    1.386   .     A
C383   C410    1.418   .     A
C383   C840    1.523   1_554 S
C384   C405    1.387   .     A
C384   C839    1.523   .     S
C385   O452    1.293   .     A
C385   C387    1.438   .     S
C385   O450    1.291   .     A
C386   O451    1.289   .     A
C386   C388    1.439   .     S
C386   O453    1.295   .     A
C388   C235    1.352   1_655 S
C388   N288    1.430   1_655 S
C389   H413    1.082   .     S
C389   C400    1.406   .     A
C389   C391    1.392   .     A
C390   C401    1.407   .     A
C390   H424    1.082   .     S
C390   C393    1.390   .     A
C391   C394    1.399   .     A
C391   H430    1.081   .     S
C392   O449    1.293   .     A
C392   O447    1.299   .     A
C392   C395    1.446   .     S
C393   H431    1.084   .     S
C393   C395    1.396   .     A
C394   C396    1.403   .     A
C395   C397    1.397   .     A
C396   H432    1.083   .     S
C396   C398    1.388   .     A
C397   H433    1.084   .     S
C397   C399    1.390   .     A
C398   C400    1.403   .     A
C398   H434    1.083   .     S
C399   C401    1.405   .     A
C399   H435    1.082   .     S
C401   C172    1.473   1_565 S
C402   H420    1.110   .     S
C402   N439    1.448   .     S
C402   H422    1.109   .     S
C402   H269    1.110   1_655 S
C403   C406    1.404   .     A
C403   H436    1.079   .     S
C404   H425    1.110   .     S
C404   N440    1.447   .     S
C404   H426    1.109   .     S
C405   H414    1.078   .     S
C405   C407    1.405   .     A
C406   S455    1.792   .     S
C406   N437    1.399   .     A
C407   N438    1.397   .     A
C407   S456    1.796   .     S
C408   N437    1.367   .     A
C408   H415    1.081   .     S
C408   C410    1.415   .     A
C409   H416    1.081   .     S
C409   N438    1.365   .     A
C410   H417    1.080   .     S
Cu411  O441    1.959   .     S
Cu411  N438    2.026   .     S
Cu411  O453    1.966   .     S
Cu411  O450    1.971   .     S
Cu411  Cu412   2.696   .     S
Cu411  O449    1.946   .     S
Cu412  O452    1.966   .     S
Cu412  O448    1.946   .     S
Cu412  N437    2.026   .     S
Cu412  O451    1.971   .     S
Cu412  O447    1.959   .     S
H423   N288    1.032   1_655 S
H427   C252    1.110   1_655 S
H428   O443    0.991   .     S
H429   O446    0.991   .     S
N439   H267    1.032   1_655 S
N439   C235    1.431   1_655 S
O442   S455    1.503   .     D
O443   S455    1.677   .     S
O444   S456    1.501   .     D
O445   S456    1.504   .     D
O446   S456    1.675   .     S
O454   S455    1.504   .     D
C457   O524    1.295   .     A
C457   O517    1.305   .     A
C457   C470    1.461   .     S
C458   C485    1.414   .     A
C458   C460    1.418   .     A
C458   H494    1.080   .     S
C459   C479    1.386   .     A
C459   C486    1.418   .     A
C460   C481    1.387   .     A
C460   C3      1.523   1_556 S
C461   O528    1.293   .     A
C461   C463    1.438   .     S
C461   O526    1.291   .     A
C462   O527    1.289   .     A
C462   C464    1.439   .     S
C462   O529    1.295   .     A
C463   C616    1.352   1_455 S
C463   N667    1.431   1_455 S
C464   C539    1.352   .     S
C464   N592    1.430   .     S
C465   H489    1.082   .     S
C465   C476    1.406   .     A
C465   C467    1.392   .     A
C466   C477    1.407   .     A
C466   H500    1.082   .     S
C466   C469    1.390   .     A
C467   C470    1.399   .     A
C467   H506    1.081   .     S
C468   O525    1.293   .     A
C468   O523    1.299   .     A
C468   C471    1.446   .     S
C469   H507    1.084   .     S
C469   C471    1.396   .     A
C470   C472    1.403   .     A
C471   C473    1.397   .     A
C472   H508    1.083   .     S
C472   C474    1.388   .     A
C473   H509    1.084   .     S
C473   C475    1.390   .     A
C474   C476    1.403   .     A
C474   H510    1.083   .     S
C475   C477    1.405   .     A
C475   H511    1.082   .     S
C476   C705    1.473   1_545 S
C477   C704    1.473   .     S
C478   H496    1.110   .     S
C478   N515    1.448   .     S
C478   H498    1.109   .     S
C478   H573    1.110   .     S
C479   C482    1.404   .     A
C479   H512    1.079   .     S
C480   H501    1.110   .     S
C480   N516    1.447   .     S
C480   H502    1.109   .     S
C480   H655    1.110   1_455 S
C481   H490    1.078   .     S
C481   C483    1.405   .     A
C482   S531    1.792   .     S
C482   N513    1.399   .     A
C483   N514    1.397   .     A
C483   S532    1.796   .     S
C484   N513    1.367   .     A
C484   H491    1.081   .     S
C484   C486    1.415   .     A
C485   H492    1.081   .     S
C485   N514    1.365   .     A
C486   H493    1.080   .     S
Cu487  O517    1.959   .     S
Cu487  N514    2.026   .     S
Cu487  O529    1.966   .     S
Cu487  O526    1.971   .     S
Cu487  Cu488   2.696   .     S
Cu487  O525    1.946   .     S
Cu488  O528    1.966   .     S
Cu488  O524    1.946   .     S
Cu488  N513    2.026   .     S
Cu488  O527    1.971   .     S
Cu488  O523    1.959   .     S
H495   N667    1.032   1_455 S
H497   C630    1.110   1_455 S
H499   N592    1.032   .     S
H503   C556    1.110   .     S
H504   O519    0.991   .     S
H505   O522    0.991   .     S
N515   H571    1.032   .     S
N515   C539    1.431   .     S
N516   H651    1.032   1_455 S
N516   C616    1.430   1_455 S
O518   S531    1.503   .     D
O519   S531    1.677   .     S
O520   S532    1.501   .     D
O521   S532    1.504   .     D
O522   S532    1.675   .     S
O530   S531    1.504   .     D
C533   O600    1.295   .     A
C533   O593    1.305   .     A
C533   C546    1.461   .     S
C534   C561    1.414   .     A
C534   C536    1.418   .     A
C534   H570    1.080   .     S
C535   C555    1.386   .     A
C535   C562    1.418   .     A
C536   C557    1.387   .     A
C536   C79     1.523   1_556 S
C537   O604    1.293   .     A
C537   C539    1.438   .     S
C537   O602    1.291   .     A
C538   O603    1.289   .     A
C538   C540    1.439   .     S
C538   O605    1.295   .     A
C540   C615    1.352   .     S
C540   N668    1.430   .     S
C541   H565    1.082   .     S
C541   C552    1.406   .     A
C541   C543    1.392   .     A
C542   C553    1.407   .     A
C542   H576    1.082   .     S
C542   C545    1.390   .     A
C543   C546    1.399   .     A
C543   H582    1.081   .     S
C544   O601    1.293   .     A
C544   O599    1.299   .     A
C544   C547    1.446   .     S
C545   H583    1.084   .     S
C545   C547    1.396   .     A
C546   C548    1.403   .     A
C547   C549    1.397   .     A
C548   H584    1.083   .     S
C548   C550    1.388   .     A
C549   H585    1.084   .     S
C549   C551    1.390   .     A
C550   C552    1.403   .     A
C550   H586    1.083   .     S
C551   C553    1.405   .     A
C551   H587    1.082   .     S
C552   C781    1.473   1_545 S
C553   C780    1.473   .     S
C554   H572    1.110   .     S
C554   N591    1.448   .     S
C554   H574    1.109   .     S
C554   H649    1.110   .     S
C555   C558    1.404   .     A
C555   H588    1.079   .     S
C556   H577    1.110   .     S
C556   N592    1.447   .     S
C556   H578    1.109   .     S
C557   H566    1.078   .     S
C557   C559    1.405   .     A
C558   S607    1.792   .     S
C558   N589    1.399   .     A
C559   N590    1.397   .     A
C559   S608    1.796   .     S
C560   N589    1.367   .     A
C560   H567    1.081   .     S
C560   C562    1.415   .     A
C561   H568    1.081   .     S
C561   N590    1.365   .     A
C562   H569    1.080   .     S
Cu563  O593    1.959   .     S
Cu563  N590    2.026   .     S
Cu563  O605    1.966   .     S
Cu563  O602    1.971   .     S
Cu563  Cu564   2.696   .     S
Cu563  O601    1.946   .     S
Cu564  O604    1.966   .     S
Cu564  O600    1.946   .     S
Cu564  N589    2.026   .     S
Cu564  O603    1.971   .     S
Cu564  O599    1.959   .     S
H575   N668    1.032   .     S
H579   C632    1.110   .     S
H580   O595    0.991   .     S
H581   O598    0.991   .     S
N591   H647    1.032   .     S
N591   C615    1.431   .     S
O594   S607    1.503   .     D
O595   S607    1.677   .     S
O596   S608    1.501   .     D
O597   S608    1.504   .     D
O598   S608    1.675   .     S
O606   S607    1.504   .     D
C609   O676    1.295   .     A
C609   O669    1.305   .     A
C609   C622    1.461   .     S
C610   C637    1.414   .     A
C610   C612    1.418   .     A
C610   H646    1.080   .     S
C611   C631    1.386   .     A
C611   C638    1.418   .     A
C612   C633    1.387   .     A
C612   C155    1.523   1_556 S
C613   O680    1.293   .     A
C613   C615    1.438   .     S
C613   O678    1.291   .     A
C614   O679    1.289   .     A
C614   C616    1.439   .     S
C614   O681    1.295   .     A
C616   C463    1.352   1_655 S
C616   N516    1.430   1_655 S
C617   H641    1.082   .     S
C617   C628    1.406   .     A
C617   C619    1.392   .     A
C618   C629    1.407   .     A
C618   H652    1.082   .     S
C618   C621    1.390   .     A
C619   C622    1.399   .     A
C619   H658    1.081   .     S
C620   O677    1.293   .     A
C620   O675    1.299   .     A
C620   C623    1.446   .     S
C621   H659    1.084   .     S
C621   C623    1.396   .     A
C622   C624    1.403   .     A
C623   C625    1.397   .     A
C624   H660    1.083   .     S
C624   C626    1.388   .     A
C625   H661    1.084   .     S
C625   C627    1.390   .     A
C626   C628    1.403   .     A
C626   H662    1.083   .     S
C627   C629    1.405   .     A
C627   H663    1.082   .     S
C628   C857    1.473   1_545 S
C629   C856    1.473   .     S
C630   H648    1.110   .     S
C630   N667    1.448   .     S
C630   H650    1.109   .     S
C630   H497    1.110   1_655 S
C631   C634    1.404   .     A
C631   H664    1.079   .     S
C632   H653    1.110   .     S
C632   N668    1.447   .     S
C632   H654    1.109   .     S
C633   H642    1.078   .     S
C633   C635    1.405   .     A
C634   S683    1.792   .     S
C634   N665    1.399   .     A
C635   N666    1.397   .     A
C635   S684    1.796   .     S
C636   N665    1.367   .     A
C636   H643    1.081   .     S
C636   C638    1.415   .     A
C637   H644    1.081   .     S
C637   N666    1.365   .     A
C638   H645    1.080   .     S
Cu639  O669    1.959   .     S
Cu639  N666    2.026   .     S
Cu639  O681    1.966   .     S
Cu639  O678    1.971   .     S
Cu639  Cu640   2.696   .     S
Cu639  O677    1.946   .     S
Cu640  O680    1.966   .     S
Cu640  O676    1.946   .     S
Cu640  N665    2.026   .     S
Cu640  O679    1.971   .     S
Cu640  O675    1.959   .     S
H651   N516    1.032   1_655 S
H655   C480    1.110   1_655 S
H656   O671    0.991   .     S
H657   O674    0.991   .     S
N667   H495    1.032   1_655 S
N667   C463    1.431   1_655 S
O670   S683    1.503   .     D
O671   S683    1.677   .     S
O672   S684    1.501   .     D
O673   S684    1.504   .     D
O674   S684    1.675   .     S
O682   S683    1.504   .     D
C685   O752    1.295   .     A
C685   O745    1.305   .     A
C685   C698    1.461   .     S
C686   C713    1.414   .     A
C686   C688    1.418   .     A
C686   H722    1.080   .     S
C687   C707    1.386   .     A
C687   C714    1.418   .     A
C688   C709    1.387   .     A
C688   C231    1.523   1_556 S
C689   O756    1.293   .     A
C689   C691    1.438   .     S
C689   O754    1.291   .     A
C690   O755    1.289   .     A
C690   C692    1.439   .     S
C690   O757    1.295   .     A
C691   C844    1.352   1_455 S
C691   N895    1.431   1_455 S
C692   C767    1.352   .     S
C692   N820    1.430   .     S
C693   H717    1.082   .     S
C693   C704    1.406   .     A
C693   C695    1.392   .     A
C694   C705    1.407   .     A
C694   H728    1.082   .     S
C694   C697    1.390   .     A
C695   C698    1.399   .     A
C695   H734    1.081   .     S
C696   O753    1.293   .     A
C696   O751    1.299   .     A
C696   C699    1.446   .     S
C697   H735    1.084   .     S
C697   C699    1.396   .     A
C698   C700    1.403   .     A
C699   C701    1.397   .     A
C700   H736    1.083   .     S
C700   C702    1.388   .     A
C701   H737    1.084   .     S
C701   C703    1.390   .     A
C702   C704    1.403   .     A
C702   H738    1.083   .     S
C703   C705    1.405   .     A
C703   H739    1.082   .     S
C705   C476    1.473   1_565 S
C706   H724    1.110   .     S
C706   N743    1.448   .     S
C706   H726    1.109   .     S
C706   H801    1.110   .     S
C707   C710    1.404   .     A
C707   H740    1.079   .     S
C708   H729    1.110   .     S
C708   N744    1.447   .     S
C708   H730    1.109   .     S
C708   H883    1.110   1_455 S
C709   H718    1.078   .     S
C709   C711    1.405   .     A
C710   S759    1.792   .     S
C710   N741    1.399   .     A
C711   N742    1.397   .     A
C711   S760    1.796   .     S
C712   N741    1.367   .     A
C712   H719    1.081   .     S
C712   C714    1.415   .     A
C713   H720    1.081   .     S
C713   N742    1.365   .     A
C714   H721    1.080   .     S
Cu715  O745    1.959   .     S
Cu715  N742    2.026   .     S
Cu715  O757    1.966   .     S
Cu715  O754    1.971   .     S
Cu715  Cu716   2.696   .     S
Cu715  O753    1.946   .     S
Cu716  O756    1.966   .     S
Cu716  O752    1.946   .     S
Cu716  N741    2.026   .     S
Cu716  O755    1.971   .     S
Cu716  O751    1.959   .     S
H723   N895    1.032   1_455 S
H725   C858    1.110   1_455 S
H727   N820    1.032   .     S
H731   C784    1.110   .     S
H732   O747    0.991   .     S
H733   O750    0.991   .     S
N743   H799    1.032   .     S
N743   C767    1.431   .     S
N744   H879    1.032   1_455 S
N744   C844    1.430   1_455 S
O746   S759    1.503   .     D
O747   S759    1.677   .     S
O748   S760    1.501   .     D
O749   S760    1.504   .     D
O750   S760    1.675   .     S
O758   S759    1.504   .     D
C761   O828    1.295   .     A
C761   O821    1.305   .     A
C761   C774    1.461   .     S
C762   C789    1.414   .     A
C762   C764    1.418   .     A
C762   H798    1.080   .     S
C763   C783    1.386   .     A
C763   C790    1.418   .     A
C764   C785    1.387   .     A
C764   C307    1.523   1_556 S
C765   O832    1.293   .     A
C765   C767    1.438   .     S
C765   O830    1.291   .     A
C766   O831    1.289   .     A
C766   C768    1.439   .     S
C766   O833    1.295   .     A
C768   C843    1.352   .     S
C768   N896    1.430   .     S
C769   H793    1.082   .     S
C769   C780    1.406   .     A
C769   C771    1.392   .     A
C770   C781    1.407   .     A
C770   H804    1.082   .     S
C770   C773    1.390   .     A
C771   C774    1.399   .     A
C771   H810    1.081   .     S
C772   O829    1.293   .     A
C772   O827    1.299   .     A
C772   C775    1.446   .     S
C773   H811    1.084   .     S
C773   C775    1.396   .     A
C774   C776    1.403   .     A
C775   C777    1.397   .     A
C776   H812    1.083   .     S
C776   C778    1.388   .     A
C777   H813    1.084   .     S
C777   C779    1.390   .     A
C778   C780    1.403   .     A
C778   H814    1.083   .     S
C779   C781    1.405   .     A
C779   H815    1.082   .     S
C781   C552    1.473   1_565 S
C782   H800    1.110   .     S
C782   N819    1.448   .     S
C782   H802    1.109   .     S
C782   H877    1.110   .     S
C783   C786    1.404   .     A
C783   H816    1.079   .     S
C784   H805    1.110   .     S
C784   N820    1.447   .     S
C784   H806    1.109   .     S
C785   H794    1.078   .     S
C785   C787    1.405   .     A
C786   S835    1.792   .     S
C786   N817    1.399   .     A
C787   N818    1.397   .     A
C787   S836    1.796   .     S
C788   N817    1.367   .     A
C788   H795    1.081   .     S
C788   C790    1.415   .     A
C789   H796    1.081   .     S
C789   N818    1.365   .     A
C790   H797    1.080   .     S
Cu791  O821    1.959   .     S
Cu791  N818    2.026   .     S
Cu791  O833    1.966   .     S
Cu791  O830    1.971   .     S
Cu791  Cu792   2.696   .     S
Cu791  O829    1.946   .     S
Cu792  O832    1.966   .     S
Cu792  O828    1.946   .     S
Cu792  N817    2.026   .     S
Cu792  O831    1.971   .     S
Cu792  O827    1.959   .     S
H803   N896    1.032   .     S
H807   C860    1.110   .     S
H808   O823    0.991   .     S
H809   O826    0.991   .     S
N819   H875    1.032   .     S
N819   C843    1.431   .     S
O822   S835    1.503   .     D
O823   S835    1.677   .     S
O824   S836    1.501   .     D
O825   S836    1.504   .     D
O826   S836    1.675   .     S
O834   S835    1.504   .     D
C837   O904    1.295   .     A
C837   O897    1.305   .     A
C837   C850    1.461   .     S
C838   C865    1.414   .     A
C838   C840    1.418   .     A
C838   H874    1.080   .     S
C839   C859    1.386   .     A
C839   C866    1.418   .     A
C840   C861    1.387   .     A
C840   C383    1.523   1_556 S
C841   O908    1.293   .     A
C841   C843    1.438   .     S
C841   O906    1.291   .     A
C842   O907    1.289   .     A
C842   C844    1.439   .     S
C842   O909    1.295   .     A
C844   C691    1.352   1_655 S
C844   N744    1.430   1_655 S
C845   H869    1.082   .     S
C845   C856    1.406   .     A
C845   C847    1.392   .     A
C846   C857    1.407   .     A
C846   H880    1.082   .     S
C846   C849    1.390   .     A
C847   C850    1.399   .     A
C847   H886    1.081   .     S
C848   O905    1.293   .     A
C848   O903    1.299   .     A
C848   C851    1.446   .     S
C849   H887    1.084   .     S
C849   C851    1.396   .     A
C850   C852    1.403   .     A
C851   C853    1.397   .     A
C852   H888    1.083   .     S
C852   C854    1.388   .     A
C853   H889    1.084   .     S
C853   C855    1.390   .     A
C854   C856    1.403   .     A
C854   H890    1.083   .     S
C855   C857    1.405   .     A
C855   H891    1.082   .     S
C857   C628    1.473   1_565 S
C858   H876    1.110   .     S
C858   N895    1.448   .     S
C858   H878    1.109   .     S
C858   H725    1.110   1_655 S
C859   C862    1.404   .     A
C859   H892    1.079   .     S
C860   H881    1.110   .     S
C860   N896    1.447   .     S
C860   H882    1.109   .     S
C861   H870    1.078   .     S
C861   C863    1.405   .     A
C862   S911    1.792   .     S
C862   N893    1.399   .     A
C863   N894    1.397   .     A
C863   S912    1.796   .     S
C864   N893    1.367   .     A
C864   H871    1.081   .     S
C864   C866    1.415   .     A
C865   H872    1.081   .     S
C865   N894    1.365   .     A
C866   H873    1.080   .     S
Cu867  O897    1.959   .     S
Cu867  N894    2.026   .     S
Cu867  O909    1.966   .     S
Cu867  O906    1.971   .     S
Cu867  Cu868   2.696   .     S
Cu867  O905    1.946   .     S
Cu868  O908    1.966   .     S
Cu868  O904    1.946   .     S
Cu868  N893    2.026   .     S
Cu868  O907    1.971   .     S
Cu868  O903    1.959   .     S
H879   N744    1.032   1_655 S
H883   C708    1.110   1_655 S
H884   O899    0.991   .     S
H885   O902    0.991   .     S
N895   H723    1.032   1_655 S
N895   C691    1.431   1_655 S
O898   S911    1.503   .     D
O899   S911    1.677   .     S
O900   S912    1.501   .     D
O901   S912    1.504   .     D
O902   S912    1.675   .     S
O910   S911    1.504   .     D
