data_str_m3_o1_o18_pcu_sym.12
_audit_creation_date              2020-01-03
_audit_creation_method            'Materials Studio'
_symmetry_space_group_name_H-M    'P1'
_symmetry_Int_Tables_number       1
_symmetry_cell_setting            triclinic
loop_
_symmetry_equiv_pos_as_xyz
  x,y,z
_cell_length_a                    29.7491
_cell_length_b                    32.1795
_cell_length_c                    30.4672
_cell_angle_alpha                 89.4488
_cell_angle_beta                  75.0929
_cell_angle_gamma                 89.1912
loop_
_atom_site_label
_atom_site_type_symbol
_atom_site_fract_x
_atom_site_fract_y
_atom_site_fract_z
_atom_site_U_iso_or_equiv
_atom_site_adp_type
_atom_site_occupancy
C1     C     0.16652   0.24661   0.24944   0.00000  Uiso   1.00
C2     C     0.13089   0.31326   0.23571   0.00000  Uiso   1.00
C3     C     0.16794   0.04256   0.24899   0.00000  Uiso   1.00
C4     C     0.16645   0.29081   0.24844   0.00000  Uiso   1.00
C5     C     0.31720   0.13917   0.22387   0.00000  Uiso   1.00
C6     C     0.01608   0.19385   0.27650   0.00000  Uiso   1.00
C7     C     0.03154   0.13945   0.22381   0.00000  Uiso   1.00
C8     C     0.30178   0.19378   0.27632   0.00000  Uiso   1.00
C9     C     0.13990   0.15855   0.33539   0.00000  Uiso   1.00
C10    C     0.19397   0.16749   0.16249   0.00000  Uiso   1.00
C11    C     0.12795   0.13570   0.37842   0.00000  Uiso   1.00
C12    C     0.16711   0.08673   0.24964   0.00000  Uiso   1.00
C13    C     0.20598   0.16111   0.11339   0.00000  Uiso   1.00
C14    C     0.06380   0.10589   0.43422   0.00000  Uiso   1.00
C15    C     0.26342   0.13909   0.04638   0.00000  Uiso   1.00
C16    C     0.08802   0.11154   0.38850   0.00000  Uiso   1.00
C17    C     0.25282   0.15774   0.08877   0.00000  Uiso   1.00
C18    C     0.15581   0.13493   0.40892   0.00000  Uiso   1.00
C19    C     0.17022   0.15276   0.09158   0.00000  Uiso   1.00
C20    C     0.13773   0.11666   0.45193   0.00000  Uiso   1.00
C21    C     0.18084   0.12891   0.05164   0.00000  Uiso   1.00
C22    C     0.08977   0.10837   0.46744   0.00000  Uiso   1.00
C23    C     0.09932   0.10995   0.04543   0.00000  Uiso   1.00
C24    C     0.22823   0.11889   0.03191   0.00000  Uiso   1.00
C25    C     0.16585   0.10943   0.48114   0.00000  Uiso   1.00
C26    C     0.14775   0.11738   0.02744   0.00000  Uiso   1.00
C27    C     0.03498   0.03952   0.02911   0.00000  Uiso   1.00
C28    C     0.25911   0.02786   0.01937   0.00000  Uiso   1.00
C29    C     0.12109   0.20643   0.08848   0.00000  Uiso   1.00
C30    C     0.20010   0.19059   0.41468   0.00000  Uiso   1.00
C31    C     0.32574   0.11945   0.41734   0.00000  Uiso   1.00
C32    C     0.31123   0.18420   0.49893   0.00000  Uiso   1.00
C33    C     0.09838   0.07131   0.10984   0.00000  Uiso   1.00
C34    C     0.20930   0.08912   0.46722   0.00000  Uiso   1.00
C35    C     0.19128   0.03164   0.43132   0.00000  Uiso   1.00
C36    C     0.23480   0.04227   0.31689   0.00000  Uiso   1.00
C37    C     0.10542   0.29064   0.17629   0.00000  Uiso   1.00
C38    C     0.07170   0.10114   0.01486   0.00000  Uiso   1.00
C39    C     0.23861   0.09046   0.49614   0.00000  Uiso   1.00
C40    C     0.20325   0.31085   0.25976   0.00000  Uiso   1.00
C41    C     0.13150   0.02255   0.23697   0.00000  Uiso   1.00
C42    C     0.20421   0.02010   0.26045   0.00000  Uiso   1.00
Cl43   Cl    0.29949   0.17718   0.10869   0.00000  Uiso   1.00
Cl44   Cl    0.07131   0.08466   0.34481   0.00000  Uiso   1.00
Cl45   Cl    0.29969   0.10225   0.18985   0.00000  Uiso   1.00
Cl46   Cl    0.03343   0.22954   0.31188   0.00000  Uiso   1.00
H47    H     0.23132   0.29366   0.26860   0.00000  Uiso   1.00
H48    H     0.22622   0.01515   0.01431   0.00000  Uiso   1.00
H49    H     0.12465   0.20271   0.05146   0.00000  Uiso   1.00
H50    H     0.14680   0.22923   0.09411   0.00000  Uiso   1.00
H51    H     0.08579   0.21927   0.10375   0.00000  Uiso   1.00
H52    H     0.19100   0.18975   0.45244   0.00000  Uiso   1.00
H53    H     0.17592   0.21187   0.40259   0.00000  Uiso   1.00
H54    H     0.23557   0.20356   0.40291   0.00000  Uiso   1.00
H55    H     0.01078   0.14694   0.39896   0.00000  Uiso   1.00
H56    H     0.29257   0.13259   0.43716   0.00000  Uiso   1.00
H57    H     0.31680   0.09717   0.39344   0.00000  Uiso   1.00
H58    H     0.10364   0.03980   0.22781   0.00000  Uiso   1.00
H59    H     0.31195   0.20815   0.02466   0.00000  Uiso   1.00
H60    H     0.28269   0.19177   0.48251   0.00000  Uiso   1.00
H61    H     0.01136   0.18635   0.47260   0.00000  Uiso   1.00
H62    H     0.12368   0.08214   0.12822   0.00000  Uiso   1.00
H63    H     0.11561   0.04763   0.08431   0.00000  Uiso   1.00
H64    H     0.07002   0.05551   0.13502   0.00000  Uiso   1.00
H65    H     0.17428   0.02163   0.46680   0.00000  Uiso   1.00
H66    H     0.21123   0.00442   0.41411   0.00000  Uiso   1.00
H67    H     0.16406   0.03960   0.41354   0.00000  Uiso   1.00
H68    H     0.20223   0.05992   0.33255   0.00000  Uiso   1.00
H69    H     0.05567   0.11768   0.20290   0.00000  Uiso   1.00
H70    H     0.26413   0.05948   0.32410   0.00000  Uiso   1.00
H71    H     0.23421   0.01089   0.33262   0.00000  Uiso   1.00
H72    H     0.07670   0.27433   0.16686   0.00000  Uiso   1.00
H73    H     0.13785   0.27200   0.16321   0.00000  Uiso   1.00
H74    H     0.10872   0.32179   0.15968   0.00000  Uiso   1.00
H75    H     0.27763   0.21542   0.29743   0.00000  Uiso   1.00
H76    H     0.03543   0.02874   0.49447   0.00000  Uiso   1.00
H77    H     0.00540   0.02492   0.05385   0.00000  Uiso   1.00
H78    H     0.06704   0.02814   0.03806   0.00000  Uiso   1.00
H79    H     0.25433   0.03606   0.05569   0.00000  Uiso   1.00
H80    H     0.28550   0.00255   0.01075   0.00000  Uiso   1.00
N81    N     0.04759   0.16668   0.25001   0.00000  Uiso   1.00
N82    N     0.28574   0.16666   0.24999   0.00000  Uiso   1.00
O83    O     0.12846   0.22775   0.25001   0.00000  Uiso   1.00
O84    O     0.27501   0.06243   0.49104   0.00000  Uiso   1.00
O85    O     0.12562   0.16794   0.10952   0.00000  Uiso   1.00
O86    O     0.20054   0.15044   0.39641   0.00000  Uiso   1.00
O87    O     0.01632   0.09830   0.44631   0.00000  Uiso   1.00
O88    O     0.30723   0.14349   0.01761   0.00000  Uiso   1.00
O89    O     0.07898   0.10573   0.09159   0.00000  Uiso   1.00
O90    O     0.22211   0.06531   0.42820   0.00000  Uiso   1.00
O91    O     0.24212   0.03935   0.26949   0.00000  Uiso   1.00
O92    O     0.09443   0.29398   0.22397   0.00000  Uiso   1.00
O93    O     0.20488   0.10558   0.25000   0.00000  Uiso   1.00
O94    O     0.20490   0.22774   0.25000   0.00000  Uiso   1.00
O95    O     0.12843   0.10559   0.25000   0.00000  Uiso   1.00
O96    O     0.10661   0.16667   0.31613   0.00000  Uiso   1.00
O97    O     0.22672   0.16666   0.18388   0.00000  Uiso   1.00
O98    O     0.18305   0.16666   0.31612   0.00000  Uiso   1.00
O99    O     0.15028   0.16667   0.18388   0.00000  Uiso   1.00
O100   O     0.02890   0.08312   0.03184   0.00000  Uiso   1.00
Zn101  Zn    0.11562   0.16667   0.25000   0.00000  Uiso   1.00
Zn102  Zn    0.21771   0.16666   0.25000   0.00000  Uiso   1.00
C103   C     0.49985   0.24661   0.24944   0.00000  Uiso   1.00
C104   C     0.46423   0.31326   0.23571   0.00000  Uiso   1.00
C105   C     0.50127   0.04256   0.24899   0.00000  Uiso   1.00
C106   C     0.49978   0.29081   0.24844   0.00000  Uiso   1.00
C107   C     0.65053   0.13917   0.22387   0.00000  Uiso   1.00
C108   C     0.34942   0.19385   0.27650   0.00000  Uiso   1.00
C109   C     0.36488   0.13945   0.22381   0.00000  Uiso   1.00
C110   C     0.63512   0.19378   0.27632   0.00000  Uiso   1.00
C111   C     0.47324   0.15855   0.33539   0.00000  Uiso   1.00
C112   C     0.52731   0.16749   0.16249   0.00000  Uiso   1.00
C113   C     0.46128   0.13570   0.37842   0.00000  Uiso   1.00
C114   C     0.50045   0.08673   0.24964   0.00000  Uiso   1.00
C115   C     0.53931   0.16111   0.11339   0.00000  Uiso   1.00
C116   C     0.39713   0.10589   0.43422   0.00000  Uiso   1.00
C117   C     0.59675   0.13909   0.04638   0.00000  Uiso   1.00
C118   C     0.42135   0.11154   0.38850   0.00000  Uiso   1.00
C119   C     0.58616   0.15774   0.08877   0.00000  Uiso   1.00
C120   C     0.48915   0.13493   0.40892   0.00000  Uiso   1.00
C121   C     0.50355   0.15276   0.09158   0.00000  Uiso   1.00
C122   C     0.47106   0.11666   0.45193   0.00000  Uiso   1.00
C123   C     0.51418   0.12891   0.05164   0.00000  Uiso   1.00
C124   C     0.42310   0.10837   0.46744   0.00000  Uiso   1.00
C125   C     0.43265   0.10995   0.04543   0.00000  Uiso   1.00
C126   C     0.56156   0.11889   0.03191   0.00000  Uiso   1.00
C127   C     0.49919   0.10943   0.48114   0.00000  Uiso   1.00
C128   C     0.48109   0.11738   0.02744   0.00000  Uiso   1.00
C129   C     0.36831   0.03952   0.02911   0.00000  Uiso   1.00
C130   C     0.59244   0.02786   0.01937   0.00000  Uiso   1.00
C131   C     0.45442   0.20643   0.08848   0.00000  Uiso   1.00
C132   C     0.53344   0.19059   0.41468   0.00000  Uiso   1.00
C133   C     0.65907   0.11945   0.41734   0.00000  Uiso   1.00
C134   C     0.64456   0.18420   0.49893   0.00000  Uiso   1.00
C135   C     0.43171   0.07131   0.10984   0.00000  Uiso   1.00
C136   C     0.54263   0.08912   0.46722   0.00000  Uiso   1.00
C137   C     0.52461   0.03164   0.43132   0.00000  Uiso   1.00
C138   C     0.56813   0.04227   0.31689   0.00000  Uiso   1.00
C139   C     0.43876   0.29064   0.17629   0.00000  Uiso   1.00
C140   C     0.40503   0.10114   0.01486   0.00000  Uiso   1.00
C141   C     0.57194   0.09046   0.49614   0.00000  Uiso   1.00
C142   C     0.53658   0.31085   0.25976   0.00000  Uiso   1.00
C143   C     0.46484   0.02255   0.23697   0.00000  Uiso   1.00
C144   C     0.53755   0.02010   0.26045   0.00000  Uiso   1.00
Cl145  Cl    0.63282   0.17718   0.10869   0.00000  Uiso   1.00
Cl146  Cl    0.40465   0.08466   0.34481   0.00000  Uiso   1.00
Cl147  Cl    0.63303   0.10225   0.18985   0.00000  Uiso   1.00
Cl148  Cl    0.36676   0.22954   0.31188   0.00000  Uiso   1.00
H149   H     0.56465   0.29366   0.26860   0.00000  Uiso   1.00
H150   H     0.55956   0.01515   0.01431   0.00000  Uiso   1.00
H151   H     0.45798   0.20271   0.05146   0.00000  Uiso   1.00
H152   H     0.48014   0.22923   0.09411   0.00000  Uiso   1.00
H153   H     0.41912   0.21927   0.10375   0.00000  Uiso   1.00
H154   H     0.52433   0.18975   0.45244   0.00000  Uiso   1.00
H155   H     0.50925   0.21187   0.40259   0.00000  Uiso   1.00
H156   H     0.56890   0.20356   0.40291   0.00000  Uiso   1.00
H157   H     0.34411   0.14694   0.39896   0.00000  Uiso   1.00
H158   H     0.62591   0.13259   0.43716   0.00000  Uiso   1.00
H159   H     0.65013   0.09717   0.39344   0.00000  Uiso   1.00
H160   H     0.43698   0.03980   0.22781   0.00000  Uiso   1.00
H161   H     0.64528   0.20815   0.02466   0.00000  Uiso   1.00
H162   H     0.61602   0.19177   0.48251   0.00000  Uiso   1.00
H163   H     0.34470   0.18635   0.47260   0.00000  Uiso   1.00
H164   H     0.45702   0.08214   0.12822   0.00000  Uiso   1.00
H165   H     0.44895   0.04763   0.08431   0.00000  Uiso   1.00
H166   H     0.40335   0.05551   0.13502   0.00000  Uiso   1.00
H167   H     0.50761   0.02163   0.46680   0.00000  Uiso   1.00
H168   H     0.54457   0.00442   0.41411   0.00000  Uiso   1.00
H169   H     0.49739   0.03960   0.41354   0.00000  Uiso   1.00
H170   H     0.53557   0.05992   0.33255   0.00000  Uiso   1.00
H171   H     0.38900   0.11768   0.20290   0.00000  Uiso   1.00
H172   H     0.59746   0.05948   0.32410   0.00000  Uiso   1.00
H173   H     0.56755   0.01089   0.33262   0.00000  Uiso   1.00
H174   H     0.41003   0.27433   0.16686   0.00000  Uiso   1.00
H175   H     0.47118   0.27200   0.16321   0.00000  Uiso   1.00
H176   H     0.44205   0.32179   0.15968   0.00000  Uiso   1.00
H177   H     0.61096   0.21542   0.29743   0.00000  Uiso   1.00
H178   H     0.36876   0.02874   0.49447   0.00000  Uiso   1.00
H179   H     0.33873   0.02492   0.05385   0.00000  Uiso   1.00
H180   H     0.40038   0.02814   0.03806   0.00000  Uiso   1.00
H181   H     0.58766   0.03606   0.05569   0.00000  Uiso   1.00
H182   H     0.61884   0.00255   0.01075   0.00000  Uiso   1.00
N183   N     0.38093   0.16668   0.25001   0.00000  Uiso   1.00
N184   N     0.61907   0.16666   0.24999   0.00000  Uiso   1.00
O185   O     0.46179   0.22775   0.25001   0.00000  Uiso   1.00
O186   O     0.60835   0.06243   0.49104   0.00000  Uiso   1.00
O187   O     0.45896   0.16794   0.10952   0.00000  Uiso   1.00
O188   O     0.53388   0.15044   0.39641   0.00000  Uiso   1.00
O189   O     0.34965   0.09830   0.44631   0.00000  Uiso   1.00
O190   O     0.64056   0.14349   0.01761   0.00000  Uiso   1.00
O191   O     0.41231   0.10573   0.09159   0.00000  Uiso   1.00
O192   O     0.55545   0.06531   0.42820   0.00000  Uiso   1.00
O193   O     0.57545   0.03935   0.26949   0.00000  Uiso   1.00
O194   O     0.42777   0.29398   0.22397   0.00000  Uiso   1.00
O195   O     0.53821   0.10558   0.25000   0.00000  Uiso   1.00
O196   O     0.53823   0.22774   0.25000   0.00000  Uiso   1.00
O197   O     0.46177   0.10559   0.25000   0.00000  Uiso   1.00
O198   O     0.43994   0.16667   0.31613   0.00000  Uiso   1.00
O199   O     0.56006   0.16666   0.18388   0.00000  Uiso   1.00
O200   O     0.51639   0.16666   0.31612   0.00000  Uiso   1.00
O201   O     0.48361   0.16667   0.18388   0.00000  Uiso   1.00
O202   O     0.36224   0.08312   0.03184   0.00000  Uiso   1.00
Zn203  Zn    0.44896   0.16667   0.25000   0.00000  Uiso   1.00
Zn204  Zn    0.55104   0.16666   0.25000   0.00000  Uiso   1.00
C205   C     0.83318   0.24661   0.24944   0.00000  Uiso   1.00
C206   C     0.79756   0.31326   0.23571   0.00000  Uiso   1.00
C207   C     0.83460   0.04256   0.24899   0.00000  Uiso   1.00
C208   C     0.83311   0.29081   0.24844   0.00000  Uiso   1.00
C209   C     0.98386   0.13917   0.22387   0.00000  Uiso   1.00
C210   C     0.68275   0.19385   0.27650   0.00000  Uiso   1.00
C211   C     0.69821   0.13945   0.22381   0.00000  Uiso   1.00
C212   C     0.96845   0.19378   0.27632   0.00000  Uiso   1.00
C213   C     0.80657   0.15855   0.33539   0.00000  Uiso   1.00
C214   C     0.86064   0.16749   0.16249   0.00000  Uiso   1.00
C215   C     0.79461   0.13570   0.37842   0.00000  Uiso   1.00
C216   C     0.83378   0.08673   0.24964   0.00000  Uiso   1.00
C217   C     0.87264   0.16111   0.11339   0.00000  Uiso   1.00
C218   C     0.73046   0.10589   0.43422   0.00000  Uiso   1.00
C219   C     0.93009   0.13909   0.04638   0.00000  Uiso   1.00
C220   C     0.75469   0.11154   0.38850   0.00000  Uiso   1.00
C221   C     0.91949   0.15774   0.08877   0.00000  Uiso   1.00
C222   C     0.82248   0.13493   0.40892   0.00000  Uiso   1.00
C223   C     0.83689   0.15276   0.09158   0.00000  Uiso   1.00
C224   C     0.80440   0.11666   0.45193   0.00000  Uiso   1.00
C225   C     0.84751   0.12891   0.05164   0.00000  Uiso   1.00
C226   C     0.75643   0.10837   0.46744   0.00000  Uiso   1.00
C227   C     0.76599   0.10995   0.04543   0.00000  Uiso   1.00
C228   C     0.89490   0.11889   0.03191   0.00000  Uiso   1.00
C229   C     0.83252   0.10943   0.48114   0.00000  Uiso   1.00
C230   C     0.81442   0.11738   0.02744   0.00000  Uiso   1.00
C231   C     0.70165   0.03952   0.02911   0.00000  Uiso   1.00
C232   C     0.92577   0.02786   0.01937   0.00000  Uiso   1.00
C233   C     0.78776   0.20643   0.08848   0.00000  Uiso   1.00
C234   C     0.86677   0.19059   0.41468   0.00000  Uiso   1.00
C235   C     0.99241   0.11945   0.41734   0.00000  Uiso   1.00
C236   C     0.97789   0.18420   0.49893   0.00000  Uiso   1.00
C237   C     0.76504   0.07131   0.10984   0.00000  Uiso   1.00
C238   C     0.87597   0.08912   0.46722   0.00000  Uiso   1.00
C239   C     0.85794   0.03164   0.43132   0.00000  Uiso   1.00
C240   C     0.90146   0.04227   0.31689   0.00000  Uiso   1.00
C241   C     0.77209   0.29064   0.17629   0.00000  Uiso   1.00
C242   C     0.73836   0.10114   0.01486   0.00000  Uiso   1.00
C243   C     0.90527   0.09046   0.49614   0.00000  Uiso   1.00
C244   C     0.86991   0.31085   0.25976   0.00000  Uiso   1.00
C245   C     0.79817   0.02255   0.23697   0.00000  Uiso   1.00
C246   C     0.87088   0.02010   0.26045   0.00000  Uiso   1.00
Cl247  Cl    0.96615   0.17718   0.10869   0.00000  Uiso   1.00
Cl248  Cl    0.73798   0.08466   0.34481   0.00000  Uiso   1.00
Cl249  Cl    0.96636   0.10225   0.18985   0.00000  Uiso   1.00
Cl250  Cl    0.70010   0.22954   0.31188   0.00000  Uiso   1.00
H251   H     0.89799   0.29366   0.26860   0.00000  Uiso   1.00
H252   H     0.89289   0.01515   0.01431   0.00000  Uiso   1.00
H253   H     0.79132   0.20271   0.05146   0.00000  Uiso   1.00
H254   H     0.81347   0.22923   0.09411   0.00000  Uiso   1.00
H255   H     0.75246   0.21927   0.10375   0.00000  Uiso   1.00
H256   H     0.85767   0.18975   0.45244   0.00000  Uiso   1.00
H257   H     0.84258   0.21187   0.40259   0.00000  Uiso   1.00
H258   H     0.90224   0.20356   0.40291   0.00000  Uiso   1.00
H259   H     0.67744   0.14694   0.39896   0.00000  Uiso   1.00
H260   H     0.95924   0.13259   0.43716   0.00000  Uiso   1.00
H261   H     0.98346   0.09717   0.39344   0.00000  Uiso   1.00
H262   H     0.77031   0.03980   0.22781   0.00000  Uiso   1.00
H263   H     0.97862   0.20815   0.02466   0.00000  Uiso   1.00
H264   H     0.94935   0.19177   0.48251   0.00000  Uiso   1.00
H265   H     0.67803   0.18635   0.47260   0.00000  Uiso   1.00
H266   H     0.79035   0.08214   0.12822   0.00000  Uiso   1.00
H267   H     0.78228   0.04763   0.08431   0.00000  Uiso   1.00
H268   H     0.73669   0.05551   0.13502   0.00000  Uiso   1.00
H269   H     0.84094   0.02163   0.46680   0.00000  Uiso   1.00
H270   H     0.87790   0.00442   0.41411   0.00000  Uiso   1.00
H271   H     0.83073   0.03960   0.41354   0.00000  Uiso   1.00
H272   H     0.86890   0.05992   0.33255   0.00000  Uiso   1.00
H273   H     0.72233   0.11768   0.20290   0.00000  Uiso   1.00
H274   H     0.93080   0.05948   0.32410   0.00000  Uiso   1.00
H275   H     0.90088   0.01089   0.33262   0.00000  Uiso   1.00
H276   H     0.74337   0.27433   0.16686   0.00000  Uiso   1.00
H277   H     0.80451   0.27200   0.16321   0.00000  Uiso   1.00
H278   H     0.77539   0.32179   0.15968   0.00000  Uiso   1.00
H279   H     0.94430   0.21542   0.29743   0.00000  Uiso   1.00
H280   H     0.70209   0.02874   0.49447   0.00000  Uiso   1.00
H281   H     0.67207   0.02492   0.05385   0.00000  Uiso   1.00
H282   H     0.73371   0.02814   0.03806   0.00000  Uiso   1.00
H283   H     0.92100   0.03606   0.05569   0.00000  Uiso   1.00
H284   H     0.95217   0.00255   0.01075   0.00000  Uiso   1.00
N285   N     0.71426   0.16668   0.25001   0.00000  Uiso   1.00
N286   N     0.95241   0.16666   0.24999   0.00000  Uiso   1.00
O287   O     0.79512   0.22775   0.25001   0.00000  Uiso   1.00
O288   O     0.94168   0.06243   0.49104   0.00000  Uiso   1.00
O289   O     0.79229   0.16794   0.10952   0.00000  Uiso   1.00
O290   O     0.86721   0.15044   0.39641   0.00000  Uiso   1.00
O291   O     0.68298   0.09830   0.44631   0.00000  Uiso   1.00
O292   O     0.97390   0.14349   0.01761   0.00000  Uiso   1.00
O293   O     0.74564   0.10573   0.09159   0.00000  Uiso   1.00
O294   O     0.88878   0.06531   0.42820   0.00000  Uiso   1.00
O295   O     0.90878   0.03935   0.26949   0.00000  Uiso   1.00
O296   O     0.76110   0.29398   0.22397   0.00000  Uiso   1.00
O297   O     0.87154   0.10558   0.25000   0.00000  Uiso   1.00
O298   O     0.87157   0.22774   0.25000   0.00000  Uiso   1.00
O299   O     0.79510   0.10559   0.25000   0.00000  Uiso   1.00
O300   O     0.77328   0.16667   0.31613   0.00000  Uiso   1.00
O301   O     0.89339   0.16666   0.18388   0.00000  Uiso   1.00
O302   O     0.84972   0.16666   0.31612   0.00000  Uiso   1.00
O303   O     0.81695   0.16667   0.18388   0.00000  Uiso   1.00
O304   O     0.69557   0.08312   0.03184   0.00000  Uiso   1.00
Zn305  Zn    0.78229   0.16667   0.25000   0.00000  Uiso   1.00
Zn306  Zn    0.88438   0.16666   0.25000   0.00000  Uiso   1.00
C307   C     0.16652   0.57994   0.24944   0.00000  Uiso   1.00
C308   C     0.13089   0.64659   0.23571   0.00000  Uiso   1.00
C309   C     0.16794   0.37589   0.24899   0.00000  Uiso   1.00
C310   C     0.16645   0.62414   0.24844   0.00000  Uiso   1.00
C311   C     0.31720   0.47250   0.22387   0.00000  Uiso   1.00
C312   C     0.01608   0.52718   0.27650   0.00000  Uiso   1.00
C313   C     0.03154   0.47278   0.22381   0.00000  Uiso   1.00
C314   C     0.30178   0.52711   0.27632   0.00000  Uiso   1.00
C315   C     0.13990   0.49188   0.33539   0.00000  Uiso   1.00
C316   C     0.19397   0.50082   0.16249   0.00000  Uiso   1.00
C317   C     0.12795   0.46903   0.37842   0.00000  Uiso   1.00
C318   C     0.16711   0.42006   0.24964   0.00000  Uiso   1.00
C319   C     0.20598   0.49444   0.11339   0.00000  Uiso   1.00
C320   C     0.06380   0.43922   0.43422   0.00000  Uiso   1.00
C321   C     0.26342   0.47243   0.04638   0.00000  Uiso   1.00
C322   C     0.08802   0.44487   0.38850   0.00000  Uiso   1.00
C323   C     0.25282   0.49108   0.08877   0.00000  Uiso   1.00
C324   C     0.15581   0.46827   0.40892   0.00000  Uiso   1.00
C325   C     0.17022   0.48609   0.09158   0.00000  Uiso   1.00
C326   C     0.13773   0.45000   0.45193   0.00000  Uiso   1.00
C327   C     0.18084   0.46224   0.05164   0.00000  Uiso   1.00
C328   C     0.08977   0.44170   0.46744   0.00000  Uiso   1.00
C329   C     0.09932   0.44328   0.04543   0.00000  Uiso   1.00
C330   C     0.22823   0.45222   0.03191   0.00000  Uiso   1.00
C331   C     0.16585   0.44277   0.48114   0.00000  Uiso   1.00
C332   C     0.14775   0.45071   0.02744   0.00000  Uiso   1.00
C333   C     0.03498   0.37285   0.02911   0.00000  Uiso   1.00
C334   C     0.25911   0.36119   0.01937   0.00000  Uiso   1.00
C335   C     0.12109   0.53976   0.08848   0.00000  Uiso   1.00
C336   C     0.20010   0.52393   0.41468   0.00000  Uiso   1.00
C337   C     0.32574   0.45278   0.41734   0.00000  Uiso   1.00
C338   C     0.31123   0.51753   0.49893   0.00000  Uiso   1.00
C339   C     0.09838   0.40464   0.10984   0.00000  Uiso   1.00
C340   C     0.20930   0.42246   0.46722   0.00000  Uiso   1.00
C341   C     0.19128   0.36497   0.43132   0.00000  Uiso   1.00
C342   C     0.23480   0.37560   0.31689   0.00000  Uiso   1.00
C343   C     0.10542   0.62397   0.17629   0.00000  Uiso   1.00
C344   C     0.07170   0.43447   0.01486   0.00000  Uiso   1.00
C345   C     0.23861   0.42379   0.49614   0.00000  Uiso   1.00
C346   C     0.20325   0.64418   0.25976   0.00000  Uiso   1.00
C347   C     0.13150   0.35588   0.23697   0.00000  Uiso   1.00
C348   C     0.20421   0.35343   0.26045   0.00000  Uiso   1.00
Cl349  Cl    0.29949   0.51051   0.10869   0.00000  Uiso   1.00
Cl350  Cl    0.07131   0.41800   0.34481   0.00000  Uiso   1.00
Cl351  Cl    0.29969   0.43558   0.18985   0.00000  Uiso   1.00
Cl352  Cl    0.03343   0.56288   0.31188   0.00000  Uiso   1.00
H353   H     0.23132   0.62699   0.26860   0.00000  Uiso   1.00
H354   H     0.22622   0.34848   0.01431   0.00000  Uiso   1.00
H355   H     0.12465   0.53605   0.05146   0.00000  Uiso   1.00
H356   H     0.14680   0.56257   0.09411   0.00000  Uiso   1.00
H357   H     0.08579   0.55260   0.10375   0.00000  Uiso   1.00
H358   H     0.19100   0.52308   0.45244   0.00000  Uiso   1.00
H359   H     0.17592   0.54521   0.40259   0.00000  Uiso   1.00
H360   H     0.23557   0.53689   0.40291   0.00000  Uiso   1.00
H361   H     0.01078   0.48027   0.39896   0.00000  Uiso   1.00
H362   H     0.29257   0.46592   0.43716   0.00000  Uiso   1.00
H363   H     0.31680   0.43051   0.39344   0.00000  Uiso   1.00
H364   H     0.10364   0.37313   0.22781   0.00000  Uiso   1.00
H365   H     0.31195   0.54148   0.02466   0.00000  Uiso   1.00
H366   H     0.28269   0.52511   0.48251   0.00000  Uiso   1.00
H367   H     0.01136   0.51969   0.47260   0.00000  Uiso   1.00
H368   H     0.12368   0.41548   0.12822   0.00000  Uiso   1.00
H369   H     0.11561   0.38096   0.08431   0.00000  Uiso   1.00
H370   H     0.07002   0.38884   0.13502   0.00000  Uiso   1.00
H371   H     0.17428   0.35497   0.46680   0.00000  Uiso   1.00
H372   H     0.21123   0.33776   0.41411   0.00000  Uiso   1.00
H373   H     0.16406   0.37293   0.41354   0.00000  Uiso   1.00
H374   H     0.20223   0.39325   0.33255   0.00000  Uiso   1.00
H375   H     0.05567   0.45101   0.20290   0.00000  Uiso   1.00
H376   H     0.26413   0.39281   0.32410   0.00000  Uiso   1.00
H377   H     0.23421   0.34423   0.33262   0.00000  Uiso   1.00
H378   H     0.07670   0.60766   0.16686   0.00000  Uiso   1.00
H379   H     0.13785   0.60533   0.16321   0.00000  Uiso   1.00
H380   H     0.10872   0.65512   0.15968   0.00000  Uiso   1.00
H381   H     0.27763   0.54875   0.29743   0.00000  Uiso   1.00
H382   H     0.03543   0.36208   0.49447   0.00000  Uiso   1.00
H383   H     0.00540   0.35825   0.05385   0.00000  Uiso   1.00
H384   H     0.06704   0.36148   0.03806   0.00000  Uiso   1.00
H385   H     0.25433   0.36939   0.05569   0.00000  Uiso   1.00
H386   H     0.28550   0.33589   0.01075   0.00000  Uiso   1.00
N387   N     0.04759   0.50001   0.25001   0.00000  Uiso   1.00
N388   N     0.28574   0.49999   0.24999   0.00000  Uiso   1.00
O389   O     0.12846   0.56108   0.25001   0.00000  Uiso   1.00
O390   O     0.27501   0.39577   0.49104   0.00000  Uiso   1.00
O391   O     0.12562   0.50127   0.10952   0.00000  Uiso   1.00
O392   O     0.20054   0.48377   0.39641   0.00000  Uiso   1.00
O393   O     0.01632   0.43163   0.44631   0.00000  Uiso   1.00
O394   O     0.30723   0.47682   0.01761   0.00000  Uiso   1.00
O395   O     0.07898   0.43906   0.09159   0.00000  Uiso   1.00
O396   O     0.22211   0.39865   0.42820   0.00000  Uiso   1.00
O397   O     0.24212   0.37269   0.26949   0.00000  Uiso   1.00
O398   O     0.09443   0.62731   0.22397   0.00000  Uiso   1.00
O399   O     0.20488   0.43892   0.25000   0.00000  Uiso   1.00
O400   O     0.20490   0.56107   0.25000   0.00000  Uiso   1.00
O401   O     0.12843   0.43893   0.25000   0.00000  Uiso   1.00
O402   O     0.10661   0.50001   0.31613   0.00000  Uiso   1.00
O403   O     0.22672   0.49999   0.18388   0.00000  Uiso   1.00
O404   O     0.18305   0.50000   0.31612   0.00000  Uiso   1.00
O405   O     0.15028   0.50000   0.18388   0.00000  Uiso   1.00
O406   O     0.02890   0.41646   0.03184   0.00000  Uiso   1.00
Zn407  Zn    0.11562   0.50001   0.25000   0.00000  Uiso   1.00
Zn408  Zn    0.21771   0.49999   0.25000   0.00000  Uiso   1.00
C409   C     0.49985   0.57994   0.24944   0.00000  Uiso   1.00
C410   C     0.46423   0.64659   0.23571   0.00000  Uiso   1.00
C411   C     0.50127   0.37589   0.24899   0.00000  Uiso   1.00
C412   C     0.49978   0.62414   0.24844   0.00000  Uiso   1.00
C413   C     0.65053   0.47250   0.22387   0.00000  Uiso   1.00
C414   C     0.34942   0.52718   0.27650   0.00000  Uiso   1.00
C415   C     0.36488   0.47278   0.22381   0.00000  Uiso   1.00
C416   C     0.63512   0.52711   0.27632   0.00000  Uiso   1.00
C417   C     0.47324   0.49188   0.33539   0.00000  Uiso   1.00
C418   C     0.52731   0.50082   0.16249   0.00000  Uiso   1.00
C419   C     0.46128   0.46903   0.37842   0.00000  Uiso   1.00
C420   C     0.50045   0.42006   0.24964   0.00000  Uiso   1.00
C421   C     0.53931   0.49444   0.11339   0.00000  Uiso   1.00
C422   C     0.39713   0.43922   0.43422   0.00000  Uiso   1.00
C423   C     0.59675   0.47243   0.04638   0.00000  Uiso   1.00
C424   C     0.42135   0.44487   0.38850   0.00000  Uiso   1.00
C425   C     0.58616   0.49108   0.08877   0.00000  Uiso   1.00
C426   C     0.48915   0.46827   0.40892   0.00000  Uiso   1.00
C427   C     0.50355   0.48609   0.09158   0.00000  Uiso   1.00
C428   C     0.47106   0.45000   0.45193   0.00000  Uiso   1.00
C429   C     0.51418   0.46224   0.05164   0.00000  Uiso   1.00
C430   C     0.42310   0.44170   0.46744   0.00000  Uiso   1.00
C431   C     0.43265   0.44328   0.04543   0.00000  Uiso   1.00
C432   C     0.56156   0.45222   0.03191   0.00000  Uiso   1.00
C433   C     0.49919   0.44277   0.48114   0.00000  Uiso   1.00
C434   C     0.48109   0.45071   0.02744   0.00000  Uiso   1.00
C435   C     0.36831   0.37285   0.02911   0.00000  Uiso   1.00
C436   C     0.59244   0.36119   0.01937   0.00000  Uiso   1.00
C437   C     0.45442   0.53976   0.08848   0.00000  Uiso   1.00
C438   C     0.53344   0.52393   0.41468   0.00000  Uiso   1.00
C439   C     0.65907   0.45278   0.41734   0.00000  Uiso   1.00
C440   C     0.64456   0.51753   0.49893   0.00000  Uiso   1.00
C441   C     0.43171   0.40464   0.10984   0.00000  Uiso   1.00
C442   C     0.54263   0.42246   0.46722   0.00000  Uiso   1.00
C443   C     0.52461   0.36497   0.43132   0.00000  Uiso   1.00
C444   C     0.56813   0.37560   0.31689   0.00000  Uiso   1.00
C445   C     0.43876   0.62397   0.17629   0.00000  Uiso   1.00
C446   C     0.40503   0.43447   0.01486   0.00000  Uiso   1.00
C447   C     0.57194   0.42379   0.49614   0.00000  Uiso   1.00
C448   C     0.53658   0.64418   0.25976   0.00000  Uiso   1.00
C449   C     0.46484   0.35588   0.23697   0.00000  Uiso   1.00
C450   C     0.53755   0.35343   0.26045   0.00000  Uiso   1.00
Cl451  Cl    0.63282   0.51051   0.10869   0.00000  Uiso   1.00
Cl452  Cl    0.40465   0.41800   0.34481   0.00000  Uiso   1.00
Cl453  Cl    0.63303   0.43558   0.18985   0.00000  Uiso   1.00
Cl454  Cl    0.36676   0.56288   0.31188   0.00000  Uiso   1.00
H455   H     0.56465   0.62699   0.26860   0.00000  Uiso   1.00
H456   H     0.55956   0.34848   0.01431   0.00000  Uiso   1.00
H457   H     0.45798   0.53605   0.05146   0.00000  Uiso   1.00
H458   H     0.48014   0.56257   0.09411   0.00000  Uiso   1.00
H459   H     0.41912   0.55260   0.10375   0.00000  Uiso   1.00
H460   H     0.52433   0.52308   0.45244   0.00000  Uiso   1.00
H461   H     0.50925   0.54521   0.40259   0.00000  Uiso   1.00
H462   H     0.56890   0.53689   0.40291   0.00000  Uiso   1.00
H463   H     0.34411   0.48027   0.39896   0.00000  Uiso   1.00
H464   H     0.62591   0.46592   0.43716   0.00000  Uiso   1.00
H465   H     0.65013   0.43051   0.39344   0.00000  Uiso   1.00
H466   H     0.43698   0.37313   0.22781   0.00000  Uiso   1.00
H467   H     0.64528   0.54148   0.02466   0.00000  Uiso   1.00
H468   H     0.61602   0.52511   0.48251   0.00000  Uiso   1.00
H469   H     0.34470   0.51969   0.47260   0.00000  Uiso   1.00
H470   H     0.45702   0.41548   0.12822   0.00000  Uiso   1.00
H471   H     0.44895   0.38096   0.08431   0.00000  Uiso   1.00
H472   H     0.40335   0.38884   0.13502   0.00000  Uiso   1.00
H473   H     0.50761   0.35497   0.46680   0.00000  Uiso   1.00
H474   H     0.54457   0.33776   0.41411   0.00000  Uiso   1.00
H475   H     0.49739   0.37293   0.41354   0.00000  Uiso   1.00
H476   H     0.53557   0.39325   0.33255   0.00000  Uiso   1.00
H477   H     0.38900   0.45101   0.20290   0.00000  Uiso   1.00
H478   H     0.59746   0.39281   0.32410   0.00000  Uiso   1.00
H479   H     0.56755   0.34423   0.33262   0.00000  Uiso   1.00
H480   H     0.41003   0.60766   0.16686   0.00000  Uiso   1.00
H481   H     0.47118   0.60533   0.16321   0.00000  Uiso   1.00
H482   H     0.44205   0.65512   0.15968   0.00000  Uiso   1.00
H483   H     0.61096   0.54875   0.29743   0.00000  Uiso   1.00
H484   H     0.36876   0.36208   0.49447   0.00000  Uiso   1.00
H485   H     0.33873   0.35825   0.05385   0.00000  Uiso   1.00
H486   H     0.40038   0.36148   0.03806   0.00000  Uiso   1.00
H487   H     0.58766   0.36939   0.05569   0.00000  Uiso   1.00
H488   H     0.61884   0.33589   0.01075   0.00000  Uiso   1.00
N489   N     0.38093   0.50001   0.25001   0.00000  Uiso   1.00
N490   N     0.61907   0.49999   0.24999   0.00000  Uiso   1.00
O491   O     0.46179   0.56108   0.25001   0.00000  Uiso   1.00
O492   O     0.60835   0.39577   0.49104   0.00000  Uiso   1.00
O493   O     0.45896   0.50127   0.10952   0.00000  Uiso   1.00
O494   O     0.53388   0.48377   0.39641   0.00000  Uiso   1.00
O495   O     0.34965   0.43163   0.44631   0.00000  Uiso   1.00
O496   O     0.64056   0.47682   0.01761   0.00000  Uiso   1.00
O497   O     0.41231   0.43906   0.09159   0.00000  Uiso   1.00
O498   O     0.55545   0.39865   0.42820   0.00000  Uiso   1.00
O499   O     0.57545   0.37269   0.26949   0.00000  Uiso   1.00
O500   O     0.42777   0.62731   0.22397   0.00000  Uiso   1.00
O501   O     0.53821   0.43892   0.25000   0.00000  Uiso   1.00
O502   O     0.53823   0.56107   0.25000   0.00000  Uiso   1.00
O503   O     0.46177   0.43893   0.25000   0.00000  Uiso   1.00
O504   O     0.43994   0.50001   0.31613   0.00000  Uiso   1.00
O505   O     0.56006   0.49999   0.18388   0.00000  Uiso   1.00
O506   O     0.51639   0.50000   0.31612   0.00000  Uiso   1.00
O507   O     0.48361   0.50000   0.18388   0.00000  Uiso   1.00
O508   O     0.36224   0.41646   0.03184   0.00000  Uiso   1.00
Zn509  Zn    0.44896   0.50001   0.25000   0.00000  Uiso   1.00
Zn510  Zn    0.55104   0.49999   0.25000   0.00000  Uiso   1.00
C511   C     0.83318   0.57994   0.24944   0.00000  Uiso   1.00
C512   C     0.79756   0.64659   0.23571   0.00000  Uiso   1.00
C513   C     0.83460   0.37589   0.24899   0.00000  Uiso   1.00
C514   C     0.83311   0.62414   0.24844   0.00000  Uiso   1.00
C515   C     0.98386   0.47250   0.22387   0.00000  Uiso   1.00
C516   C     0.68275   0.52718   0.27650   0.00000  Uiso   1.00
C517   C     0.69821   0.47278   0.22381   0.00000  Uiso   1.00
C518   C     0.96845   0.52711   0.27632   0.00000  Uiso   1.00
C519   C     0.80657   0.49188   0.33539   0.00000  Uiso   1.00
C520   C     0.86064   0.50082   0.16249   0.00000  Uiso   1.00
C521   C     0.79461   0.46903   0.37842   0.00000  Uiso   1.00
C522   C     0.83378   0.42006   0.24964   0.00000  Uiso   1.00
C523   C     0.87264   0.49444   0.11339   0.00000  Uiso   1.00
C524   C     0.73046   0.43922   0.43422   0.00000  Uiso   1.00
C525   C     0.93009   0.47243   0.04638   0.00000  Uiso   1.00
C526   C     0.75469   0.44487   0.38850   0.00000  Uiso   1.00
C527   C     0.91949   0.49108   0.08877   0.00000  Uiso   1.00
C528   C     0.82248   0.46827   0.40892   0.00000  Uiso   1.00
C529   C     0.83689   0.48609   0.09158   0.00000  Uiso   1.00
C530   C     0.80440   0.45000   0.45193   0.00000  Uiso   1.00
C531   C     0.84751   0.46224   0.05164   0.00000  Uiso   1.00
C532   C     0.75643   0.44170   0.46744   0.00000  Uiso   1.00
C533   C     0.76599   0.44328   0.04543   0.00000  Uiso   1.00
C534   C     0.89490   0.45222   0.03191   0.00000  Uiso   1.00
C535   C     0.83252   0.44277   0.48114   0.00000  Uiso   1.00
C536   C     0.81442   0.45071   0.02744   0.00000  Uiso   1.00
C537   C     0.70165   0.37285   0.02911   0.00000  Uiso   1.00
C538   C     0.92577   0.36119   0.01937   0.00000  Uiso   1.00
C539   C     0.78776   0.53976   0.08848   0.00000  Uiso   1.00
C540   C     0.86677   0.52393   0.41468   0.00000  Uiso   1.00
C541   C     0.99241   0.45278   0.41734   0.00000  Uiso   1.00
C542   C     0.97789   0.51753   0.49893   0.00000  Uiso   1.00
C543   C     0.76504   0.40464   0.10984   0.00000  Uiso   1.00
C544   C     0.87597   0.42246   0.46722   0.00000  Uiso   1.00
C545   C     0.85794   0.36497   0.43132   0.00000  Uiso   1.00
C546   C     0.90146   0.37560   0.31689   0.00000  Uiso   1.00
C547   C     0.77209   0.62397   0.17629   0.00000  Uiso   1.00
C548   C     0.73836   0.43447   0.01486   0.00000  Uiso   1.00
C549   C     0.90527   0.42379   0.49614   0.00000  Uiso   1.00
C550   C     0.86991   0.64418   0.25976   0.00000  Uiso   1.00
C551   C     0.79817   0.35588   0.23697   0.00000  Uiso   1.00
C552   C     0.87088   0.35343   0.26045   0.00000  Uiso   1.00
Cl553  Cl    0.96615   0.51051   0.10869   0.00000  Uiso   1.00
Cl554  Cl    0.73798   0.41800   0.34481   0.00000  Uiso   1.00
Cl555  Cl    0.96636   0.43558   0.18985   0.00000  Uiso   1.00
Cl556  Cl    0.70010   0.56288   0.31188   0.00000  Uiso   1.00
H557   H     0.89799   0.62699   0.26860   0.00000  Uiso   1.00
H558   H     0.89289   0.34848   0.01431   0.00000  Uiso   1.00
H559   H     0.79132   0.53605   0.05146   0.00000  Uiso   1.00
H560   H     0.81347   0.56257   0.09411   0.00000  Uiso   1.00
H561   H     0.75246   0.55260   0.10375   0.00000  Uiso   1.00
H562   H     0.85767   0.52308   0.45244   0.00000  Uiso   1.00
H563   H     0.84258   0.54521   0.40259   0.00000  Uiso   1.00
H564   H     0.90224   0.53689   0.40291   0.00000  Uiso   1.00
H565   H     0.67744   0.48027   0.39896   0.00000  Uiso   1.00
H566   H     0.95924   0.46592   0.43716   0.00000  Uiso   1.00
H567   H     0.98346   0.43051   0.39344   0.00000  Uiso   1.00
H568   H     0.77031   0.37313   0.22781   0.00000  Uiso   1.00
H569   H     0.97862   0.54148   0.02466   0.00000  Uiso   1.00
H570   H     0.94935   0.52511   0.48251   0.00000  Uiso   1.00
H571   H     0.67803   0.51969   0.47260   0.00000  Uiso   1.00
H572   H     0.79035   0.41548   0.12822   0.00000  Uiso   1.00
H573   H     0.78228   0.38096   0.08431   0.00000  Uiso   1.00
H574   H     0.73669   0.38884   0.13502   0.00000  Uiso   1.00
H575   H     0.84094   0.35497   0.46680   0.00000  Uiso   1.00
H576   H     0.87790   0.33776   0.41411   0.00000  Uiso   1.00
H577   H     0.83073   0.37293   0.41354   0.00000  Uiso   1.00
H578   H     0.86890   0.39325   0.33255   0.00000  Uiso   1.00
H579   H     0.72233   0.45101   0.20290   0.00000  Uiso   1.00
H580   H     0.93080   0.39281   0.32410   0.00000  Uiso   1.00
H581   H     0.90088   0.34423   0.33262   0.00000  Uiso   1.00
H582   H     0.74337   0.60766   0.16686   0.00000  Uiso   1.00
H583   H     0.80451   0.60533   0.16321   0.00000  Uiso   1.00
H584   H     0.77539   0.65512   0.15968   0.00000  Uiso   1.00
H585   H     0.94430   0.54875   0.29743   0.00000  Uiso   1.00
H586   H     0.70209   0.36208   0.49447   0.00000  Uiso   1.00
H587   H     0.67207   0.35825   0.05385   0.00000  Uiso   1.00
H588   H     0.73371   0.36148   0.03806   0.00000  Uiso   1.00
H589   H     0.92100   0.36939   0.05569   0.00000  Uiso   1.00
H590   H     0.95217   0.33589   0.01075   0.00000  Uiso   1.00
N591   N     0.71426   0.50001   0.25001   0.00000  Uiso   1.00
N592   N     0.95241   0.49999   0.24999   0.00000  Uiso   1.00
O593   O     0.79512   0.56108   0.25001   0.00000  Uiso   1.00
O594   O     0.94168   0.39577   0.49104   0.00000  Uiso   1.00
O595   O     0.79229   0.50127   0.10952   0.00000  Uiso   1.00
O596   O     0.86721   0.48377   0.39641   0.00000  Uiso   1.00
O597   O     0.68298   0.43163   0.44631   0.00000  Uiso   1.00
O598   O     0.97390   0.47682   0.01761   0.00000  Uiso   1.00
O599   O     0.74564   0.43906   0.09159   0.00000  Uiso   1.00
O600   O     0.88878   0.39865   0.42820   0.00000  Uiso   1.00
O601   O     0.90878   0.37269   0.26949   0.00000  Uiso   1.00
O602   O     0.76110   0.62731   0.22397   0.00000  Uiso   1.00
O603   O     0.87154   0.43892   0.25000   0.00000  Uiso   1.00
O604   O     0.87157   0.56107   0.25000   0.00000  Uiso   1.00
O605   O     0.79510   0.43893   0.25000   0.00000  Uiso   1.00
O606   O     0.77328   0.50001   0.31613   0.00000  Uiso   1.00
O607   O     0.89339   0.49999   0.18388   0.00000  Uiso   1.00
O608   O     0.84972   0.50000   0.31612   0.00000  Uiso   1.00
O609   O     0.81695   0.50000   0.18388   0.00000  Uiso   1.00
O610   O     0.69557   0.41646   0.03184   0.00000  Uiso   1.00
Zn611  Zn    0.78229   0.50001   0.25000   0.00000  Uiso   1.00
Zn612  Zn    0.88438   0.49999   0.25000   0.00000  Uiso   1.00
C613   C     0.16652   0.91327   0.24944   0.00000  Uiso   1.00
C614   C     0.13089   0.97993   0.23571   0.00000  Uiso   1.00
C615   C     0.16794   0.70922   0.24899   0.00000  Uiso   1.00
C616   C     0.16645   0.95747   0.24844   0.00000  Uiso   1.00
C617   C     0.31720   0.80584   0.22387   0.00000  Uiso   1.00
C618   C     0.01608   0.86051   0.27650   0.00000  Uiso   1.00
C619   C     0.03154   0.80611   0.22381   0.00000  Uiso   1.00
C620   C     0.30178   0.86045   0.27632   0.00000  Uiso   1.00
C621   C     0.13990   0.82522   0.33539   0.00000  Uiso   1.00
C622   C     0.19397   0.83415   0.16249   0.00000  Uiso   1.00
C623   C     0.12795   0.80237   0.37842   0.00000  Uiso   1.00
C624   C     0.16711   0.75340   0.24964   0.00000  Uiso   1.00
C625   C     0.20598   0.82778   0.11339   0.00000  Uiso   1.00
C626   C     0.06380   0.77256   0.43422   0.00000  Uiso   1.00
C627   C     0.26342   0.80576   0.04638   0.00000  Uiso   1.00
C628   C     0.08802   0.77821   0.38850   0.00000  Uiso   1.00
C629   C     0.25282   0.82441   0.08877   0.00000  Uiso   1.00
C630   C     0.15581   0.80160   0.40892   0.00000  Uiso   1.00
C631   C     0.17022   0.81943   0.09158   0.00000  Uiso   1.00
C632   C     0.13773   0.78333   0.45193   0.00000  Uiso   1.00
C633   C     0.18084   0.79558   0.05164   0.00000  Uiso   1.00
C634   C     0.08977   0.77503   0.46744   0.00000  Uiso   1.00
C635   C     0.09932   0.77662   0.04543   0.00000  Uiso   1.00
C636   C     0.22823   0.78556   0.03191   0.00000  Uiso   1.00
C637   C     0.16585   0.77610   0.48114   0.00000  Uiso   1.00
C638   C     0.14775   0.78404   0.02744   0.00000  Uiso   1.00
C639   C     0.03498   0.70618   0.02911   0.00000  Uiso   1.00
C640   C     0.25911   0.69452   0.01937   0.00000  Uiso   1.00
C641   C     0.12109   0.87310   0.08848   0.00000  Uiso   1.00
C642   C     0.20010   0.85726   0.41468   0.00000  Uiso   1.00
C643   C     0.32574   0.78612   0.41734   0.00000  Uiso   1.00
C644   C     0.31123   0.85087   0.49893   0.00000  Uiso   1.00
C645   C     0.09838   0.73797   0.10984   0.00000  Uiso   1.00
C646   C     0.20930   0.75579   0.46722   0.00000  Uiso   1.00
C647   C     0.19128   0.69831   0.43132   0.00000  Uiso   1.00
C648   C     0.23480   0.70893   0.31689   0.00000  Uiso   1.00
C649   C     0.10542   0.95731   0.17629   0.00000  Uiso   1.00
C650   C     0.07170   0.76780   0.01486   0.00000  Uiso   1.00
C651   C     0.23861   0.75713   0.49614   0.00000  Uiso   1.00
C652   C     0.20325   0.97751   0.25976   0.00000  Uiso   1.00
C653   C     0.13150   0.68921   0.23697   0.00000  Uiso   1.00
C654   C     0.20421   0.68677   0.26045   0.00000  Uiso   1.00
Cl655  Cl    0.29949   0.84384   0.10869   0.00000  Uiso   1.00
Cl656  Cl    0.07131   0.75133   0.34481   0.00000  Uiso   1.00
Cl657  Cl    0.29969   0.76891   0.18985   0.00000  Uiso   1.00
Cl658  Cl    0.03343   0.89621   0.31188   0.00000  Uiso   1.00
H659   H     0.23132   0.96033   0.26860   0.00000  Uiso   1.00
H660   H     0.22622   0.68182   0.01431   0.00000  Uiso   1.00
H661   H     0.12465   0.86938   0.05146   0.00000  Uiso   1.00
H662   H     0.14680   0.89590   0.09411   0.00000  Uiso   1.00
H663   H     0.08579   0.88594   0.10375   0.00000  Uiso   1.00
H664   H     0.19100   0.85642   0.45244   0.00000  Uiso   1.00
H665   H     0.17592   0.87854   0.40259   0.00000  Uiso   1.00
H666   H     0.23557   0.87023   0.40291   0.00000  Uiso   1.00
H667   H     0.01078   0.81360   0.39896   0.00000  Uiso   1.00
H668   H     0.29257   0.79925   0.43716   0.00000  Uiso   1.00
H669   H     0.31680   0.76384   0.39344   0.00000  Uiso   1.00
H670   H     0.10364   0.70646   0.22781   0.00000  Uiso   1.00
H671   H     0.31195   0.87481   0.02466   0.00000  Uiso   1.00
H672   H     0.28269   0.85844   0.48251   0.00000  Uiso   1.00
H673   H     0.01136   0.85302   0.47260   0.00000  Uiso   1.00
H674   H     0.12368   0.74881   0.12822   0.00000  Uiso   1.00
H675   H     0.11561   0.71430   0.08431   0.00000  Uiso   1.00
H676   H     0.07002   0.72217   0.13502   0.00000  Uiso   1.00
H677   H     0.17428   0.68830   0.46680   0.00000  Uiso   1.00
H678   H     0.21123   0.67109   0.41411   0.00000  Uiso   1.00
H679   H     0.16406   0.70626   0.41354   0.00000  Uiso   1.00
H680   H     0.20223   0.72659   0.33255   0.00000  Uiso   1.00
H681   H     0.05567   0.78434   0.20290   0.00000  Uiso   1.00
H682   H     0.26413   0.72614   0.32410   0.00000  Uiso   1.00
H683   H     0.23421   0.67756   0.33262   0.00000  Uiso   1.00
H684   H     0.07670   0.94100   0.16686   0.00000  Uiso   1.00
H685   H     0.13785   0.93866   0.16321   0.00000  Uiso   1.00
H686   H     0.10872   0.98846   0.15968   0.00000  Uiso   1.00
H687   H     0.27763   0.88208   0.29743   0.00000  Uiso   1.00
H688   H     0.03543   0.69541   0.49447   0.00000  Uiso   1.00
H689   H     0.00540   0.69158   0.05385   0.00000  Uiso   1.00
H690   H     0.06704   0.69481   0.03806   0.00000  Uiso   1.00
H691   H     0.25433   0.70273   0.05569   0.00000  Uiso   1.00
H692   H     0.28550   0.66922   0.01075   0.00000  Uiso   1.00
N693   N     0.04759   0.83334   0.25001   0.00000  Uiso   1.00
N694   N     0.28574   0.83332   0.24999   0.00000  Uiso   1.00
O695   O     0.12846   0.89442   0.25001   0.00000  Uiso   1.00
O696   O     0.27501   0.72910   0.49104   0.00000  Uiso   1.00
O697   O     0.12562   0.83461   0.10952   0.00000  Uiso   1.00
O698   O     0.20054   0.81711   0.39641   0.00000  Uiso   1.00
O699   O     0.01632   0.76496   0.44631   0.00000  Uiso   1.00
O700   O     0.30723   0.81015   0.01761   0.00000  Uiso   1.00
O701   O     0.07898   0.77239   0.09159   0.00000  Uiso   1.00
O702   O     0.22211   0.73198   0.42820   0.00000  Uiso   1.00
O703   O     0.24212   0.70602   0.26949   0.00000  Uiso   1.00
O704   O     0.09443   0.96064   0.22397   0.00000  Uiso   1.00
O705   O     0.20488   0.77225   0.25000   0.00000  Uiso   1.00
O706   O     0.20490   0.89441   0.25000   0.00000  Uiso   1.00
O707   O     0.12843   0.77226   0.25000   0.00000  Uiso   1.00
O708   O     0.10661   0.83334   0.31613   0.00000  Uiso   1.00
O709   O     0.22672   0.83333   0.18388   0.00000  Uiso   1.00
O710   O     0.18305   0.83333   0.31612   0.00000  Uiso   1.00
O711   O     0.15028   0.83334   0.18388   0.00000  Uiso   1.00
O712   O     0.02890   0.74979   0.03184   0.00000  Uiso   1.00
Zn713  Zn    0.11562   0.83334   0.25000   0.00000  Uiso   1.00
Zn714  Zn    0.21771   0.83333   0.25000   0.00000  Uiso   1.00
C715   C     0.49985   0.91327   0.24944   0.00000  Uiso   1.00
C716   C     0.46423   0.97993   0.23571   0.00000  Uiso   1.00
C717   C     0.50127   0.70922   0.24899   0.00000  Uiso   1.00
C718   C     0.49978   0.95747   0.24844   0.00000  Uiso   1.00
C719   C     0.65053   0.80584   0.22387   0.00000  Uiso   1.00
C720   C     0.34942   0.86051   0.27650   0.00000  Uiso   1.00
C721   C     0.36488   0.80611   0.22381   0.00000  Uiso   1.00
C722   C     0.63512   0.86045   0.27632   0.00000  Uiso   1.00
C723   C     0.47324   0.82522   0.33539   0.00000  Uiso   1.00
C724   C     0.52731   0.83415   0.16249   0.00000  Uiso   1.00
C725   C     0.46128   0.80237   0.37842   0.00000  Uiso   1.00
C726   C     0.50045   0.75340   0.24964   0.00000  Uiso   1.00
C727   C     0.53931   0.82778   0.11339   0.00000  Uiso   1.00
C728   C     0.39713   0.77256   0.43422   0.00000  Uiso   1.00
C729   C     0.59675   0.80576   0.04638   0.00000  Uiso   1.00
C730   C     0.42135   0.77821   0.38850   0.00000  Uiso   1.00
C731   C     0.58616   0.82441   0.08877   0.00000  Uiso   1.00
C732   C     0.48915   0.80160   0.40892   0.00000  Uiso   1.00
C733   C     0.50355   0.81943   0.09158   0.00000  Uiso   1.00
C734   C     0.47106   0.78333   0.45193   0.00000  Uiso   1.00
C735   C     0.51418   0.79558   0.05164   0.00000  Uiso   1.00
C736   C     0.42310   0.77503   0.46744   0.00000  Uiso   1.00
C737   C     0.43265   0.77662   0.04543   0.00000  Uiso   1.00
C738   C     0.56156   0.78556   0.03191   0.00000  Uiso   1.00
C739   C     0.49919   0.77610   0.48114   0.00000  Uiso   1.00
C740   C     0.48109   0.78404   0.02744   0.00000  Uiso   1.00
C741   C     0.36831   0.70618   0.02911   0.00000  Uiso   1.00
C742   C     0.59244   0.69452   0.01937   0.00000  Uiso   1.00
C743   C     0.45442   0.87310   0.08848   0.00000  Uiso   1.00
C744   C     0.53344   0.85726   0.41468   0.00000  Uiso   1.00
C745   C     0.65907   0.78612   0.41734   0.00000  Uiso   1.00
C746   C     0.64456   0.85087   0.49893   0.00000  Uiso   1.00
C747   C     0.43171   0.73797   0.10984   0.00000  Uiso   1.00
C748   C     0.54263   0.75579   0.46722   0.00000  Uiso   1.00
C749   C     0.52461   0.69831   0.43132   0.00000  Uiso   1.00
C750   C     0.56813   0.70893   0.31689   0.00000  Uiso   1.00
C751   C     0.43876   0.95731   0.17629   0.00000  Uiso   1.00
C752   C     0.40503   0.76780   0.01486   0.00000  Uiso   1.00
C753   C     0.57194   0.75713   0.49614   0.00000  Uiso   1.00
C754   C     0.53658   0.97751   0.25976   0.00000  Uiso   1.00
C755   C     0.46484   0.68921   0.23697   0.00000  Uiso   1.00
C756   C     0.53755   0.68677   0.26045   0.00000  Uiso   1.00
Cl757  Cl    0.63282   0.84384   0.10869   0.00000  Uiso   1.00
Cl758  Cl    0.40465   0.75133   0.34481   0.00000  Uiso   1.00
Cl759  Cl    0.63303   0.76891   0.18985   0.00000  Uiso   1.00
Cl760  Cl    0.36676   0.89621   0.31188   0.00000  Uiso   1.00
H761   H     0.56465   0.96033   0.26860   0.00000  Uiso   1.00
H762   H     0.55956   0.68182   0.01431   0.00000  Uiso   1.00
H763   H     0.45798   0.86938   0.05146   0.00000  Uiso   1.00
H764   H     0.48014   0.89590   0.09411   0.00000  Uiso   1.00
H765   H     0.41912   0.88594   0.10375   0.00000  Uiso   1.00
H766   H     0.52433   0.85642   0.45244   0.00000  Uiso   1.00
H767   H     0.50925   0.87854   0.40259   0.00000  Uiso   1.00
H768   H     0.56890   0.87023   0.40291   0.00000  Uiso   1.00
H769   H     0.34411   0.81360   0.39896   0.00000  Uiso   1.00
H770   H     0.62591   0.79925   0.43716   0.00000  Uiso   1.00
H771   H     0.65013   0.76384   0.39344   0.00000  Uiso   1.00
H772   H     0.43698   0.70646   0.22781   0.00000  Uiso   1.00
H773   H     0.64528   0.87481   0.02466   0.00000  Uiso   1.00
H774   H     0.61602   0.85844   0.48251   0.00000  Uiso   1.00
H775   H     0.34470   0.85302   0.47260   0.00000  Uiso   1.00
H776   H     0.45702   0.74881   0.12822   0.00000  Uiso   1.00
H777   H     0.44895   0.71430   0.08431   0.00000  Uiso   1.00
H778   H     0.40335   0.72217   0.13502   0.00000  Uiso   1.00
H779   H     0.50761   0.68830   0.46680   0.00000  Uiso   1.00
H780   H     0.54457   0.67109   0.41411   0.00000  Uiso   1.00
H781   H     0.49739   0.70626   0.41354   0.00000  Uiso   1.00
H782   H     0.53557   0.72659   0.33255   0.00000  Uiso   1.00
H783   H     0.38900   0.78434   0.20290   0.00000  Uiso   1.00
H784   H     0.59746   0.72614   0.32410   0.00000  Uiso   1.00
H785   H     0.56755   0.67756   0.33262   0.00000  Uiso   1.00
H786   H     0.41003   0.94100   0.16686   0.00000  Uiso   1.00
H787   H     0.47118   0.93866   0.16321   0.00000  Uiso   1.00
H788   H     0.44205   0.98846   0.15968   0.00000  Uiso   1.00
H789   H     0.61096   0.88208   0.29743   0.00000  Uiso   1.00
H790   H     0.36876   0.69541   0.49447   0.00000  Uiso   1.00
H791   H     0.33873   0.69158   0.05385   0.00000  Uiso   1.00
H792   H     0.40038   0.69481   0.03806   0.00000  Uiso   1.00
H793   H     0.58766   0.70273   0.05569   0.00000  Uiso   1.00
H794   H     0.61884   0.66922   0.01075   0.00000  Uiso   1.00
N795   N     0.38093   0.83334   0.25001   0.00000  Uiso   1.00
N796   N     0.61907   0.83332   0.24999   0.00000  Uiso   1.00
O797   O     0.46179   0.89442   0.25001   0.00000  Uiso   1.00
O798   O     0.60835   0.72910   0.49104   0.00000  Uiso   1.00
O799   O     0.45896   0.83461   0.10952   0.00000  Uiso   1.00
O800   O     0.53388   0.81711   0.39641   0.00000  Uiso   1.00
O801   O     0.34965   0.76496   0.44631   0.00000  Uiso   1.00
O802   O     0.64056   0.81015   0.01761   0.00000  Uiso   1.00
O803   O     0.41231   0.77239   0.09159   0.00000  Uiso   1.00
O804   O     0.55545   0.73198   0.42820   0.00000  Uiso   1.00
O805   O     0.57545   0.70602   0.26949   0.00000  Uiso   1.00
O806   O     0.42777   0.96064   0.22397   0.00000  Uiso   1.00
O807   O     0.53821   0.77225   0.25000   0.00000  Uiso   1.00
O808   O     0.53823   0.89441   0.25000   0.00000  Uiso   1.00
O809   O     0.46177   0.77226   0.25000   0.00000  Uiso   1.00
O810   O     0.43994   0.83334   0.31613   0.00000  Uiso   1.00
O811   O     0.56006   0.83333   0.18388   0.00000  Uiso   1.00
O812   O     0.51639   0.83333   0.31612   0.00000  Uiso   1.00
O813   O     0.48361   0.83334   0.18388   0.00000  Uiso   1.00
O814   O     0.36224   0.74979   0.03184   0.00000  Uiso   1.00
Zn815  Zn    0.44896   0.83334   0.25000   0.00000  Uiso   1.00
Zn816  Zn    0.55104   0.83333   0.25000   0.00000  Uiso   1.00
C817   C     0.83318   0.91327   0.24944   0.00000  Uiso   1.00
C818   C     0.79756   0.97993   0.23571   0.00000  Uiso   1.00
C819   C     0.83460   0.70922   0.24899   0.00000  Uiso   1.00
C820   C     0.83311   0.95747   0.24844   0.00000  Uiso   1.00
C821   C     0.98386   0.80584   0.22387   0.00000  Uiso   1.00
C822   C     0.68275   0.86051   0.27650   0.00000  Uiso   1.00
C823   C     0.69821   0.80611   0.22381   0.00000  Uiso   1.00
C824   C     0.96845   0.86045   0.27632   0.00000  Uiso   1.00
C825   C     0.80657   0.82522   0.33539   0.00000  Uiso   1.00
C826   C     0.86064   0.83415   0.16249   0.00000  Uiso   1.00
C827   C     0.79461   0.80237   0.37842   0.00000  Uiso   1.00
C828   C     0.83378   0.75340   0.24964   0.00000  Uiso   1.00
C829   C     0.87264   0.82778   0.11339   0.00000  Uiso   1.00
C830   C     0.73046   0.77256   0.43422   0.00000  Uiso   1.00
C831   C     0.93009   0.80576   0.04638   0.00000  Uiso   1.00
C832   C     0.75469   0.77821   0.38850   0.00000  Uiso   1.00
C833   C     0.91949   0.82441   0.08877   0.00000  Uiso   1.00
C834   C     0.82248   0.80160   0.40892   0.00000  Uiso   1.00
C835   C     0.83689   0.81943   0.09158   0.00000  Uiso   1.00
C836   C     0.80440   0.78333   0.45193   0.00000  Uiso   1.00
C837   C     0.84751   0.79558   0.05164   0.00000  Uiso   1.00
C838   C     0.75643   0.77503   0.46744   0.00000  Uiso   1.00
C839   C     0.76599   0.77662   0.04543   0.00000  Uiso   1.00
C840   C     0.89490   0.78556   0.03191   0.00000  Uiso   1.00
C841   C     0.83252   0.77610   0.48114   0.00000  Uiso   1.00
C842   C     0.81442   0.78404   0.02744   0.00000  Uiso   1.00
C843   C     0.70165   0.70618   0.02911   0.00000  Uiso   1.00
C844   C     0.92577   0.69452   0.01937   0.00000  Uiso   1.00
C845   C     0.78776   0.87310   0.08848   0.00000  Uiso   1.00
C846   C     0.86677   0.85726   0.41468   0.00000  Uiso   1.00
C847   C     0.99241   0.78612   0.41734   0.00000  Uiso   1.00
C848   C     0.97789   0.85087   0.49893   0.00000  Uiso   1.00
C849   C     0.76504   0.73797   0.10984   0.00000  Uiso   1.00
C850   C     0.87597   0.75579   0.46722   0.00000  Uiso   1.00
C851   C     0.85794   0.69831   0.43132   0.00000  Uiso   1.00
C852   C     0.90146   0.70893   0.31689   0.00000  Uiso   1.00
C853   C     0.77209   0.95731   0.17629   0.00000  Uiso   1.00
C854   C     0.73836   0.76780   0.01486   0.00000  Uiso   1.00
C855   C     0.90527   0.75713   0.49614   0.00000  Uiso   1.00
C856   C     0.86991   0.97751   0.25976   0.00000  Uiso   1.00
C857   C     0.79817   0.68921   0.23697   0.00000  Uiso   1.00
C858   C     0.87088   0.68677   0.26045   0.00000  Uiso   1.00
Cl859  Cl    0.96615   0.84384   0.10869   0.00000  Uiso   1.00
Cl860  Cl    0.73798   0.75133   0.34481   0.00000  Uiso   1.00
Cl861  Cl    0.96636   0.76891   0.18985   0.00000  Uiso   1.00
Cl862  Cl    0.70010   0.89621   0.31188   0.00000  Uiso   1.00
H863   H     0.89799   0.96033   0.26860   0.00000  Uiso   1.00
H864   H     0.89289   0.68182   0.01431   0.00000  Uiso   1.00
H865   H     0.79132   0.86938   0.05146   0.00000  Uiso   1.00
H866   H     0.81347   0.89590   0.09411   0.00000  Uiso   1.00
H867   H     0.75246   0.88594   0.10375   0.00000  Uiso   1.00
H868   H     0.85767   0.85642   0.45244   0.00000  Uiso   1.00
H869   H     0.84258   0.87854   0.40259   0.00000  Uiso   1.00
H870   H     0.90224   0.87023   0.40291   0.00000  Uiso   1.00
H871   H     0.67744   0.81360   0.39896   0.00000  Uiso   1.00
H872   H     0.95924   0.79925   0.43716   0.00000  Uiso   1.00
H873   H     0.98346   0.76384   0.39344   0.00000  Uiso   1.00
H874   H     0.77031   0.70646   0.22781   0.00000  Uiso   1.00
H875   H     0.97862   0.87481   0.02466   0.00000  Uiso   1.00
H876   H     0.94935   0.85844   0.48251   0.00000  Uiso   1.00
H877   H     0.67803   0.85302   0.47260   0.00000  Uiso   1.00
H878   H     0.79035   0.74881   0.12822   0.00000  Uiso   1.00
H879   H     0.78228   0.71430   0.08431   0.00000  Uiso   1.00
H880   H     0.73669   0.72217   0.13502   0.00000  Uiso   1.00
H881   H     0.84094   0.68830   0.46680   0.00000  Uiso   1.00
H882   H     0.87790   0.67109   0.41411   0.00000  Uiso   1.00
H883   H     0.83073   0.70626   0.41354   0.00000  Uiso   1.00
H884   H     0.86890   0.72659   0.33255   0.00000  Uiso   1.00
H885   H     0.72233   0.78434   0.20290   0.00000  Uiso   1.00
H886   H     0.93080   0.72614   0.32410   0.00000  Uiso   1.00
H887   H     0.90088   0.67756   0.33262   0.00000  Uiso   1.00
H888   H     0.74337   0.94100   0.16686   0.00000  Uiso   1.00
H889   H     0.80451   0.93866   0.16321   0.00000  Uiso   1.00
H890   H     0.77539   0.98846   0.15968   0.00000  Uiso   1.00
H891   H     0.94430   0.88208   0.29743   0.00000  Uiso   1.00
H892   H     0.70209   0.69541   0.49447   0.00000  Uiso   1.00
H893   H     0.67207   0.69158   0.05385   0.00000  Uiso   1.00
H894   H     0.73371   0.69481   0.03806   0.00000  Uiso   1.00
H895   H     0.92100   0.70273   0.05569   0.00000  Uiso   1.00
H896   H     0.95217   0.66922   0.01075   0.00000  Uiso   1.00
N897   N     0.71426   0.83334   0.25001   0.00000  Uiso   1.00
N898   N     0.95241   0.83332   0.24999   0.00000  Uiso   1.00
O899   O     0.79512   0.89442   0.25001   0.00000  Uiso   1.00
O900   O     0.94168   0.72910   0.49104   0.00000  Uiso   1.00
O901   O     0.79229   0.83461   0.10952   0.00000  Uiso   1.00
O902   O     0.86721   0.81711   0.39641   0.00000  Uiso   1.00
O903   O     0.68298   0.76496   0.44631   0.00000  Uiso   1.00
O904   O     0.97390   0.81015   0.01761   0.00000  Uiso   1.00
O905   O     0.74564   0.77239   0.09159   0.00000  Uiso   1.00
O906   O     0.88878   0.73198   0.42820   0.00000  Uiso   1.00
O907   O     0.90878   0.70602   0.26949   0.00000  Uiso   1.00
O908   O     0.76110   0.96064   0.22397   0.00000  Uiso   1.00
O909   O     0.87154   0.77225   0.25000   0.00000  Uiso   1.00
O910   O     0.87157   0.89441   0.25000   0.00000  Uiso   1.00
O911   O     0.79510   0.77226   0.25000   0.00000  Uiso   1.00
O912   O     0.77328   0.83334   0.31613   0.00000  Uiso   1.00
O913   O     0.89339   0.83333   0.18388   0.00000  Uiso   1.00
O914   O     0.84972   0.83333   0.31612   0.00000  Uiso   1.00
O915   O     0.81695   0.83334   0.18388   0.00000  Uiso   1.00
O916   O     0.69557   0.74979   0.03184   0.00000  Uiso   1.00
Zn917  Zn    0.78229   0.83334   0.25000   0.00000  Uiso   1.00
Zn918  Zn    0.88438   0.83333   0.25000   0.00000  Uiso   1.00
C919   C     0.16652   0.24661   0.74944   0.00000  Uiso   1.00
C920   C     0.13089   0.31326   0.73571   0.00000  Uiso   1.00
C921   C     0.16794   0.04256   0.74899   0.00000  Uiso   1.00
C922   C     0.16645   0.29081   0.74844   0.00000  Uiso   1.00
C923   C     0.31720   0.13917   0.72387   0.00000  Uiso   1.00
C924   C     0.01608   0.19385   0.77650   0.00000  Uiso   1.00
C925   C     0.03154   0.13945   0.72381   0.00000  Uiso   1.00
C926   C     0.30178   0.19378   0.77632   0.00000  Uiso   1.00
C927   C     0.13990   0.15855   0.83539   0.00000  Uiso   1.00
C928   C     0.19397   0.16749   0.66249   0.00000  Uiso   1.00
C929   C     0.12795   0.13570   0.87842   0.00000  Uiso   1.00
C930   C     0.16711   0.08673   0.74964   0.00000  Uiso   1.00
C931   C     0.20598   0.16111   0.61339   0.00000  Uiso   1.00
C932   C     0.06380   0.10589   0.93422   0.00000  Uiso   1.00
C933   C     0.26342   0.13909   0.54638   0.00000  Uiso   1.00
C934   C     0.08802   0.11154   0.88850   0.00000  Uiso   1.00
C935   C     0.25282   0.15774   0.58877   0.00000  Uiso   1.00
C936   C     0.15581   0.13493   0.90892   0.00000  Uiso   1.00
C937   C     0.17022   0.15276   0.59158   0.00000  Uiso   1.00
C938   C     0.13773   0.11666   0.95193   0.00000  Uiso   1.00
C939   C     0.18084   0.12891   0.55164   0.00000  Uiso   1.00
C940   C     0.08977   0.10837   0.96744   0.00000  Uiso   1.00
C941   C     0.09932   0.10995   0.54543   0.00000  Uiso   1.00
C942   C     0.22823   0.11889   0.53191   0.00000  Uiso   1.00
C943   C     0.16585   0.10943   0.98114   0.00000  Uiso   1.00
C944   C     0.14775   0.11738   0.52744   0.00000  Uiso   1.00
C945   C     0.03498   0.03952   0.52911   0.00000  Uiso   1.00
C946   C     0.25911   0.02786   0.51937   0.00000  Uiso   1.00
C947   C     0.12109   0.20643   0.58848   0.00000  Uiso   1.00
C948   C     0.20010   0.19059   0.91468   0.00000  Uiso   1.00
C949   C     0.32574   0.11945   0.91734   0.00000  Uiso   1.00
C950   C     0.31123   0.18420   0.99893   0.00000  Uiso   1.00
C951   C     0.09838   0.07131   0.60984   0.00000  Uiso   1.00
C952   C     0.20930   0.08912   0.96722   0.00000  Uiso   1.00
C953   C     0.19128   0.03164   0.93132   0.00000  Uiso   1.00
C954   C     0.23480   0.04227   0.81689   0.00000  Uiso   1.00
C955   C     0.10542   0.29064   0.67629   0.00000  Uiso   1.00
C956   C     0.07170   0.10114   0.51486   0.00000  Uiso   1.00
C957   C     0.23861   0.09046   0.99614   0.00000  Uiso   1.00
C958   C     0.20325   0.31085   0.75976   0.00000  Uiso   1.00
C959   C     0.13150   0.02255   0.73697   0.00000  Uiso   1.00
C960   C     0.20421   0.02010   0.76045   0.00000  Uiso   1.00
Cl961  Cl    0.29949   0.17718   0.60869   0.00000  Uiso   1.00
Cl962  Cl    0.07131   0.08466   0.84481   0.00000  Uiso   1.00
Cl963  Cl    0.29969   0.10225   0.68985   0.00000  Uiso   1.00
Cl964  Cl    0.03343   0.22954   0.81188   0.00000  Uiso   1.00
H965   H     0.23132   0.29366   0.76860   0.00000  Uiso   1.00
H966   H     0.22622   0.01515   0.51431   0.00000  Uiso   1.00
H967   H     0.12465   0.20271   0.55146   0.00000  Uiso   1.00
H968   H     0.14680   0.22923   0.59411   0.00000  Uiso   1.00
H969   H     0.08579   0.21927   0.60375   0.00000  Uiso   1.00
H970   H     0.19100   0.18975   0.95244   0.00000  Uiso   1.00
H971   H     0.17592   0.21187   0.90259   0.00000  Uiso   1.00
H972   H     0.23557   0.20356   0.90291   0.00000  Uiso   1.00
H973   H     0.01078   0.14694   0.89896   0.00000  Uiso   1.00
H974   H     0.29257   0.13259   0.93716   0.00000  Uiso   1.00
H975   H     0.31680   0.09717   0.89344   0.00000  Uiso   1.00
H976   H     0.10364   0.03980   0.72781   0.00000  Uiso   1.00
H977   H     0.31195   0.20815   0.52466   0.00000  Uiso   1.00
H978   H     0.28269   0.19177   0.98251   0.00000  Uiso   1.00
H979   H     0.01136   0.18635   0.97260   0.00000  Uiso   1.00
H980   H     0.12368   0.08214   0.62822   0.00000  Uiso   1.00
H981   H     0.11561   0.04763   0.58431   0.00000  Uiso   1.00
H982   H     0.07002   0.05551   0.63502   0.00000  Uiso   1.00
H983   H     0.17428   0.02163   0.96680   0.00000  Uiso   1.00
H984   H     0.21123   0.00442   0.91411   0.00000  Uiso   1.00
H985   H     0.16406   0.03960   0.91354   0.00000  Uiso   1.00
H986   H     0.20223   0.05992   0.83255   0.00000  Uiso   1.00
H987   H     0.05567   0.11768   0.70290   0.00000  Uiso   1.00
H988   H     0.26413   0.05948   0.82410   0.00000  Uiso   1.00
H989   H     0.23421   0.01089   0.83262   0.00000  Uiso   1.00
H990   H     0.07670   0.27433   0.66686   0.00000  Uiso   1.00
H991   H     0.13785   0.27200   0.66321   0.00000  Uiso   1.00
H992   H     0.10872   0.32179   0.65968   0.00000  Uiso   1.00
H993   H     0.27763   0.21542   0.79743   0.00000  Uiso   1.00
H994   H     0.03543   0.02874   0.99447   0.00000  Uiso   1.00
H995   H     0.00540   0.02492   0.55385   0.00000  Uiso   1.00
H996   H     0.06704   0.02814   0.53806   0.00000  Uiso   1.00
H997   H     0.25433   0.03606   0.55569   0.00000  Uiso   1.00
H998   H     0.28550   0.00255   0.51075   0.00000  Uiso   1.00
N999   N     0.04759   0.16668   0.75001   0.00000  Uiso   1.00
N1000  N     0.28574   0.16666   0.74999   0.00000  Uiso   1.00
O1001  O     0.12846   0.22775   0.75001   0.00000  Uiso   1.00
O1002  O     0.27501   0.06243   0.99104   0.00000  Uiso   1.00
O1003  O     0.12562   0.16794   0.60952   0.00000  Uiso   1.00
O1004  O     0.20054   0.15044   0.89641   0.00000  Uiso   1.00
O1005  O     0.01632   0.09830   0.94631   0.00000  Uiso   1.00
O1006  O     0.30723   0.14349   0.51761   0.00000  Uiso   1.00
O1007  O     0.07898   0.10573   0.59159   0.00000  Uiso   1.00
O1008  O     0.22211   0.06531   0.92820   0.00000  Uiso   1.00
O1009  O     0.24212   0.03935   0.76949   0.00000  Uiso   1.00
O1010  O     0.09443   0.29398   0.72397   0.00000  Uiso   1.00
O1011  O     0.20488   0.10558   0.75000   0.00000  Uiso   1.00
O1012  O     0.20490   0.22774   0.75000   0.00000  Uiso   1.00
O1013  O     0.12843   0.10559   0.75000   0.00000  Uiso   1.00
O1014  O     0.10661   0.16667   0.81613   0.00000  Uiso   1.00
O1015  O     0.22672   0.16666   0.68388   0.00000  Uiso   1.00
O1016  O     0.18305   0.16666   0.81612   0.00000  Uiso   1.00
O1017  O     0.15028   0.16667   0.68388   0.00000  Uiso   1.00
O1018  O     0.02890   0.08312   0.53184   0.00000  Uiso   1.00
Zn1019 Zn    0.11562   0.16667   0.75000   0.00000  Uiso   1.00
Zn1020 Zn    0.21771   0.16666   0.75000   0.00000  Uiso   1.00
C1021  C     0.49985   0.24661   0.74944   0.00000  Uiso   1.00
C1022  C     0.46423   0.31326   0.73571   0.00000  Uiso   1.00
C1023  C     0.50127   0.04256   0.74899   0.00000  Uiso   1.00
C1024  C     0.49978   0.29081   0.74844   0.00000  Uiso   1.00
C1025  C     0.65053   0.13917   0.72387   0.00000  Uiso   1.00
C1026  C     0.34942   0.19385   0.77650   0.00000  Uiso   1.00
C1027  C     0.36488   0.13945   0.72381   0.00000  Uiso   1.00
C1028  C     0.63512   0.19378   0.77632   0.00000  Uiso   1.00
C1029  C     0.47324   0.15855   0.83539   0.00000  Uiso   1.00
C1030  C     0.52731   0.16749   0.66249   0.00000  Uiso   1.00
C1031  C     0.46128   0.13570   0.87842   0.00000  Uiso   1.00
C1032  C     0.50045   0.08673   0.74964   0.00000  Uiso   1.00
C1033  C     0.53931   0.16111   0.61339   0.00000  Uiso   1.00
C1034  C     0.39713   0.10589   0.93422   0.00000  Uiso   1.00
C1035  C     0.59675   0.13909   0.54638   0.00000  Uiso   1.00
C1036  C     0.42135   0.11154   0.88850   0.00000  Uiso   1.00
C1037  C     0.58616   0.15774   0.58877   0.00000  Uiso   1.00
C1038  C     0.48915   0.13493   0.90892   0.00000  Uiso   1.00
C1039  C     0.50355   0.15276   0.59158   0.00000  Uiso   1.00
C1040  C     0.47106   0.11666   0.95193   0.00000  Uiso   1.00
C1041  C     0.51418   0.12891   0.55164   0.00000  Uiso   1.00
C1042  C     0.42310   0.10837   0.96744   0.00000  Uiso   1.00
C1043  C     0.43265   0.10995   0.54543   0.00000  Uiso   1.00
C1044  C     0.56156   0.11889   0.53191   0.00000  Uiso   1.00
C1045  C     0.49919   0.10943   0.98114   0.00000  Uiso   1.00
C1046  C     0.48109   0.11738   0.52744   0.00000  Uiso   1.00
C1047  C     0.36831   0.03952   0.52911   0.00000  Uiso   1.00
C1048  C     0.59244   0.02786   0.51937   0.00000  Uiso   1.00
C1049  C     0.45442   0.20643   0.58848   0.00000  Uiso   1.00
C1050  C     0.53344   0.19059   0.91468   0.00000  Uiso   1.00
C1051  C     0.65907   0.11945   0.91734   0.00000  Uiso   1.00
C1052  C     0.64456   0.18420   0.99893   0.00000  Uiso   1.00
C1053  C     0.43171   0.07131   0.60984   0.00000  Uiso   1.00
C1054  C     0.54263   0.08912   0.96722   0.00000  Uiso   1.00
C1055  C     0.52461   0.03164   0.93132   0.00000  Uiso   1.00
C1056  C     0.56813   0.04227   0.81689   0.00000  Uiso   1.00
C1057  C     0.43876   0.29064   0.67629   0.00000  Uiso   1.00
C1058  C     0.40503   0.10114   0.51486   0.00000  Uiso   1.00
C1059  C     0.57194   0.09046   0.99614   0.00000  Uiso   1.00
C1060  C     0.53658   0.31085   0.75976   0.00000  Uiso   1.00
C1061  C     0.46484   0.02255   0.73697   0.00000  Uiso   1.00
C1062  C     0.53755   0.02010   0.76045   0.00000  Uiso   1.00
Cl1063 Cl    0.63282   0.17718   0.60869   0.00000  Uiso   1.00
Cl1064 Cl    0.40465   0.08466   0.84481   0.00000  Uiso   1.00
Cl1065 Cl    0.63303   0.10225   0.68985   0.00000  Uiso   1.00
Cl1066 Cl    0.36676   0.22954   0.81188   0.00000  Uiso   1.00
H1067  H     0.56465   0.29366   0.76860   0.00000  Uiso   1.00
H1068  H     0.55956   0.01515   0.51431   0.00000  Uiso   1.00
H1069  H     0.45798   0.20271   0.55146   0.00000  Uiso   1.00
H1070  H     0.48014   0.22923   0.59411   0.00000  Uiso   1.00
H1071  H     0.41912   0.21927   0.60375   0.00000  Uiso   1.00
H1072  H     0.52433   0.18975   0.95244   0.00000  Uiso   1.00
H1073  H     0.50925   0.21187   0.90259   0.00000  Uiso   1.00
H1074  H     0.56890   0.20356   0.90291   0.00000  Uiso   1.00
H1075  H     0.34411   0.14694   0.89896   0.00000  Uiso   1.00
H1076  H     0.62591   0.13259   0.93716   0.00000  Uiso   1.00
H1077  H     0.65013   0.09717   0.89344   0.00000  Uiso   1.00
H1078  H     0.43698   0.03980   0.72781   0.00000  Uiso   1.00
H1079  H     0.64528   0.20815   0.52466   0.00000  Uiso   1.00
H1080  H     0.61602   0.19177   0.98251   0.00000  Uiso   1.00
H1081  H     0.34470   0.18635   0.97260   0.00000  Uiso   1.00
H1082  H     0.45702   0.08214   0.62822   0.00000  Uiso   1.00
H1083  H     0.44895   0.04763   0.58431   0.00000  Uiso   1.00
H1084  H     0.40335   0.05551   0.63502   0.00000  Uiso   1.00
H1085  H     0.50761   0.02163   0.96680   0.00000  Uiso   1.00
H1086  H     0.54457   0.00442   0.91411   0.00000  Uiso   1.00
H1087  H     0.49739   0.03960   0.91354   0.00000  Uiso   1.00
H1088  H     0.53557   0.05992   0.83255   0.00000  Uiso   1.00
H1089  H     0.38900   0.11768   0.70290   0.00000  Uiso   1.00
H1090  H     0.59746   0.05948   0.82410   0.00000  Uiso   1.00
H1091  H     0.56755   0.01089   0.83262   0.00000  Uiso   1.00
H1092  H     0.41003   0.27433   0.66686   0.00000  Uiso   1.00
H1093  H     0.47118   0.27200   0.66321   0.00000  Uiso   1.00
H1094  H     0.44205   0.32179   0.65968   0.00000  Uiso   1.00
H1095  H     0.61096   0.21542   0.79743   0.00000  Uiso   1.00
H1096  H     0.36876   0.02874   0.99447   0.00000  Uiso   1.00
H1097  H     0.33873   0.02492   0.55385   0.00000  Uiso   1.00
H1098  H     0.40038   0.02814   0.53806   0.00000  Uiso   1.00
H1099  H     0.58766   0.03606   0.55569   0.00000  Uiso   1.00
H1100  H     0.61884   0.00255   0.51075   0.00000  Uiso   1.00
N1101  N     0.38093   0.16668   0.75001   0.00000  Uiso   1.00
N1102  N     0.61907   0.16666   0.74999   0.00000  Uiso   1.00
O1103  O     0.46179   0.22775   0.75001   0.00000  Uiso   1.00
O1104  O     0.60835   0.06243   0.99104   0.00000  Uiso   1.00
O1105  O     0.45896   0.16794   0.60952   0.00000  Uiso   1.00
O1106  O     0.53388   0.15044   0.89641   0.00000  Uiso   1.00
O1107  O     0.34965   0.09830   0.94631   0.00000  Uiso   1.00
O1108  O     0.64056   0.14349   0.51761   0.00000  Uiso   1.00
O1109  O     0.41231   0.10573   0.59159   0.00000  Uiso   1.00
O1110  O     0.55545   0.06531   0.92820   0.00000  Uiso   1.00
O1111  O     0.57545   0.03935   0.76949   0.00000  Uiso   1.00
O1112  O     0.42777   0.29398   0.72397   0.00000  Uiso   1.00
O1113  O     0.53821   0.10558   0.75000   0.00000  Uiso   1.00
O1114  O     0.53823   0.22774   0.75000   0.00000  Uiso   1.00
O1115  O     0.46177   0.10559   0.75000   0.00000  Uiso   1.00
O1116  O     0.43994   0.16667   0.81613   0.00000  Uiso   1.00
O1117  O     0.56006   0.16666   0.68388   0.00000  Uiso   1.00
O1118  O     0.51639   0.16666   0.81612   0.00000  Uiso   1.00
O1119  O     0.48361   0.16667   0.68388   0.00000  Uiso   1.00
O1120  O     0.36224   0.08312   0.53184   0.00000  Uiso   1.00
Zn1121 Zn    0.44896   0.16667   0.75000   0.00000  Uiso   1.00
Zn1122 Zn    0.55104   0.16666   0.75000   0.00000  Uiso   1.00
C1123  C     0.83318   0.24661   0.74944   0.00000  Uiso   1.00
C1124  C     0.79756   0.31326   0.73571   0.00000  Uiso   1.00
C1125  C     0.83460   0.04256   0.74899   0.00000  Uiso   1.00
C1126  C     0.83311   0.29081   0.74844   0.00000  Uiso   1.00
C1127  C     0.98386   0.13917   0.72387   0.00000  Uiso   1.00
C1128  C     0.68275   0.19385   0.77650   0.00000  Uiso   1.00
C1129  C     0.69821   0.13945   0.72381   0.00000  Uiso   1.00
C1130  C     0.96845   0.19378   0.77632   0.00000  Uiso   1.00
C1131  C     0.80657   0.15855   0.83539   0.00000  Uiso   1.00
C1132  C     0.86064   0.16749   0.66249   0.00000  Uiso   1.00
C1133  C     0.79461   0.13570   0.87842   0.00000  Uiso   1.00
C1134  C     0.83378   0.08673   0.74964   0.00000  Uiso   1.00
C1135  C     0.87264   0.16111   0.61339   0.00000  Uiso   1.00
C1136  C     0.73046   0.10589   0.93422   0.00000  Uiso   1.00
C1137  C     0.93009   0.13909   0.54638   0.00000  Uiso   1.00
C1138  C     0.75469   0.11154   0.88850   0.00000  Uiso   1.00
C1139  C     0.91949   0.15774   0.58877   0.00000  Uiso   1.00
C1140  C     0.82248   0.13493   0.90892   0.00000  Uiso   1.00
C1141  C     0.83689   0.15276   0.59158   0.00000  Uiso   1.00
C1142  C     0.80440   0.11666   0.95193   0.00000  Uiso   1.00
C1143  C     0.84751   0.12891   0.55164   0.00000  Uiso   1.00
C1144  C     0.75643   0.10837   0.96744   0.00000  Uiso   1.00
C1145  C     0.76599   0.10995   0.54543   0.00000  Uiso   1.00
C1146  C     0.89490   0.11889   0.53191   0.00000  Uiso   1.00
C1147  C     0.83252   0.10943   0.98114   0.00000  Uiso   1.00
C1148  C     0.81442   0.11738   0.52744   0.00000  Uiso   1.00
C1149  C     0.70165   0.03952   0.52911   0.00000  Uiso   1.00
C1150  C     0.92577   0.02786   0.51937   0.00000  Uiso   1.00
C1151  C     0.78776   0.20643   0.58848   0.00000  Uiso   1.00
C1152  C     0.86677   0.19059   0.91468   0.00000  Uiso   1.00
C1153  C     0.99241   0.11945   0.91734   0.00000  Uiso   1.00
C1154  C     0.97789   0.18420   0.99893   0.00000  Uiso   1.00
C1155  C     0.76504   0.07131   0.60984   0.00000  Uiso   1.00
C1156  C     0.87597   0.08912   0.96722   0.00000  Uiso   1.00
C1157  C     0.85794   0.03164   0.93132   0.00000  Uiso   1.00
C1158  C     0.90146   0.04227   0.81689   0.00000  Uiso   1.00
C1159  C     0.77209   0.29064   0.67629   0.00000  Uiso   1.00
C1160  C     0.73836   0.10114   0.51486   0.00000  Uiso   1.00
C1161  C     0.90527   0.09046   0.99614   0.00000  Uiso   1.00
C1162  C     0.86991   0.31085   0.75976   0.00000  Uiso   1.00
C1163  C     0.79817   0.02255   0.73697   0.00000  Uiso   1.00
C1164  C     0.87088   0.02010   0.76045   0.00000  Uiso   1.00
Cl1165 Cl    0.96615   0.17718   0.60869   0.00000  Uiso   1.00
Cl1166 Cl    0.73798   0.08466   0.84481   0.00000  Uiso   1.00
Cl1167 Cl    0.96636   0.10225   0.68985   0.00000  Uiso   1.00
Cl1168 Cl    0.70010   0.22954   0.81188   0.00000  Uiso   1.00
H1169  H     0.89799   0.29366   0.76860   0.00000  Uiso   1.00
H1170  H     0.89289   0.01515   0.51431   0.00000  Uiso   1.00
H1171  H     0.79132   0.20271   0.55146   0.00000  Uiso   1.00
H1172  H     0.81347   0.22923   0.59411   0.00000  Uiso   1.00
H1173  H     0.75246   0.21927   0.60375   0.00000  Uiso   1.00
H1174  H     0.85767   0.18975   0.95244   0.00000  Uiso   1.00
H1175  H     0.84258   0.21187   0.90259   0.00000  Uiso   1.00
H1176  H     0.90224   0.20356   0.90291   0.00000  Uiso   1.00
H1177  H     0.67744   0.14694   0.89896   0.00000  Uiso   1.00
H1178  H     0.95924   0.13259   0.93716   0.00000  Uiso   1.00
H1179  H     0.98346   0.09717   0.89344   0.00000  Uiso   1.00
H1180  H     0.77031   0.03980   0.72781   0.00000  Uiso   1.00
H1181  H     0.97862   0.20815   0.52466   0.00000  Uiso   1.00
H1182  H     0.94935   0.19177   0.98251   0.00000  Uiso   1.00
H1183  H     0.67803   0.18635   0.97260   0.00000  Uiso   1.00
H1184  H     0.79035   0.08214   0.62822   0.00000  Uiso   1.00
H1185  H     0.78228   0.04763   0.58431   0.00000  Uiso   1.00
H1186  H     0.73669   0.05551   0.63502   0.00000  Uiso   1.00
H1187  H     0.84094   0.02163   0.96680   0.00000  Uiso   1.00
H1188  H     0.87790   0.00442   0.91411   0.00000  Uiso   1.00
H1189  H     0.83073   0.03960   0.91354   0.00000  Uiso   1.00
H1190  H     0.86890   0.05992   0.83255   0.00000  Uiso   1.00
H1191  H     0.72233   0.11768   0.70290   0.00000  Uiso   1.00
H1192  H     0.93080   0.05948   0.82410   0.00000  Uiso   1.00
H1193  H     0.90088   0.01089   0.83262   0.00000  Uiso   1.00
H1194  H     0.74337   0.27433   0.66686   0.00000  Uiso   1.00
H1195  H     0.80451   0.27200   0.66321   0.00000  Uiso   1.00
H1196  H     0.77539   0.32179   0.65968   0.00000  Uiso   1.00
H1197  H     0.94430   0.21542   0.79743   0.00000  Uiso   1.00
H1198  H     0.70209   0.02874   0.99447   0.00000  Uiso   1.00
H1199  H     0.67207   0.02492   0.55385   0.00000  Uiso   1.00
H1200  H     0.73371   0.02814   0.53806   0.00000  Uiso   1.00
H1201  H     0.92100   0.03606   0.55569   0.00000  Uiso   1.00
H1202  H     0.95217   0.00255   0.51075   0.00000  Uiso   1.00
N1203  N     0.71426   0.16668   0.75001   0.00000  Uiso   1.00
N1204  N     0.95241   0.16666   0.74999   0.00000  Uiso   1.00
O1205  O     0.79512   0.22775   0.75001   0.00000  Uiso   1.00
O1206  O     0.94168   0.06243   0.99104   0.00000  Uiso   1.00
O1207  O     0.79229   0.16794   0.60952   0.00000  Uiso   1.00
O1208  O     0.86721   0.15044   0.89641   0.00000  Uiso   1.00
O1209  O     0.68298   0.09830   0.94631   0.00000  Uiso   1.00
O1210  O     0.97390   0.14349   0.51761   0.00000  Uiso   1.00
O1211  O     0.74564   0.10573   0.59159   0.00000  Uiso   1.00
O1212  O     0.88878   0.06531   0.92820   0.00000  Uiso   1.00
O1213  O     0.90878   0.03935   0.76949   0.00000  Uiso   1.00
O1214  O     0.76110   0.29398   0.72397   0.00000  Uiso   1.00
O1215  O     0.87154   0.10558   0.75000   0.00000  Uiso   1.00
O1216  O     0.87157   0.22774   0.75000   0.00000  Uiso   1.00
O1217  O     0.79510   0.10559   0.75000   0.00000  Uiso   1.00
O1218  O     0.77328   0.16667   0.81613   0.00000  Uiso   1.00
O1219  O     0.89339   0.16666   0.68388   0.00000  Uiso   1.00
O1220  O     0.84972   0.16666   0.81612   0.00000  Uiso   1.00
O1221  O     0.81695   0.16667   0.68388   0.00000  Uiso   1.00
O1222  O     0.69557   0.08312   0.53184   0.00000  Uiso   1.00
Zn1223 Zn    0.78229   0.16667   0.75000   0.00000  Uiso   1.00
Zn1224 Zn    0.88438   0.16666   0.75000   0.00000  Uiso   1.00
C1225  C     0.16652   0.57994   0.74944   0.00000  Uiso   1.00
C1226  C     0.13089   0.64659   0.73571   0.00000  Uiso   1.00
C1227  C     0.16794   0.37589   0.74899   0.00000  Uiso   1.00
C1228  C     0.16645   0.62414   0.74844   0.00000  Uiso   1.00
C1229  C     0.31720   0.47250   0.72387   0.00000  Uiso   1.00
C1230  C     0.01608   0.52718   0.77650   0.00000  Uiso   1.00
C1231  C     0.03154   0.47278   0.72381   0.00000  Uiso   1.00
C1232  C     0.30178   0.52711   0.77632   0.00000  Uiso   1.00
C1233  C     0.13990   0.49188   0.83539   0.00000  Uiso   1.00
C1234  C     0.19397   0.50082   0.66249   0.00000  Uiso   1.00
C1235  C     0.12795   0.46903   0.87842   0.00000  Uiso   1.00
C1236  C     0.16711   0.42006   0.74964   0.00000  Uiso   1.00
C1237  C     0.20598   0.49444   0.61339   0.00000  Uiso   1.00
C1238  C     0.06380   0.43922   0.93422   0.00000  Uiso   1.00
C1239  C     0.26342   0.47243   0.54638   0.00000  Uiso   1.00
C1240  C     0.08802   0.44487   0.88850   0.00000  Uiso   1.00
C1241  C     0.25282   0.49108   0.58877   0.00000  Uiso   1.00
C1242  C     0.15581   0.46827   0.90892   0.00000  Uiso   1.00
C1243  C     0.17022   0.48609   0.59158   0.00000  Uiso   1.00
C1244  C     0.13773   0.45000   0.95193   0.00000  Uiso   1.00
C1245  C     0.18084   0.46224   0.55164   0.00000  Uiso   1.00
C1246  C     0.08977   0.44170   0.96744   0.00000  Uiso   1.00
C1247  C     0.09932   0.44328   0.54543   0.00000  Uiso   1.00
C1248  C     0.22823   0.45222   0.53191   0.00000  Uiso   1.00
C1249  C     0.16585   0.44277   0.98114   0.00000  Uiso   1.00
C1250  C     0.14775   0.45071   0.52744   0.00000  Uiso   1.00
C1251  C     0.03498   0.37285   0.52911   0.00000  Uiso   1.00
C1252  C     0.25911   0.36119   0.51937   0.00000  Uiso   1.00
C1253  C     0.12109   0.53976   0.58848   0.00000  Uiso   1.00
C1254  C     0.20010   0.52393   0.91468   0.00000  Uiso   1.00
C1255  C     0.32574   0.45278   0.91734   0.00000  Uiso   1.00
C1256  C     0.31123   0.51753   0.99893   0.00000  Uiso   1.00
C1257  C     0.09838   0.40464   0.60984   0.00000  Uiso   1.00
C1258  C     0.20930   0.42246   0.96722   0.00000  Uiso   1.00
C1259  C     0.19128   0.36497   0.93132   0.00000  Uiso   1.00
C1260  C     0.23480   0.37560   0.81689   0.00000  Uiso   1.00
C1261  C     0.10542   0.62397   0.67629   0.00000  Uiso   1.00
C1262  C     0.07170   0.43447   0.51486   0.00000  Uiso   1.00
C1263  C     0.23861   0.42379   0.99614   0.00000  Uiso   1.00
C1264  C     0.20325   0.64418   0.75976   0.00000  Uiso   1.00
C1265  C     0.13150   0.35588   0.73697   0.00000  Uiso   1.00
C1266  C     0.20421   0.35343   0.76045   0.00000  Uiso   1.00
Cl1267 Cl    0.29949   0.51051   0.60869   0.00000  Uiso   1.00
Cl1268 Cl    0.07131   0.41800   0.84481   0.00000  Uiso   1.00
Cl1269 Cl    0.29969   0.43558   0.68985   0.00000  Uiso   1.00
Cl1270 Cl    0.03343   0.56288   0.81188   0.00000  Uiso   1.00
H1271  H     0.23132   0.62699   0.76860   0.00000  Uiso   1.00
H1272  H     0.22622   0.34848   0.51431   0.00000  Uiso   1.00
H1273  H     0.12465   0.53605   0.55146   0.00000  Uiso   1.00
H1274  H     0.14680   0.56257   0.59411   0.00000  Uiso   1.00
H1275  H     0.08579   0.55260   0.60375   0.00000  Uiso   1.00
H1276  H     0.19100   0.52308   0.95244   0.00000  Uiso   1.00
H1277  H     0.17592   0.54521   0.90259   0.00000  Uiso   1.00
H1278  H     0.23557   0.53689   0.90291   0.00000  Uiso   1.00
H1279  H     0.01078   0.48027   0.89896   0.00000  Uiso   1.00
H1280  H     0.29257   0.46592   0.93716   0.00000  Uiso   1.00
H1281  H     0.31680   0.43051   0.89344   0.00000  Uiso   1.00
H1282  H     0.10364   0.37313   0.72781   0.00000  Uiso   1.00
H1283  H     0.31195   0.54148   0.52466   0.00000  Uiso   1.00
H1284  H     0.28269   0.52511   0.98251   0.00000  Uiso   1.00
H1285  H     0.01136   0.51969   0.97260   0.00000  Uiso   1.00
H1286  H     0.12368   0.41548   0.62822   0.00000  Uiso   1.00
H1287  H     0.11561   0.38096   0.58431   0.00000  Uiso   1.00
H1288  H     0.07002   0.38884   0.63502   0.00000  Uiso   1.00
H1289  H     0.17428   0.35497   0.96680   0.00000  Uiso   1.00
H1290  H     0.21123   0.33776   0.91411   0.00000  Uiso   1.00
H1291  H     0.16406   0.37293   0.91354   0.00000  Uiso   1.00
H1292  H     0.20223   0.39325   0.83255   0.00000  Uiso   1.00
H1293  H     0.05567   0.45101   0.70290   0.00000  Uiso   1.00
H1294  H     0.26413   0.39281   0.82410   0.00000  Uiso   1.00
H1295  H     0.23421   0.34423   0.83262   0.00000  Uiso   1.00
H1296  H     0.07670   0.60766   0.66686   0.00000  Uiso   1.00
H1297  H     0.13785   0.60533   0.66321   0.00000  Uiso   1.00
H1298  H     0.10872   0.65512   0.65968   0.00000  Uiso   1.00
H1299  H     0.27763   0.54875   0.79743   0.00000  Uiso   1.00
H1300  H     0.03543   0.36208   0.99447   0.00000  Uiso   1.00
H1301  H     0.00540   0.35825   0.55385   0.00000  Uiso   1.00
H1302  H     0.06704   0.36148   0.53806   0.00000  Uiso   1.00
H1303  H     0.25433   0.36939   0.55569   0.00000  Uiso   1.00
H1304  H     0.28550   0.33589   0.51075   0.00000  Uiso   1.00
N1305  N     0.04759   0.50001   0.75001   0.00000  Uiso   1.00
N1306  N     0.28574   0.49999   0.74999   0.00000  Uiso   1.00
O1307  O     0.12846   0.56108   0.75001   0.00000  Uiso   1.00
O1308  O     0.27501   0.39577   0.99104   0.00000  Uiso   1.00
O1309  O     0.12562   0.50127   0.60952   0.00000  Uiso   1.00
O1310  O     0.20054   0.48377   0.89641   0.00000  Uiso   1.00
O1311  O     0.01632   0.43163   0.94631   0.00000  Uiso   1.00
O1312  O     0.30723   0.47682   0.51761   0.00000  Uiso   1.00
O1313  O     0.07898   0.43906   0.59159   0.00000  Uiso   1.00
O1314  O     0.22211   0.39865   0.92820   0.00000  Uiso   1.00
O1315  O     0.24212   0.37269   0.76949   0.00000  Uiso   1.00
O1316  O     0.09443   0.62731   0.72397   0.00000  Uiso   1.00
O1317  O     0.20488   0.43892   0.75000   0.00000  Uiso   1.00
O1318  O     0.20490   0.56107   0.75000   0.00000  Uiso   1.00
O1319  O     0.12843   0.43893   0.75000   0.00000  Uiso   1.00
O1320  O     0.10661   0.50001   0.81613   0.00000  Uiso   1.00
O1321  O     0.22672   0.49999   0.68388   0.00000  Uiso   1.00
O1322  O     0.18305   0.50000   0.81612   0.00000  Uiso   1.00
O1323  O     0.15028   0.50000   0.68388   0.00000  Uiso   1.00
O1324  O     0.02890   0.41646   0.53184   0.00000  Uiso   1.00
Zn1325 Zn    0.11562   0.50001   0.75000   0.00000  Uiso   1.00
Zn1326 Zn    0.21771   0.49999   0.75000   0.00000  Uiso   1.00
C1327  C     0.49985   0.57994   0.74944   0.00000  Uiso   1.00
C1328  C     0.46423   0.64659   0.73571   0.00000  Uiso   1.00
C1329  C     0.50127   0.37589   0.74899   0.00000  Uiso   1.00
C1330  C     0.49978   0.62414   0.74844   0.00000  Uiso   1.00
C1331  C     0.65053   0.47250   0.72387   0.00000  Uiso   1.00
C1332  C     0.34942   0.52718   0.77650   0.00000  Uiso   1.00
C1333  C     0.36488   0.47278   0.72381   0.00000  Uiso   1.00
C1334  C     0.63512   0.52711   0.77632   0.00000  Uiso   1.00
C1335  C     0.47324   0.49188   0.83539   0.00000  Uiso   1.00
C1336  C     0.52731   0.50082   0.66249   0.00000  Uiso   1.00
C1337  C     0.46128   0.46903   0.87842   0.00000  Uiso   1.00
C1338  C     0.50045   0.42006   0.74964   0.00000  Uiso   1.00
C1339  C     0.53931   0.49444   0.61339   0.00000  Uiso   1.00
C1340  C     0.39713   0.43922   0.93422   0.00000  Uiso   1.00
C1341  C     0.59675   0.47243   0.54638   0.00000  Uiso   1.00
C1342  C     0.42135   0.44487   0.88850   0.00000  Uiso   1.00
C1343  C     0.58616   0.49108   0.58877   0.00000  Uiso   1.00
C1344  C     0.48915   0.46827   0.90892   0.00000  Uiso   1.00
C1345  C     0.50355   0.48609   0.59158   0.00000  Uiso   1.00
C1346  C     0.47106   0.45000   0.95193   0.00000  Uiso   1.00
C1347  C     0.51418   0.46224   0.55164   0.00000  Uiso   1.00
C1348  C     0.42310   0.44170   0.96744   0.00000  Uiso   1.00
C1349  C     0.43265   0.44328   0.54543   0.00000  Uiso   1.00
C1350  C     0.56156   0.45222   0.53191   0.00000  Uiso   1.00
C1351  C     0.49919   0.44277   0.98114   0.00000  Uiso   1.00
C1352  C     0.48109   0.45071   0.52744   0.00000  Uiso   1.00
C1353  C     0.36831   0.37285   0.52911   0.00000  Uiso   1.00
C1354  C     0.59244   0.36119   0.51937   0.00000  Uiso   1.00
C1355  C     0.45442   0.53976   0.58848   0.00000  Uiso   1.00
C1356  C     0.53344   0.52393   0.91468   0.00000  Uiso   1.00
C1357  C     0.65907   0.45278   0.91734   0.00000  Uiso   1.00
C1358  C     0.64456   0.51753   0.99893   0.00000  Uiso   1.00
C1359  C     0.43171   0.40464   0.60984   0.00000  Uiso   1.00
C1360  C     0.54263   0.42246   0.96722   0.00000  Uiso   1.00
C1361  C     0.52461   0.36497   0.93132   0.00000  Uiso   1.00
C1362  C     0.56813   0.37560   0.81689   0.00000  Uiso   1.00
C1363  C     0.43876   0.62397   0.67629   0.00000  Uiso   1.00
C1364  C     0.40503   0.43447   0.51486   0.00000  Uiso   1.00
C1365  C     0.57194   0.42379   0.99614   0.00000  Uiso   1.00
C1366  C     0.53658   0.64418   0.75976   0.00000  Uiso   1.00
C1367  C     0.46484   0.35588   0.73697   0.00000  Uiso   1.00
C1368  C     0.53755   0.35343   0.76045   0.00000  Uiso   1.00
Cl1369 Cl    0.63282   0.51051   0.60869   0.00000  Uiso   1.00
Cl1370 Cl    0.40465   0.41800   0.84481   0.00000  Uiso   1.00
Cl1371 Cl    0.63303   0.43558   0.68985   0.00000  Uiso   1.00
Cl1372 Cl    0.36676   0.56288   0.81188   0.00000  Uiso   1.00
H1373  H     0.56465   0.62699   0.76860   0.00000  Uiso   1.00
H1374  H     0.55956   0.34848   0.51431   0.00000  Uiso   1.00
H1375  H     0.45798   0.53605   0.55146   0.00000  Uiso   1.00
H1376  H     0.48014   0.56257   0.59411   0.00000  Uiso   1.00
H1377  H     0.41912   0.55260   0.60375   0.00000  Uiso   1.00
H1378  H     0.52433   0.52308   0.95244   0.00000  Uiso   1.00
H1379  H     0.50925   0.54521   0.90259   0.00000  Uiso   1.00
H1380  H     0.56890   0.53689   0.90291   0.00000  Uiso   1.00
H1381  H     0.34411   0.48027   0.89896   0.00000  Uiso   1.00
H1382  H     0.62591   0.46592   0.93716   0.00000  Uiso   1.00
H1383  H     0.65013   0.43051   0.89344   0.00000  Uiso   1.00
H1384  H     0.43698   0.37313   0.72781   0.00000  Uiso   1.00
H1385  H     0.64528   0.54148   0.52466   0.00000  Uiso   1.00
H1386  H     0.61602   0.52511   0.98251   0.00000  Uiso   1.00
H1387  H     0.34470   0.51969   0.97260   0.00000  Uiso   1.00
H1388  H     0.45702   0.41548   0.62822   0.00000  Uiso   1.00
H1389  H     0.44895   0.38096   0.58431   0.00000  Uiso   1.00
H1390  H     0.40335   0.38884   0.63502   0.00000  Uiso   1.00
H1391  H     0.50761   0.35497   0.96680   0.00000  Uiso   1.00
H1392  H     0.54457   0.33776   0.91411   0.00000  Uiso   1.00
H1393  H     0.49739   0.37293   0.91354   0.00000  Uiso   1.00
H1394  H     0.53557   0.39325   0.83255   0.00000  Uiso   1.00
H1395  H     0.38900   0.45101   0.70290   0.00000  Uiso   1.00
H1396  H     0.59746   0.39281   0.82410   0.00000  Uiso   1.00
H1397  H     0.56755   0.34423   0.83262   0.00000  Uiso   1.00
H1398  H     0.41003   0.60766   0.66686   0.00000  Uiso   1.00
H1399  H     0.47118   0.60533   0.66321   0.00000  Uiso   1.00
H1400  H     0.44205   0.65512   0.65968   0.00000  Uiso   1.00
H1401  H     0.61096   0.54875   0.79743   0.00000  Uiso   1.00
H1402  H     0.36876   0.36208   0.99447   0.00000  Uiso   1.00
H1403  H     0.33873   0.35825   0.55385   0.00000  Uiso   1.00
H1404  H     0.40038   0.36148   0.53806   0.00000  Uiso   1.00
H1405  H     0.58766   0.36939   0.55569   0.00000  Uiso   1.00
H1406  H     0.61884   0.33589   0.51075   0.00000  Uiso   1.00
N1407  N     0.38093   0.50001   0.75001   0.00000  Uiso   1.00
N1408  N     0.61907   0.49999   0.74999   0.00000  Uiso   1.00
O1409  O     0.46179   0.56108   0.75001   0.00000  Uiso   1.00
O1410  O     0.60835   0.39577   0.99104   0.00000  Uiso   1.00
O1411  O     0.45896   0.50127   0.60952   0.00000  Uiso   1.00
O1412  O     0.53388   0.48377   0.89641   0.00000  Uiso   1.00
O1413  O     0.34965   0.43163   0.94631   0.00000  Uiso   1.00
O1414  O     0.64056   0.47682   0.51761   0.00000  Uiso   1.00
O1415  O     0.41231   0.43906   0.59159   0.00000  Uiso   1.00
O1416  O     0.55545   0.39865   0.92820   0.00000  Uiso   1.00
O1417  O     0.57545   0.37269   0.76949   0.00000  Uiso   1.00
O1418  O     0.42777   0.62731   0.72397   0.00000  Uiso   1.00
O1419  O     0.53821   0.43892   0.75000   0.00000  Uiso   1.00
O1420  O     0.53823   0.56107   0.75000   0.00000  Uiso   1.00
O1421  O     0.46177   0.43893   0.75000   0.00000  Uiso   1.00
O1422  O     0.43994   0.50001   0.81613   0.00000  Uiso   1.00
O1423  O     0.56006   0.49999   0.68388   0.00000  Uiso   1.00
O1424  O     0.51639   0.50000   0.81612   0.00000  Uiso   1.00
O1425  O     0.48361   0.50000   0.68388   0.00000  Uiso   1.00
O1426  O     0.36224   0.41646   0.53184   0.00000  Uiso   1.00
Zn1427 Zn    0.44896   0.50001   0.75000   0.00000  Uiso   1.00
Zn1428 Zn    0.55104   0.49999   0.75000   0.00000  Uiso   1.00
C1429  C     0.83318   0.57994   0.74944   0.00000  Uiso   1.00
C1430  C     0.79756   0.64659   0.73571   0.00000  Uiso   1.00
C1431  C     0.83460   0.37589   0.74899   0.00000  Uiso   1.00
C1432  C     0.83311   0.62414   0.74844   0.00000  Uiso   1.00
C1433  C     0.98386   0.47250   0.72387   0.00000  Uiso   1.00
C1434  C     0.68275   0.52718   0.77650   0.00000  Uiso   1.00
C1435  C     0.69821   0.47278   0.72381   0.00000  Uiso   1.00
C1436  C     0.96845   0.52711   0.77632   0.00000  Uiso   1.00
C1437  C     0.80657   0.49188   0.83539   0.00000  Uiso   1.00
C1438  C     0.86064   0.50082   0.66249   0.00000  Uiso   1.00
C1439  C     0.79461   0.46903   0.87842   0.00000  Uiso   1.00
C1440  C     0.83378   0.42006   0.74964   0.00000  Uiso   1.00
C1441  C     0.87264   0.49444   0.61339   0.00000  Uiso   1.00
C1442  C     0.73046   0.43922   0.93422   0.00000  Uiso   1.00
C1443  C     0.93009   0.47243   0.54638   0.00000  Uiso   1.00
C1444  C     0.75469   0.44487   0.88850   0.00000  Uiso   1.00
C1445  C     0.91949   0.49108   0.58877   0.00000  Uiso   1.00
C1446  C     0.82248   0.46827   0.90892   0.00000  Uiso   1.00
C1447  C     0.83689   0.48609   0.59158   0.00000  Uiso   1.00
C1448  C     0.80440   0.45000   0.95193   0.00000  Uiso   1.00
C1449  C     0.84751   0.46224   0.55164   0.00000  Uiso   1.00
C1450  C     0.75643   0.44170   0.96744   0.00000  Uiso   1.00
C1451  C     0.76599   0.44328   0.54543   0.00000  Uiso   1.00
C1452  C     0.89490   0.45222   0.53191   0.00000  Uiso   1.00
C1453  C     0.83252   0.44277   0.98114   0.00000  Uiso   1.00
C1454  C     0.81442   0.45071   0.52744   0.00000  Uiso   1.00
C1455  C     0.70165   0.37285   0.52911   0.00000  Uiso   1.00
C1456  C     0.92577   0.36119   0.51937   0.00000  Uiso   1.00
C1457  C     0.78776   0.53976   0.58848   0.00000  Uiso   1.00
C1458  C     0.86677   0.52393   0.91468   0.00000  Uiso   1.00
C1459  C     0.99241   0.45278   0.91734   0.00000  Uiso   1.00
C1460  C     0.97789   0.51753   0.99893   0.00000  Uiso   1.00
C1461  C     0.76504   0.40464   0.60984   0.00000  Uiso   1.00
C1462  C     0.87597   0.42246   0.96722   0.00000  Uiso   1.00
C1463  C     0.85794   0.36497   0.93132   0.00000  Uiso   1.00
C1464  C     0.90146   0.37560   0.81689   0.00000  Uiso   1.00
C1465  C     0.77209   0.62397   0.67629   0.00000  Uiso   1.00
C1466  C     0.73836   0.43447   0.51486   0.00000  Uiso   1.00
C1467  C     0.90527   0.42379   0.99614   0.00000  Uiso   1.00
C1468  C     0.86991   0.64418   0.75976   0.00000  Uiso   1.00
C1469  C     0.79817   0.35588   0.73697   0.00000  Uiso   1.00
C1470  C     0.87088   0.35343   0.76045   0.00000  Uiso   1.00
Cl1471 Cl    0.96615   0.51051   0.60869   0.00000  Uiso   1.00
Cl1472 Cl    0.73798   0.41800   0.84481   0.00000  Uiso   1.00
Cl1473 Cl    0.96636   0.43558   0.68985   0.00000  Uiso   1.00
Cl1474 Cl    0.70010   0.56288   0.81188   0.00000  Uiso   1.00
H1475  H     0.89799   0.62699   0.76860   0.00000  Uiso   1.00
H1476  H     0.89289   0.34848   0.51431   0.00000  Uiso   1.00
H1477  H     0.79132   0.53605   0.55146   0.00000  Uiso   1.00
H1478  H     0.81347   0.56257   0.59411   0.00000  Uiso   1.00
H1479  H     0.75246   0.55260   0.60375   0.00000  Uiso   1.00
H1480  H     0.85767   0.52308   0.95244   0.00000  Uiso   1.00
H1481  H     0.84258   0.54521   0.90259   0.00000  Uiso   1.00
H1482  H     0.90224   0.53689   0.90291   0.00000  Uiso   1.00
H1483  H     0.67744   0.48027   0.89896   0.00000  Uiso   1.00
H1484  H     0.95924   0.46592   0.93716   0.00000  Uiso   1.00
H1485  H     0.98346   0.43051   0.89344   0.00000  Uiso   1.00
H1486  H     0.77031   0.37313   0.72781   0.00000  Uiso   1.00
H1487  H     0.97862   0.54148   0.52466   0.00000  Uiso   1.00
H1488  H     0.94935   0.52511   0.98251   0.00000  Uiso   1.00
H1489  H     0.67803   0.51969   0.97260   0.00000  Uiso   1.00
H1490  H     0.79035   0.41548   0.62822   0.00000  Uiso   1.00
H1491  H     0.78228   0.38096   0.58431   0.00000  Uiso   1.00
H1492  H     0.73669   0.38884   0.63502   0.00000  Uiso   1.00
H1493  H     0.84094   0.35497   0.96680   0.00000  Uiso   1.00
H1494  H     0.87790   0.33776   0.91411   0.00000  Uiso   1.00
H1495  H     0.83073   0.37293   0.91354   0.00000  Uiso   1.00
H1496  H     0.86890   0.39325   0.83255   0.00000  Uiso   1.00
H1497  H     0.72233   0.45101   0.70290   0.00000  Uiso   1.00
H1498  H     0.93080   0.39281   0.82410   0.00000  Uiso   1.00
H1499  H     0.90088   0.34423   0.83262   0.00000  Uiso   1.00
H1500  H     0.74337   0.60766   0.66686   0.00000  Uiso   1.00
H1501  H     0.80451   0.60533   0.66321   0.00000  Uiso   1.00
H1502  H     0.77539   0.65512   0.65968   0.00000  Uiso   1.00
H1503  H     0.94430   0.54875   0.79743   0.00000  Uiso   1.00
H1504  H     0.70209   0.36208   0.99447   0.00000  Uiso   1.00
H1505  H     0.67207   0.35825   0.55385   0.00000  Uiso   1.00
H1506  H     0.73371   0.36148   0.53806   0.00000  Uiso   1.00
H1507  H     0.92100   0.36939   0.55569   0.00000  Uiso   1.00
H1508  H     0.95217   0.33589   0.51075   0.00000  Uiso   1.00
N1509  N     0.71426   0.50001   0.75001   0.00000  Uiso   1.00
N1510  N     0.95241   0.49999   0.74999   0.00000  Uiso   1.00
O1511  O     0.79512   0.56108   0.75001   0.00000  Uiso   1.00
O1512  O     0.94168   0.39577   0.99104   0.00000  Uiso   1.00
O1513  O     0.79229   0.50127   0.60952   0.00000  Uiso   1.00
O1514  O     0.86721   0.48377   0.89641   0.00000  Uiso   1.00
O1515  O     0.68298   0.43163   0.94631   0.00000  Uiso   1.00
O1516  O     0.97390   0.47682   0.51761   0.00000  Uiso   1.00
O1517  O     0.74564   0.43906   0.59159   0.00000  Uiso   1.00
O1518  O     0.88878   0.39865   0.92820   0.00000  Uiso   1.00
O1519  O     0.90878   0.37269   0.76949   0.00000  Uiso   1.00
O1520  O     0.76110   0.62731   0.72397   0.00000  Uiso   1.00
O1521  O     0.87154   0.43892   0.75000   0.00000  Uiso   1.00
O1522  O     0.87157   0.56107   0.75000   0.00000  Uiso   1.00
O1523  O     0.79510   0.43893   0.75000   0.00000  Uiso   1.00
O1524  O     0.77328   0.50001   0.81613   0.00000  Uiso   1.00
O1525  O     0.89339   0.49999   0.68388   0.00000  Uiso   1.00
O1526  O     0.84972   0.50000   0.81612   0.00000  Uiso   1.00
O1527  O     0.81695   0.50000   0.68388   0.00000  Uiso   1.00
O1528  O     0.69557   0.41646   0.53184   0.00000  Uiso   1.00
Zn1529 Zn    0.78229   0.50001   0.75000   0.00000  Uiso   1.00
Zn1530 Zn    0.88438   0.49999   0.75000   0.00000  Uiso   1.00
C1531  C     0.16652   0.91327   0.74944   0.00000  Uiso   1.00
C1532  C     0.13089   0.97993   0.73571   0.00000  Uiso   1.00
C1533  C     0.16794   0.70922   0.74899   0.00000  Uiso   1.00
C1534  C     0.16645   0.95747   0.74844   0.00000  Uiso   1.00
C1535  C     0.31720   0.80584   0.72387   0.00000  Uiso   1.00
C1536  C     0.01608   0.86051   0.77650   0.00000  Uiso   1.00
C1537  C     0.03154   0.80611   0.72381   0.00000  Uiso   1.00
C1538  C     0.30178   0.86045   0.77632   0.00000  Uiso   1.00
C1539  C     0.13990   0.82522   0.83539   0.00000  Uiso   1.00
C1540  C     0.19397   0.83415   0.66249   0.00000  Uiso   1.00
C1541  C     0.12795   0.80237   0.87842   0.00000  Uiso   1.00
C1542  C     0.16711   0.75340   0.74964   0.00000  Uiso   1.00
C1543  C     0.20598   0.82778   0.61339   0.00000  Uiso   1.00
C1544  C     0.06380   0.77256   0.93422   0.00000  Uiso   1.00
C1545  C     0.26342   0.80576   0.54638   0.00000  Uiso   1.00
C1546  C     0.08802   0.77821   0.88850   0.00000  Uiso   1.00
C1547  C     0.25282   0.82441   0.58877   0.00000  Uiso   1.00
C1548  C     0.15581   0.80160   0.90892   0.00000  Uiso   1.00
C1549  C     0.17022   0.81943   0.59158   0.00000  Uiso   1.00
C1550  C     0.13773   0.78333   0.95193   0.00000  Uiso   1.00
C1551  C     0.18084   0.79558   0.55164   0.00000  Uiso   1.00
C1552  C     0.08977   0.77503   0.96744   0.00000  Uiso   1.00
C1553  C     0.09932   0.77662   0.54543   0.00000  Uiso   1.00
C1554  C     0.22823   0.78556   0.53191   0.00000  Uiso   1.00
C1555  C     0.16585   0.77610   0.98114   0.00000  Uiso   1.00
C1556  C     0.14775   0.78404   0.52744   0.00000  Uiso   1.00
C1557  C     0.03498   0.70618   0.52911   0.00000  Uiso   1.00
C1558  C     0.25911   0.69452   0.51937   0.00000  Uiso   1.00
C1559  C     0.12109   0.87310   0.58848   0.00000  Uiso   1.00
C1560  C     0.20010   0.85726   0.91468   0.00000  Uiso   1.00
C1561  C     0.32574   0.78612   0.91734   0.00000  Uiso   1.00
C1562  C     0.31123   0.85087   0.99893   0.00000  Uiso   1.00
C1563  C     0.09838   0.73797   0.60984   0.00000  Uiso   1.00
C1564  C     0.20930   0.75579   0.96722   0.00000  Uiso   1.00
C1565  C     0.19128   0.69831   0.93132   0.00000  Uiso   1.00
C1566  C     0.23480   0.70893   0.81689   0.00000  Uiso   1.00
C1567  C     0.10542   0.95731   0.67629   0.00000  Uiso   1.00
C1568  C     0.07170   0.76780   0.51486   0.00000  Uiso   1.00
C1569  C     0.23861   0.75713   0.99614   0.00000  Uiso   1.00
C1570  C     0.20325   0.97751   0.75976   0.00000  Uiso   1.00
C1571  C     0.13150   0.68921   0.73697   0.00000  Uiso   1.00
C1572  C     0.20421   0.68677   0.76045   0.00000  Uiso   1.00
Cl1573 Cl    0.29949   0.84384   0.60869   0.00000  Uiso   1.00
Cl1574 Cl    0.07131   0.75133   0.84481   0.00000  Uiso   1.00
Cl1575 Cl    0.29969   0.76891   0.68985   0.00000  Uiso   1.00
Cl1576 Cl    0.03343   0.89621   0.81188   0.00000  Uiso   1.00
H1577  H     0.23132   0.96033   0.76860   0.00000  Uiso   1.00
H1578  H     0.22622   0.68182   0.51431   0.00000  Uiso   1.00
H1579  H     0.12465   0.86938   0.55146   0.00000  Uiso   1.00
H1580  H     0.14680   0.89590   0.59411   0.00000  Uiso   1.00
H1581  H     0.08579   0.88594   0.60375   0.00000  Uiso   1.00
H1582  H     0.19100   0.85642   0.95244   0.00000  Uiso   1.00
H1583  H     0.17592   0.87854   0.90259   0.00000  Uiso   1.00
H1584  H     0.23557   0.87023   0.90291   0.00000  Uiso   1.00
H1585  H     0.01078   0.81360   0.89896   0.00000  Uiso   1.00
H1586  H     0.29257   0.79925   0.93716   0.00000  Uiso   1.00
H1587  H     0.31680   0.76384   0.89344   0.00000  Uiso   1.00
H1588  H     0.10364   0.70646   0.72781   0.00000  Uiso   1.00
H1589  H     0.31195   0.87481   0.52466   0.00000  Uiso   1.00
H1590  H     0.28269   0.85844   0.98251   0.00000  Uiso   1.00
H1591  H     0.01136   0.85302   0.97260   0.00000  Uiso   1.00
H1592  H     0.12368   0.74881   0.62822   0.00000  Uiso   1.00
H1593  H     0.11561   0.71430   0.58431   0.00000  Uiso   1.00
H1594  H     0.07002   0.72217   0.63502   0.00000  Uiso   1.00
H1595  H     0.17428   0.68830   0.96680   0.00000  Uiso   1.00
H1596  H     0.21123   0.67109   0.91411   0.00000  Uiso   1.00
H1597  H     0.16406   0.70626   0.91354   0.00000  Uiso   1.00
H1598  H     0.20223   0.72659   0.83255   0.00000  Uiso   1.00
H1599  H     0.05567   0.78434   0.70290   0.00000  Uiso   1.00
H1600  H     0.26413   0.72614   0.82410   0.00000  Uiso   1.00
H1601  H     0.23421   0.67756   0.83262   0.00000  Uiso   1.00
H1602  H     0.07670   0.94100   0.66686   0.00000  Uiso   1.00
H1603  H     0.13785   0.93866   0.66321   0.00000  Uiso   1.00
H1604  H     0.10872   0.98846   0.65968   0.00000  Uiso   1.00
H1605  H     0.27763   0.88208   0.79743   0.00000  Uiso   1.00
H1606  H     0.03543   0.69541   0.99447   0.00000  Uiso   1.00
H1607  H     0.00540   0.69158   0.55385   0.00000  Uiso   1.00
H1608  H     0.06704   0.69481   0.53806   0.00000  Uiso   1.00
H1609  H     0.25433   0.70273   0.55569   0.00000  Uiso   1.00
H1610  H     0.28550   0.66922   0.51075   0.00000  Uiso   1.00
N1611  N     0.04759   0.83334   0.75001   0.00000  Uiso   1.00
N1612  N     0.28574   0.83332   0.74999   0.00000  Uiso   1.00
O1613  O     0.12846   0.89442   0.75001   0.00000  Uiso   1.00
O1614  O     0.27501   0.72910   0.99104   0.00000  Uiso   1.00
O1615  O     0.12562   0.83461   0.60952   0.00000  Uiso   1.00
O1616  O     0.20054   0.81711   0.89641   0.00000  Uiso   1.00
O1617  O     0.01632   0.76496   0.94631   0.00000  Uiso   1.00
O1618  O     0.30723   0.81015   0.51761   0.00000  Uiso   1.00
O1619  O     0.07898   0.77239   0.59159   0.00000  Uiso   1.00
O1620  O     0.22211   0.73198   0.92820   0.00000  Uiso   1.00
O1621  O     0.24212   0.70602   0.76949   0.00000  Uiso   1.00
O1622  O     0.09443   0.96064   0.72397   0.00000  Uiso   1.00
O1623  O     0.20488   0.77225   0.75000   0.00000  Uiso   1.00
O1624  O     0.20490   0.89441   0.75000   0.00000  Uiso   1.00
O1625  O     0.12843   0.77226   0.75000   0.00000  Uiso   1.00
O1626  O     0.10661   0.83334   0.81613   0.00000  Uiso   1.00
O1627  O     0.22672   0.83333   0.68388   0.00000  Uiso   1.00
O1628  O     0.18305   0.83333   0.81612   0.00000  Uiso   1.00
O1629  O     0.15028   0.83334   0.68388   0.00000  Uiso   1.00
O1630  O     0.02890   0.74979   0.53184   0.00000  Uiso   1.00
Zn1631 Zn    0.11562   0.83334   0.75000   0.00000  Uiso   1.00
Zn1632 Zn    0.21771   0.83333   0.75000   0.00000  Uiso   1.00
C1633  C     0.49985   0.91327   0.74944   0.00000  Uiso   1.00
C1634  C     0.46423   0.97993   0.73571   0.00000  Uiso   1.00
C1635  C     0.50127   0.70922   0.74899   0.00000  Uiso   1.00
C1636  C     0.49978   0.95747   0.74844   0.00000  Uiso   1.00
C1637  C     0.65053   0.80584   0.72387   0.00000  Uiso   1.00
C1638  C     0.34942   0.86051   0.77650   0.00000  Uiso   1.00
C1639  C     0.36488   0.80611   0.72381   0.00000  Uiso   1.00
C1640  C     0.63512   0.86045   0.77632   0.00000  Uiso   1.00
C1641  C     0.47324   0.82522   0.83539   0.00000  Uiso   1.00
C1642  C     0.52731   0.83415   0.66249   0.00000  Uiso   1.00
C1643  C     0.46128   0.80237   0.87842   0.00000  Uiso   1.00
C1644  C     0.50045   0.75340   0.74964   0.00000  Uiso   1.00
C1645  C     0.53931   0.82778   0.61339   0.00000  Uiso   1.00
C1646  C     0.39713   0.77256   0.93422   0.00000  Uiso   1.00
C1647  C     0.59675   0.80576   0.54638   0.00000  Uiso   1.00
C1648  C     0.42135   0.77821   0.88850   0.00000  Uiso   1.00
C1649  C     0.58616   0.82441   0.58877   0.00000  Uiso   1.00
C1650  C     0.48915   0.80160   0.90892   0.00000  Uiso   1.00
C1651  C     0.50355   0.81943   0.59158   0.00000  Uiso   1.00
C1652  C     0.47106   0.78333   0.95193   0.00000  Uiso   1.00
C1653  C     0.51418   0.79558   0.55164   0.00000  Uiso   1.00
C1654  C     0.42310   0.77503   0.96744   0.00000  Uiso   1.00
C1655  C     0.43265   0.77662   0.54543   0.00000  Uiso   1.00
C1656  C     0.56156   0.78556   0.53191   0.00000  Uiso   1.00
C1657  C     0.49919   0.77610   0.98114   0.00000  Uiso   1.00
C1658  C     0.48109   0.78404   0.52744   0.00000  Uiso   1.00
C1659  C     0.36831   0.70618   0.52911   0.00000  Uiso   1.00
C1660  C     0.59244   0.69452   0.51937   0.00000  Uiso   1.00
C1661  C     0.45442   0.87310   0.58848   0.00000  Uiso   1.00
C1662  C     0.53344   0.85726   0.91468   0.00000  Uiso   1.00
C1663  C     0.65907   0.78612   0.91734   0.00000  Uiso   1.00
C1664  C     0.64456   0.85087   0.99893   0.00000  Uiso   1.00
C1665  C     0.43171   0.73797   0.60984   0.00000  Uiso   1.00
C1666  C     0.54263   0.75579   0.96722   0.00000  Uiso   1.00
C1667  C     0.52461   0.69831   0.93132   0.00000  Uiso   1.00
C1668  C     0.56813   0.70893   0.81689   0.00000  Uiso   1.00
C1669  C     0.43876   0.95731   0.67629   0.00000  Uiso   1.00
C1670  C     0.40503   0.76780   0.51486   0.00000  Uiso   1.00
C1671  C     0.57194   0.75713   0.99614   0.00000  Uiso   1.00
C1672  C     0.53658   0.97751   0.75976   0.00000  Uiso   1.00
C1673  C     0.46484   0.68921   0.73697   0.00000  Uiso   1.00
C1674  C     0.53755   0.68677   0.76045   0.00000  Uiso   1.00
Cl1675 Cl    0.63282   0.84384   0.60869   0.00000  Uiso   1.00
Cl1676 Cl    0.40465   0.75133   0.84481   0.00000  Uiso   1.00
Cl1677 Cl    0.63303   0.76891   0.68985   0.00000  Uiso   1.00
Cl1678 Cl    0.36676   0.89621   0.81188   0.00000  Uiso   1.00
H1679  H     0.56465   0.96033   0.76860   0.00000  Uiso   1.00
H1680  H     0.55956   0.68182   0.51431   0.00000  Uiso   1.00
H1681  H     0.45798   0.86938   0.55146   0.00000  Uiso   1.00
H1682  H     0.48014   0.89590   0.59411   0.00000  Uiso   1.00
H1683  H     0.41912   0.88594   0.60375   0.00000  Uiso   1.00
H1684  H     0.52433   0.85642   0.95244   0.00000  Uiso   1.00
H1685  H     0.50925   0.87854   0.90259   0.00000  Uiso   1.00
H1686  H     0.56890   0.87023   0.90291   0.00000  Uiso   1.00
H1687  H     0.34411   0.81360   0.89896   0.00000  Uiso   1.00
H1688  H     0.62591   0.79925   0.93716   0.00000  Uiso   1.00
H1689  H     0.65013   0.76384   0.89344   0.00000  Uiso   1.00
H1690  H     0.43698   0.70646   0.72781   0.00000  Uiso   1.00
H1691  H     0.64528   0.87481   0.52466   0.00000  Uiso   1.00
H1692  H     0.61602   0.85844   0.98251   0.00000  Uiso   1.00
H1693  H     0.34470   0.85302   0.97260   0.00000  Uiso   1.00
H1694  H     0.45702   0.74881   0.62822   0.00000  Uiso   1.00
H1695  H     0.44895   0.71430   0.58431   0.00000  Uiso   1.00
H1696  H     0.40335   0.72217   0.63502   0.00000  Uiso   1.00
H1697  H     0.50761   0.68830   0.96680   0.00000  Uiso   1.00
H1698  H     0.54457   0.67109   0.91411   0.00000  Uiso   1.00
H1699  H     0.49739   0.70626   0.91354   0.00000  Uiso   1.00
H1700  H     0.53557   0.72659   0.83255   0.00000  Uiso   1.00
H1701  H     0.38900   0.78434   0.70290   0.00000  Uiso   1.00
H1702  H     0.59746   0.72614   0.82410   0.00000  Uiso   1.00
H1703  H     0.56755   0.67756   0.83262   0.00000  Uiso   1.00
H1704  H     0.41003   0.94100   0.66686   0.00000  Uiso   1.00
H1705  H     0.47118   0.93866   0.66321   0.00000  Uiso   1.00
H1706  H     0.44205   0.98846   0.65968   0.00000  Uiso   1.00
H1707  H     0.61096   0.88208   0.79743   0.00000  Uiso   1.00
H1708  H     0.36876   0.69541   0.99447   0.00000  Uiso   1.00
H1709  H     0.33873   0.69158   0.55385   0.00000  Uiso   1.00
H1710  H     0.40038   0.69481   0.53806   0.00000  Uiso   1.00
H1711  H     0.58766   0.70273   0.55569   0.00000  Uiso   1.00
H1712  H     0.61884   0.66922   0.51075   0.00000  Uiso   1.00
N1713  N     0.38093   0.83334   0.75001   0.00000  Uiso   1.00
N1714  N     0.61907   0.83332   0.74999   0.00000  Uiso   1.00
O1715  O     0.46179   0.89442   0.75001   0.00000  Uiso   1.00
O1716  O     0.60835   0.72910   0.99104   0.00000  Uiso   1.00
O1717  O     0.45896   0.83461   0.60952   0.00000  Uiso   1.00
O1718  O     0.53388   0.81711   0.89641   0.00000  Uiso   1.00
O1719  O     0.34965   0.76496   0.94631   0.00000  Uiso   1.00
O1720  O     0.64056   0.81015   0.51761   0.00000  Uiso   1.00
O1721  O     0.41231   0.77239   0.59159   0.00000  Uiso   1.00
O1722  O     0.55545   0.73198   0.92820   0.00000  Uiso   1.00
O1723  O     0.57545   0.70602   0.76949   0.00000  Uiso   1.00
O1724  O     0.42777   0.96064   0.72397   0.00000  Uiso   1.00
O1725  O     0.53821   0.77225   0.75000   0.00000  Uiso   1.00
O1726  O     0.53823   0.89441   0.75000   0.00000  Uiso   1.00
O1727  O     0.46177   0.77226   0.75000   0.00000  Uiso   1.00
O1728  O     0.43994   0.83334   0.81613   0.00000  Uiso   1.00
O1729  O     0.56006   0.83333   0.68388   0.00000  Uiso   1.00
O1730  O     0.51639   0.83333   0.81612   0.00000  Uiso   1.00
O1731  O     0.48361   0.83334   0.68388   0.00000  Uiso   1.00
O1732  O     0.36224   0.74979   0.53184   0.00000  Uiso   1.00
Zn1733 Zn    0.44896   0.83334   0.75000   0.00000  Uiso   1.00
Zn1734 Zn    0.55104   0.83333   0.75000   0.00000  Uiso   1.00
C1735  C     0.83318   0.91327   0.74944   0.00000  Uiso   1.00
C1736  C     0.79756   0.97993   0.73571   0.00000  Uiso   1.00
C1737  C     0.83460   0.70922   0.74899   0.00000  Uiso   1.00
C1738  C     0.83311   0.95747   0.74844   0.00000  Uiso   1.00
C1739  C     0.98386   0.80584   0.72387   0.00000  Uiso   1.00
C1740  C     0.68275   0.86051   0.77650   0.00000  Uiso   1.00
C1741  C     0.69821   0.80611   0.72381   0.00000  Uiso   1.00
C1742  C     0.96845   0.86045   0.77632   0.00000  Uiso   1.00
C1743  C     0.80657   0.82522   0.83539   0.00000  Uiso   1.00
C1744  C     0.86064   0.83415   0.66249   0.00000  Uiso   1.00
C1745  C     0.79461   0.80237   0.87842   0.00000  Uiso   1.00
C1746  C     0.83378   0.75340   0.74964   0.00000  Uiso   1.00
C1747  C     0.87264   0.82778   0.61339   0.00000  Uiso   1.00
C1748  C     0.73046   0.77256   0.93422   0.00000  Uiso   1.00
C1749  C     0.93009   0.80576   0.54638   0.00000  Uiso   1.00
C1750  C     0.75469   0.77821   0.88850   0.00000  Uiso   1.00
C1751  C     0.91949   0.82441   0.58877   0.00000  Uiso   1.00
C1752  C     0.82248   0.80160   0.90892   0.00000  Uiso   1.00
C1753  C     0.83689   0.81943   0.59158   0.00000  Uiso   1.00
C1754  C     0.80440   0.78333   0.95193   0.00000  Uiso   1.00
C1755  C     0.84751   0.79558   0.55164   0.00000  Uiso   1.00
C1756  C     0.75643   0.77503   0.96744   0.00000  Uiso   1.00
C1757  C     0.76599   0.77662   0.54543   0.00000  Uiso   1.00
C1758  C     0.89490   0.78556   0.53191   0.00000  Uiso   1.00
C1759  C     0.83252   0.77610   0.98114   0.00000  Uiso   1.00
C1760  C     0.81442   0.78404   0.52744   0.00000  Uiso   1.00
C1761  C     0.70165   0.70618   0.52911   0.00000  Uiso   1.00
C1762  C     0.92577   0.69452   0.51937   0.00000  Uiso   1.00
C1763  C     0.78776   0.87310   0.58848   0.00000  Uiso   1.00
C1764  C     0.86677   0.85726   0.91468   0.00000  Uiso   1.00
C1765  C     0.99241   0.78612   0.91734   0.00000  Uiso   1.00
C1766  C     0.97789   0.85087   0.99893   0.00000  Uiso   1.00
C1767  C     0.76504   0.73797   0.60984   0.00000  Uiso   1.00
C1768  C     0.87597   0.75579   0.96722   0.00000  Uiso   1.00
C1769  C     0.85794   0.69831   0.93132   0.00000  Uiso   1.00
C1770  C     0.90146   0.70893   0.81689   0.00000  Uiso   1.00
C1771  C     0.77209   0.95731   0.67629   0.00000  Uiso   1.00
C1772  C     0.73836   0.76780   0.51486   0.00000  Uiso   1.00
C1773  C     0.90527   0.75713   0.99614   0.00000  Uiso   1.00
C1774  C     0.86991   0.97751   0.75976   0.00000  Uiso   1.00
C1775  C     0.79817   0.68921   0.73697   0.00000  Uiso   1.00
C1776  C     0.87088   0.68677   0.76045   0.00000  Uiso   1.00
Cl1777 Cl    0.96615   0.84384   0.60869   0.00000  Uiso   1.00
Cl1778 Cl    0.73798   0.75133   0.84481   0.00000  Uiso   1.00
Cl1779 Cl    0.96636   0.76891   0.68985   0.00000  Uiso   1.00
Cl1780 Cl    0.70010   0.89621   0.81188   0.00000  Uiso   1.00
H1781  H     0.89799   0.96033   0.76860   0.00000  Uiso   1.00
H1782  H     0.89289   0.68182   0.51431   0.00000  Uiso   1.00
H1783  H     0.79132   0.86938   0.55146   0.00000  Uiso   1.00
H1784  H     0.81347   0.89590   0.59411   0.00000  Uiso   1.00
H1785  H     0.75246   0.88594   0.60375   0.00000  Uiso   1.00
H1786  H     0.85767   0.85642   0.95244   0.00000  Uiso   1.00
H1787  H     0.84258   0.87854   0.90259   0.00000  Uiso   1.00
H1788  H     0.90224   0.87023   0.90291   0.00000  Uiso   1.00
H1789  H     0.67744   0.81360   0.89896   0.00000  Uiso   1.00
H1790  H     0.95924   0.79925   0.93716   0.00000  Uiso   1.00
H1791  H     0.98346   0.76384   0.89344   0.00000  Uiso   1.00
H1792  H     0.77031   0.70646   0.72781   0.00000  Uiso   1.00
H1793  H     0.97862   0.87481   0.52466   0.00000  Uiso   1.00
H1794  H     0.94935   0.85844   0.98251   0.00000  Uiso   1.00
H1795  H     0.67803   0.85302   0.97260   0.00000  Uiso   1.00
H1796  H     0.79035   0.74881   0.62822   0.00000  Uiso   1.00
H1797  H     0.78228   0.71430   0.58431   0.00000  Uiso   1.00
H1798  H     0.73669   0.72217   0.63502   0.00000  Uiso   1.00
H1799  H     0.84094   0.68830   0.96680   0.00000  Uiso   1.00
H1800  H     0.87790   0.67109   0.91411   0.00000  Uiso   1.00
H1801  H     0.83073   0.70626   0.91354   0.00000  Uiso   1.00
H1802  H     0.86890   0.72659   0.83255   0.00000  Uiso   1.00
H1803  H     0.72233   0.78434   0.70290   0.00000  Uiso   1.00
H1804  H     0.93080   0.72614   0.82410   0.00000  Uiso   1.00
H1805  H     0.90088   0.67756   0.83262   0.00000  Uiso   1.00
H1806  H     0.74337   0.94100   0.66686   0.00000  Uiso   1.00
H1807  H     0.80451   0.93866   0.66321   0.00000  Uiso   1.00
H1808  H     0.77539   0.98846   0.65968   0.00000  Uiso   1.00
H1809  H     0.94430   0.88208   0.79743   0.00000  Uiso   1.00
H1810  H     0.70209   0.69541   0.99447   0.00000  Uiso   1.00
H1811  H     0.67207   0.69158   0.55385   0.00000  Uiso   1.00
H1812  H     0.73371   0.69481   0.53806   0.00000  Uiso   1.00
H1813  H     0.92100   0.70273   0.55569   0.00000  Uiso   1.00
H1814  H     0.95217   0.66922   0.51075   0.00000  Uiso   1.00
N1815  N     0.71426   0.83334   0.75001   0.00000  Uiso   1.00
N1816  N     0.95241   0.83332   0.74999   0.00000  Uiso   1.00
O1817  O     0.79512   0.89442   0.75001   0.00000  Uiso   1.00
O1818  O     0.94168   0.72910   0.99104   0.00000  Uiso   1.00
O1819  O     0.79229   0.83461   0.60952   0.00000  Uiso   1.00
O1820  O     0.86721   0.81711   0.89641   0.00000  Uiso   1.00
O1821  O     0.68298   0.76496   0.94631   0.00000  Uiso   1.00
O1822  O     0.97390   0.81015   0.51761   0.00000  Uiso   1.00
O1823  O     0.74564   0.77239   0.59159   0.00000  Uiso   1.00
O1824  O     0.88878   0.73198   0.92820   0.00000  Uiso   1.00
O1825  O     0.90878   0.70602   0.76949   0.00000  Uiso   1.00
O1826  O     0.76110   0.96064   0.72397   0.00000  Uiso   1.00
O1827  O     0.87154   0.77225   0.75000   0.00000  Uiso   1.00
O1828  O     0.87157   0.89441   0.75000   0.00000  Uiso   1.00
O1829  O     0.79510   0.77226   0.75000   0.00000  Uiso   1.00
O1830  O     0.77328   0.83334   0.81613   0.00000  Uiso   1.00
O1831  O     0.89339   0.83333   0.68388   0.00000  Uiso   1.00
O1832  O     0.84972   0.83333   0.81612   0.00000  Uiso   1.00
O1833  O     0.81695   0.83334   0.68388   0.00000  Uiso   1.00
O1834  O     0.69557   0.74979   0.53184   0.00000  Uiso   1.00
Zn1835 Zn    0.78229   0.83334   0.75000   0.00000  Uiso   1.00
Zn1836 Zn    0.88438   0.83333   0.75000   0.00000  Uiso   1.00
loop_
_geom_bond_atom_site_label_1
_geom_bond_atom_site_label_2
_geom_bond_distance
_geom_bond_site_symmetry_2
_ccdc_geom_bond_type
C1     O94     1.290   .     A
C1     O83     1.288   .     A
C1     C4      1.422   .     S
C2     C4      1.405   .     A
C2     O92     1.383   .     S
C2     C347    1.373   .     S
C3     C42     1.406   .     A
C3     C12     1.422   .     S
C3     C41     1.397   .     A
C4     C40     1.397   .     A
C5     Cl45    1.754   .     S
C5     N82     1.378   .     A
C5     C109    1.418   .     S
C6     Cl46    1.753   .     S
C6     N81     1.377   .     A
C6     C212    1.419   1_455 S
C7     H69     1.082   .     S
C7     N81     1.362   .     A
C7     C209    1.418   1_455 S
C8     N82     1.362   .     A
C8     H75     1.082   .     S
C8     C108    1.419   .     S
C9     O98     1.296   .     A
C9     C11     1.461   .     S
C9     O96     1.297   .     A
C10    O97     1.304   .     A
C10    C13     1.462   .     S
C10    O99     1.296   .     A
C11    C18     1.395   .     A
C11    C16     1.394   .     A
C12    O95     1.291   .     A
C12    O93     1.287   .     A
C13    C19     1.421   .     A
C13    C17     1.406   .     A
C14    C16     1.405   .     A
C14    O87     1.390   .     S
C14    C22     1.426   .     A
C15    C24     1.406   .     A
C15    C17     1.388   .     A
C15    O88     1.379   .     S
C16    Cl44    1.773   .     S
C17    Cl43    1.775   .     S
C18    O86     1.385   .     S
C18    C20     1.408   .     A
C19    C21     1.408   .     A
C19    O85     1.382   .     S
C20    C25     1.386   .     A
C20    C22     1.411   .     A
C21    C26     1.428   .     A
C21    C24     1.417   .     A
C22    C956    1.424   .     S
C23    C26     1.426   .     A
C23    O89     1.387   .     S
C23    C38     1.424   .     A
C24    C957    1.399   1_554 S
C25    C34     1.406   .     A
C25    C944    1.399   .     S
C26    C943    1.399   1_554 S
C27    H78     1.114   .     S
C27    O100    1.413   .     S
C27    H77     1.108   .     S
C27    H994    1.111   1_554 S
C28    H79     1.113   .     S
C28    H48     1.113   .     S
C28    H80     1.108   .     S
C28    O1002   1.412   1_554 S
C29    O85     1.410   .     S
C29    H50     1.113   .     S
C29    H49     1.113   .     S
C29    H51     1.109   .     S
C30    H54     1.109   .     S
C30    O86     1.410   .     S
C30    H53     1.114   .     S
C30    H52     1.112   .     S
C31    H56     1.097   .     S
C31    H57     1.109   .     S
C31    H157    1.114   .     S
C31    O189    1.430   .     S
C32    H60     1.114   .     S
C32    H977    1.109   .     S
C32    H163    1.109   .     S
C32    O1006   1.418   .     S
C33    H62     1.109   .     S
C33    O89     1.416   .     S
C33    H63     1.115   .     S
C33    H64     1.109   .     S
C34    O90     1.386   .     S
C34    C39     1.391   .     A
C35    H65     1.116   .     S
C35    H66     1.108   .     S
C35    H67     1.110   .     S
C35    O90     1.416   .     S
C36    H71     1.112   .     S
C36    H70     1.109   .     S
C36    O91     1.408   .     S
C36    H68     1.114   .     S
C37    H74     1.113   .     S
C37    H73     1.113   .     S
C37    H72     1.109   .     S
C37    O92     1.410   .     S
C38    O100    1.379   .     S
C38    C940    1.424   1_554 S
C39    O84     1.378   .     S
C39    C942    1.399   .     S
C40    H47     1.084   .     S
C40    C348    1.372   .     S
C41    H58     1.084   .     S
C41    C614    1.373   1_545 S
C42    O91     1.383   .     S
C42    C652    1.372   1_545 S
H55    C235    1.114   1_455 S
H59    C950    1.109   1_554 S
H61    C236    1.109   1_455 S
H76    C945    1.111   .     S
N81    Zn101   2.024   .     S
N82    Zn102   2.024   .     S
O83    Zn101   2.007   .     S
O84    C946    1.412   .     S
O87    C235    1.430   1_455 S
O88    C950    1.418   1_554 S
O93    Zn102   2.007   .     S
O94    Zn102   1.997   .     S
O95    Zn101   1.997   .     S
O96    Zn101   1.963   .     S
O97    Zn102   1.963   .     S
O98    Zn102   2.013   .     S
O99    Zn101   2.013   .     S
C103   O196    1.290   .     A
C103   O185    1.288   .     A
C103   C106    1.422   .     S
C104   C106    1.405   .     A
C104   O194    1.383   .     S
C104   C449    1.373   .     S
C105   C144    1.406   .     A
C105   C114    1.422   .     S
C105   C143    1.397   .     A
C106   C142    1.397   .     A
C107   Cl147   1.754   .     S
C107   N184    1.378   .     A
C107   C211    1.418   .     S
C108   Cl148   1.753   .     S
C108   N183    1.377   .     A
C109   H171    1.082   .     S
C109   N183    1.362   .     A
C110   N184    1.362   .     A
C110   H177    1.082   .     S
C110   C210    1.419   .     S
C111   O200    1.296   .     A
C111   C113    1.461   .     S
C111   O198    1.297   .     A
C112   O199    1.304   .     A
C112   C115    1.462   .     S
C112   O201    1.296   .     A
C113   C120    1.395   .     A
C113   C118    1.394   .     A
C114   O197    1.291   .     A
C114   O195    1.287   .     A
C115   C121    1.421   .     A
C115   C119    1.406   .     A
C116   C118    1.405   .     A
C116   O189    1.390   .     S
C116   C124    1.426   .     A
C117   C126    1.406   .     A
C117   C119    1.388   .     A
C117   O190    1.379   .     S
C118   Cl146   1.773   .     S
C119   Cl145   1.775   .     S
C120   O188    1.385   .     S
C120   C122    1.408   .     A
C121   C123    1.408   .     A
C121   O187    1.382   .     S
C122   C127    1.386   .     A
C122   C124    1.411   .     A
C123   C128    1.428   .     A
C123   C126    1.417   .     A
C124   C1058   1.424   .     S
C125   C128    1.426   .     A
C125   O191    1.387   .     S
C125   C140    1.424   .     A
C126   C1059   1.399   1_554 S
C127   C136    1.406   .     A
C127   C1046   1.399   .     S
C128   C1045   1.399   1_554 S
C129   H180    1.114   .     S
C129   O202    1.413   .     S
C129   H179    1.108   .     S
C129   H1096   1.111   1_554 S
C130   H181    1.113   .     S
C130   H150    1.113   .     S
C130   H182    1.108   .     S
C130   O1104   1.412   1_554 S
C131   O187    1.410   .     S
C131   H152    1.113   .     S
C131   H151    1.113   .     S
C131   H153    1.109   .     S
C132   H156    1.109   .     S
C132   O188    1.410   .     S
C132   H155    1.114   .     S
C132   H154    1.112   .     S
C133   H158    1.097   .     S
C133   H159    1.109   .     S
C133   H259    1.114   .     S
C133   O291    1.430   .     S
C134   H162    1.114   .     S
C134   H1079   1.109   .     S
C134   H265    1.109   .     S
C134   O1108   1.418   .     S
C135   H164    1.109   .     S
C135   O191    1.416   .     S
C135   H165    1.115   .     S
C135   H166    1.109   .     S
C136   O192    1.386   .     S
C136   C141    1.391   .     A
C137   H167    1.116   .     S
C137   H168    1.108   .     S
C137   H169    1.110   .     S
C137   O192    1.416   .     S
C138   H173    1.112   .     S
C138   H172    1.109   .     S
C138   O193    1.408   .     S
C138   H170    1.114   .     S
C139   H176    1.113   .     S
C139   H175    1.113   .     S
C139   H174    1.109   .     S
C139   O194    1.410   .     S
C140   O202    1.379   .     S
C140   C1042   1.424   1_554 S
C141   O186    1.378   .     S
C141   C1044   1.399   .     S
C142   H149    1.084   .     S
C142   C450    1.372   .     S
C143   H160    1.084   .     S
C143   C716    1.373   1_545 S
C144   O193    1.383   .     S
C144   C754    1.372   1_545 S
H161   C1052   1.109   1_554 S
H178   C1047   1.111   .     S
N183   Zn203   2.024   .     S
N184   Zn204   2.024   .     S
O185   Zn203   2.007   .     S
O186   C1048   1.412   .     S
O190   C1052   1.418   1_554 S
O195   Zn204   2.007   .     S
O196   Zn204   1.997   .     S
O197   Zn203   1.997   .     S
O198   Zn203   1.963   .     S
O199   Zn204   1.963   .     S
O200   Zn204   2.013   .     S
O201   Zn203   2.013   .     S
C205   O298    1.290   .     A
C205   O287    1.288   .     A
C205   C208    1.422   .     S
C206   C208    1.405   .     A
C206   O296    1.383   .     S
C206   C551    1.373   .     S
C207   C246    1.406   .     A
C207   C216    1.422   .     S
C207   C245    1.397   .     A
C208   C244    1.397   .     A
C209   Cl249   1.754   .     S
C209   N286    1.378   .     A
C209   C7      1.418   1_655 S
C210   Cl250   1.753   .     S
C210   N285    1.377   .     A
C211   H273    1.082   .     S
C211   N285    1.362   .     A
C212   N286    1.362   .     A
C212   H279    1.082   .     S
C212   C6      1.419   1_655 S
C213   O302    1.296   .     A
C213   C215    1.461   .     S
C213   O300    1.297   .     A
C214   O301    1.304   .     A
C214   C217    1.462   .     S
C214   O303    1.296   .     A
C215   C222    1.395   .     A
C215   C220    1.394   .     A
C216   O299    1.291   .     A
C216   O297    1.287   .     A
C217   C223    1.421   .     A
C217   C221    1.406   .     A
C218   C220    1.405   .     A
C218   O291    1.390   .     S
C218   C226    1.426   .     A
C219   C228    1.406   .     A
C219   C221    1.388   .     A
C219   O292    1.379   .     S
C220   Cl248   1.773   .     S
C221   Cl247   1.775   .     S
C222   O290    1.385   .     S
C222   C224    1.408   .     A
C223   C225    1.408   .     A
C223   O289    1.382   .     S
C224   C229    1.386   .     A
C224   C226    1.411   .     A
C225   C230    1.428   .     A
C225   C228    1.417   .     A
C226   C1160   1.424   .     S
C227   C230    1.426   .     A
C227   O293    1.387   .     S
C227   C242    1.424   .     A
C228   C1161   1.399   1_554 S
C229   C238    1.406   .     A
C229   C1148   1.399   .     S
C230   C1147   1.399   1_554 S
C231   H282    1.114   .     S
C231   O304    1.413   .     S
C231   H281    1.108   .     S
C231   H1198   1.111   1_554 S
C232   H283    1.113   .     S
C232   H252    1.113   .     S
C232   H284    1.108   .     S
C232   O1206   1.412   1_554 S
C233   O289    1.410   .     S
C233   H254    1.113   .     S
C233   H253    1.113   .     S
C233   H255    1.109   .     S
C234   H258    1.109   .     S
C234   O290    1.410   .     S
C234   H257    1.114   .     S
C234   H256    1.112   .     S
C235   H260    1.097   .     S
C235   H261    1.109   .     S
C235   H55     1.114   1_655 S
C235   O87     1.430   1_655 S
C236   H264    1.114   .     S
C236   H1181   1.109   .     S
C236   H61     1.109   1_655 S
C236   O1210   1.418   .     S
C237   H266    1.109   .     S
C237   O293    1.416   .     S
C237   H267    1.115   .     S
C237   H268    1.109   .     S
C238   O294    1.386   .     S
C238   C243    1.391   .     A
C239   H269    1.116   .     S
C239   H270    1.108   .     S
C239   H271    1.110   .     S
C239   O294    1.416   .     S
C240   H275    1.112   .     S
C240   H274    1.109   .     S
C240   O295    1.408   .     S
C240   H272    1.114   .     S
C241   H278    1.113   .     S
C241   H277    1.113   .     S
C241   H276    1.109   .     S
C241   O296    1.410   .     S
C242   O304    1.379   .     S
C242   C1144   1.424   1_554 S
C243   O288    1.378   .     S
C243   C1146   1.399   .     S
C244   H251    1.084   .     S
C244   C552    1.372   .     S
C245   H262    1.084   .     S
C245   C818    1.373   1_545 S
C246   O295    1.383   .     S
C246   C856    1.372   1_545 S
H263   C1154   1.109   1_554 S
H280   C1149   1.111   .     S
N285   Zn305   2.024   .     S
N286   Zn306   2.024   .     S
O287   Zn305   2.007   .     S
O288   C1150   1.412   .     S
O292   C1154   1.418   1_554 S
O297   Zn306   2.007   .     S
O298   Zn306   1.997   .     S
O299   Zn305   1.997   .     S
O300   Zn305   1.963   .     S
O301   Zn306   1.963   .     S
O302   Zn306   2.013   .     S
O303   Zn305   2.013   .     S
C307   O400    1.290   .     A
C307   O389    1.288   .     A
C307   C310    1.422   .     S
C308   C310    1.405   .     A
C308   O398    1.383   .     S
C308   C653    1.373   .     S
C309   C348    1.406   .     A
C309   C318    1.422   .     S
C309   C347    1.397   .     A
C310   C346    1.397   .     A
C311   Cl351   1.754   .     S
C311   N388    1.378   .     A
C311   C415    1.418   .     S
C312   Cl352   1.753   .     S
C312   N387    1.377   .     A
C312   C518    1.419   1_455 S
C313   H375    1.082   .     S
C313   N387    1.362   .     A
C313   C515    1.418   1_455 S
C314   N388    1.362   .     A
C314   H381    1.082   .     S
C314   C414    1.419   .     S
C315   O404    1.296   .     A
C315   C317    1.461   .     S
C315   O402    1.297   .     A
C316   O403    1.304   .     A
C316   C319    1.462   .     S
C316   O405    1.296   .     A
C317   C324    1.395   .     A
C317   C322    1.394   .     A
C318   O401    1.291   .     A
C318   O399    1.287   .     A
C319   C325    1.421   .     A
C319   C323    1.406   .     A
C320   C322    1.405   .     A
C320   O393    1.390   .     S
C320   C328    1.426   .     A
C321   C330    1.406   .     A
C321   C323    1.388   .     A
C321   O394    1.379   .     S
C322   Cl350   1.773   .     S
C323   Cl349   1.775   .     S
C324   O392    1.385   .     S
C324   C326    1.408   .     A
C325   C327    1.408   .     A
C325   O391    1.382   .     S
C326   C331    1.386   .     A
C326   C328    1.411   .     A
C327   C332    1.428   .     A
C327   C330    1.417   .     A
C328   C1262   1.424   .     S
C329   C332    1.426   .     A
C329   O395    1.387   .     S
C329   C344    1.424   .     A
C330   C1263   1.399   1_554 S
C331   C340    1.406   .     A
C331   C1250   1.399   .     S
C332   C1249   1.399   1_554 S
C333   H384    1.114   .     S
C333   O406    1.413   .     S
C333   H383    1.108   .     S
C333   H1300   1.111   1_554 S
C334   H385    1.113   .     S
C334   H354    1.113   .     S
C334   H386    1.108   .     S
C334   O1308   1.412   1_554 S
C335   O391    1.410   .     S
C335   H356    1.113   .     S
C335   H355    1.113   .     S
C335   H357    1.109   .     S
C336   H360    1.109   .     S
C336   O392    1.410   .     S
C336   H359    1.114   .     S
C336   H358    1.112   .     S
C337   H362    1.097   .     S
C337   H363    1.109   .     S
C337   H463    1.114   .     S
C337   O495    1.430   .     S
C338   H366    1.114   .     S
C338   H1283   1.109   .     S
C338   H469    1.109   .     S
C338   O1312   1.418   .     S
C339   H368    1.109   .     S
C339   O395    1.416   .     S
C339   H369    1.115   .     S
C339   H370    1.109   .     S
C340   O396    1.386   .     S
C340   C345    1.391   .     A
C341   H371    1.116   .     S
C341   H372    1.108   .     S
C341   H373    1.110   .     S
C341   O396    1.416   .     S
C342   H377    1.112   .     S
C342   H376    1.109   .     S
C342   O397    1.408   .     S
C342   H374    1.114   .     S
C343   H380    1.113   .     S
C343   H379    1.113   .     S
C343   H378    1.109   .     S
C343   O398    1.410   .     S
C344   O406    1.379   .     S
C344   C1246   1.424   1_554 S
C345   O390    1.378   .     S
C345   C1248   1.399   .     S
C346   H353    1.084   .     S
C346   C654    1.372   .     S
C347   H364    1.084   .     S
C348   O397    1.383   .     S
H361   C541    1.114   1_455 S
H365   C1256   1.109   1_554 S
H367   C542    1.109   1_455 S
H382   C1251   1.111   .     S
N387   Zn407   2.024   .     S
N388   Zn408   2.024   .     S
O389   Zn407   2.007   .     S
O390   C1252   1.412   .     S
O393   C541    1.430   1_455 S
O394   C1256   1.418   1_554 S
O399   Zn408   2.007   .     S
O400   Zn408   1.997   .     S
O401   Zn407   1.997   .     S
O402   Zn407   1.963   .     S
O403   Zn408   1.963   .     S
O404   Zn408   2.013   .     S
O405   Zn407   2.013   .     S
C409   O502    1.290   .     A
C409   O491    1.288   .     A
C409   C412    1.422   .     S
C410   C412    1.405   .     A
C410   O500    1.383   .     S
C410   C755    1.373   .     S
C411   C450    1.406   .     A
C411   C420    1.422   .     S
C411   C449    1.397   .     A
C412   C448    1.397   .     A
C413   Cl453   1.754   .     S
C413   N490    1.378   .     A
C413   C517    1.418   .     S
C414   Cl454   1.753   .     S
C414   N489    1.377   .     A
C415   H477    1.082   .     S
C415   N489    1.362   .     A
C416   N490    1.362   .     A
C416   H483    1.082   .     S
C416   C516    1.419   .     S
C417   O506    1.296   .     A
C417   C419    1.461   .     S
C417   O504    1.297   .     A
C418   O505    1.304   .     A
C418   C421    1.462   .     S
C418   O507    1.296   .     A
C419   C426    1.395   .     A
C419   C424    1.394   .     A
C420   O503    1.291   .     A
C420   O501    1.287   .     A
C421   C427    1.421   .     A
C421   C425    1.406   .     A
C422   C424    1.405   .     A
C422   O495    1.390   .     S
C422   C430    1.426   .     A
C423   C432    1.406   .     A
C423   C425    1.388   .     A
C423   O496    1.379   .     S
C424   Cl452   1.773   .     S
C425   Cl451   1.775   .     S
C426   O494    1.385   .     S
C426   C428    1.408   .     A
C427   C429    1.408   .     A
C427   O493    1.382   .     S
C428   C433    1.386   .     A
C428   C430    1.411   .     A
C429   C434    1.428   .     A
C429   C432    1.417   .     A
C430   C1364   1.424   .     S
C431   C434    1.426   .     A
C431   O497    1.387   .     S
C431   C446    1.424   .     A
C432   C1365   1.399   1_554 S
C433   C442    1.406   .     A
C433   C1352   1.399   .     S
C434   C1351   1.399   1_554 S
C435   H486    1.114   .     S
C435   O508    1.413   .     S
C435   H485    1.108   .     S
C435   H1402   1.111   1_554 S
C436   H487    1.113   .     S
C436   H456    1.113   .     S
C436   H488    1.108   .     S
C436   O1410   1.412   1_554 S
C437   O493    1.410   .     S
C437   H458    1.113   .     S
C437   H457    1.113   .     S
C437   H459    1.109   .     S
C438   H462    1.109   .     S
C438   O494    1.410   .     S
C438   H461    1.114   .     S
C438   H460    1.112   .     S
C439   H464    1.097   .     S
C439   H465    1.109   .     S
C439   H565    1.114   .     S
C439   O597    1.430   .     S
C440   H468    1.114   .     S
C440   H1385   1.109   .     S
C440   H571    1.109   .     S
C440   O1414   1.418   .     S
C441   H470    1.109   .     S
C441   O497    1.416   .     S
C441   H471    1.115   .     S
C441   H472    1.109   .     S
C442   O498    1.386   .     S
C442   C447    1.391   .     A
C443   H473    1.116   .     S
C443   H474    1.108   .     S
C443   H475    1.110   .     S
C443   O498    1.416   .     S
C444   H479    1.112   .     S
C444   H478    1.109   .     S
C444   O499    1.408   .     S
C444   H476    1.114   .     S
C445   H482    1.113   .     S
C445   H481    1.113   .     S
C445   H480    1.109   .     S
C445   O500    1.410   .     S
C446   O508    1.379   .     S
C446   C1348   1.424   1_554 S
C447   O492    1.378   .     S
C447   C1350   1.399   .     S
C448   H455    1.084   .     S
C448   C756    1.372   .     S
C449   H466    1.084   .     S
C450   O499    1.383   .     S
H467   C1358   1.109   1_554 S
H484   C1353   1.111   .     S
N489   Zn509   2.024   .     S
N490   Zn510   2.024   .     S
O491   Zn509   2.007   .     S
O492   C1354   1.412   .     S
O496   C1358   1.418   1_554 S
O501   Zn510   2.007   .     S
O502   Zn510   1.997   .     S
O503   Zn509   1.997   .     S
O504   Zn509   1.963   .     S
O505   Zn510   1.963   .     S
O506   Zn510   2.013   .     S
O507   Zn509   2.013   .     S
C511   O604    1.290   .     A
C511   O593    1.288   .     A
C511   C514    1.422   .     S
C512   C514    1.405   .     A
C512   O602    1.383   .     S
C512   C857    1.373   .     S
C513   C552    1.406   .     A
C513   C522    1.422   .     S
C513   C551    1.397   .     A
C514   C550    1.397   .     A
C515   Cl555   1.754   .     S
C515   N592    1.378   .     A
C515   C313    1.418   1_655 S
C516   Cl556   1.753   .     S
C516   N591    1.377   .     A
C517   H579    1.082   .     S
C517   N591    1.362   .     A
C518   N592    1.362   .     A
C518   H585    1.082   .     S
C518   C312    1.419   1_655 S
C519   O608    1.296   .     A
C519   C521    1.461   .     S
C519   O606    1.297   .     A
C520   O607    1.304   .     A
C520   C523    1.462   .     S
C520   O609    1.296   .     A
C521   C528    1.395   .     A
C521   C526    1.394   .     A
C522   O605    1.291   .     A
C522   O603    1.287   .     A
C523   C529    1.421   .     A
C523   C527    1.406   .     A
C524   C526    1.405   .     A
C524   O597    1.390   .     S
C524   C532    1.426   .     A
C525   C534    1.406   .     A
C525   C527    1.388   .     A
C525   O598    1.379   .     S
C526   Cl554   1.773   .     S
C527   Cl553   1.775   .     S
C528   O596    1.385   .     S
C528   C530    1.408   .     A
C529   C531    1.408   .     A
C529   O595    1.382   .     S
C530   C535    1.386   .     A
C530   C532    1.411   .     A
C531   C536    1.428   .     A
C531   C534    1.417   .     A
C532   C1466   1.424   .     S
C533   C536    1.426   .     A
C533   O599    1.387   .     S
C533   C548    1.424   .     A
C534   C1467   1.399   1_554 S
C535   C544    1.406   .     A
C535   C1454   1.399   .     S
C536   C1453   1.399   1_554 S
C537   H588    1.114   .     S
C537   O610    1.413   .     S
C537   H587    1.108   .     S
C537   H1504   1.111   1_554 S
C538   H589    1.113   .     S
C538   H558    1.113   .     S
C538   H590    1.108   .     S
C538   O1512   1.412   1_554 S
C539   O595    1.410   .     S
C539   H560    1.113   .     S
C539   H559    1.113   .     S
C539   H561    1.109   .     S
C540   H564    1.109   .     S
C540   O596    1.410   .     S
C540   H563    1.114   .     S
C540   H562    1.112   .     S
C541   H566    1.097   .     S
C541   H567    1.109   .     S
C541   H361    1.114   1_655 S
C541   O393    1.430   1_655 S
C542   H570    1.114   .     S
C542   H1487   1.109   .     S
C542   H367    1.109   1_655 S
C542   O1516   1.418   .     S
C543   H572    1.109   .     S
C543   O599    1.416   .     S
C543   H573    1.115   .     S
C543   H574    1.109   .     S
C544   O600    1.386   .     S
C544   C549    1.391   .     A
C545   H575    1.116   .     S
C545   H576    1.108   .     S
C545   H577    1.110   .     S
C545   O600    1.416   .     S
C546   H581    1.112   .     S
C546   H580    1.109   .     S
C546   O601    1.408   .     S
C546   H578    1.114   .     S
C547   H584    1.113   .     S
C547   H583    1.113   .     S
C547   H582    1.109   .     S
C547   O602    1.410   .     S
C548   O610    1.379   .     S
C548   C1450   1.424   1_554 S
C549   O594    1.378   .     S
C549   C1452   1.399   .     S
C550   H557    1.084   .     S
C550   C858    1.372   .     S
C551   H568    1.084   .     S
C552   O601    1.383   .     S
H569   C1460   1.109   1_554 S
H586   C1455   1.111   .     S
N591   Zn611   2.024   .     S
N592   Zn612   2.024   .     S
O593   Zn611   2.007   .     S
O594   C1456   1.412   .     S
O598   C1460   1.418   1_554 S
O603   Zn612   2.007   .     S
O604   Zn612   1.997   .     S
O605   Zn611   1.997   .     S
O606   Zn611   1.963   .     S
O607   Zn612   1.963   .     S
O608   Zn612   2.013   .     S
O609   Zn611   2.013   .     S
C613   O706    1.290   .     A
C613   O695    1.288   .     A
C613   C616    1.422   .     S
C614   C616    1.405   .     A
C614   O704    1.383   .     S
C614   C41     1.373   1_565 S
C615   C654    1.406   .     A
C615   C624    1.422   .     S
C615   C653    1.397   .     A
C616   C652    1.397   .     A
C617   Cl657   1.754   .     S
C617   N694    1.378   .     A
C617   C721    1.418   .     S
C618   Cl658   1.753   .     S
C618   N693    1.377   .     A
C618   C824    1.419   1_455 S
C619   H681    1.082   .     S
C619   N693    1.362   .     A
C619   C821    1.418   1_455 S
C620   N694    1.362   .     A
C620   H687    1.082   .     S
C620   C720    1.419   .     S
C621   O710    1.296   .     A
C621   C623    1.461   .     S
C621   O708    1.297   .     A
C622   O709    1.304   .     A
C622   C625    1.462   .     S
C622   O711    1.296   .     A
C623   C630    1.395   .     A
C623   C628    1.394   .     A
C624   O707    1.291   .     A
C624   O705    1.287   .     A
C625   C631    1.421   .     A
C625   C629    1.406   .     A
C626   C628    1.405   .     A
C626   O699    1.390   .     S
C626   C634    1.426   .     A
C627   C636    1.406   .     A
C627   C629    1.388   .     A
C627   O700    1.379   .     S
C628   Cl656   1.773   .     S
C629   Cl655   1.775   .     S
C630   O698    1.385   .     S
C630   C632    1.408   .     A
C631   C633    1.408   .     A
C631   O697    1.382   .     S
C632   C637    1.386   .     A
C632   C634    1.411   .     A
C633   C638    1.428   .     A
C633   C636    1.417   .     A
C634   C1568   1.424   .     S
C635   C638    1.426   .     A
C635   O701    1.387   .     S
C635   C650    1.424   .     A
C636   C1569   1.399   1_554 S
C637   C646    1.406   .     A
C637   C1556   1.399   .     S
C638   C1555   1.399   1_554 S
C639   H690    1.114   .     S
C639   O712    1.413   .     S
C639   H689    1.108   .     S
C639   H1606   1.111   1_554 S
C640   H691    1.113   .     S
C640   H660    1.113   .     S
C640   H692    1.108   .     S
C640   O1614   1.412   1_554 S
C641   O697    1.410   .     S
C641   H662    1.113   .     S
C641   H661    1.113   .     S
C641   H663    1.109   .     S
C642   H666    1.109   .     S
C642   O698    1.410   .     S
C642   H665    1.114   .     S
C642   H664    1.112   .     S
C643   H668    1.097   .     S
C643   H669    1.109   .     S
C643   H769    1.114   .     S
C643   O801    1.430   .     S
C644   H672    1.114   .     S
C644   H1589   1.109   .     S
C644   H775    1.109   .     S
C644   O1618   1.418   .     S
C645   H674    1.109   .     S
C645   O701    1.416   .     S
C645   H675    1.115   .     S
C645   H676    1.109   .     S
C646   O702    1.386   .     S
C646   C651    1.391   .     A
C647   H677    1.116   .     S
C647   H678    1.108   .     S
C647   H679    1.110   .     S
C647   O702    1.416   .     S
C648   H683    1.112   .     S
C648   H682    1.109   .     S
C648   O703    1.408   .     S
C648   H680    1.114   .     S
C649   H686    1.113   .     S
C649   H685    1.113   .     S
C649   H684    1.109   .     S
C649   O704    1.410   .     S
C650   O712    1.379   .     S
C650   C1552   1.424   1_554 S
C651   O696    1.378   .     S
C651   C1554   1.399   .     S
C652   H659    1.084   .     S
C652   C42     1.372   1_565 S
C653   H670    1.084   .     S
C654   O703    1.383   .     S
H667   C847    1.114   1_455 S
H671   C1562   1.109   1_554 S
H673   C848    1.109   1_455 S
H688   C1557   1.111   .     S
N693   Zn713   2.024   .     S
N694   Zn714   2.024   .     S
O695   Zn713   2.007   .     S
O696   C1558   1.412   .     S
O699   C847    1.430   1_455 S
O700   C1562   1.418   1_554 S
O705   Zn714   2.007   .     S
O706   Zn714   1.997   .     S
O707   Zn713   1.997   .     S
O708   Zn713   1.963   .     S
O709   Zn714   1.963   .     S
O710   Zn714   2.013   .     S
O711   Zn713   2.013   .     S
C715   O808    1.290   .     A
C715   O797    1.288   .     A
C715   C718    1.422   .     S
C716   C718    1.405   .     A
C716   O806    1.383   .     S
C716   C143    1.373   1_565 S
C717   C756    1.406   .     A
C717   C726    1.422   .     S
C717   C755    1.397   .     A
C718   C754    1.397   .     A
C719   Cl759   1.754   .     S
C719   N796    1.378   .     A
C719   C823    1.418   .     S
C720   Cl760   1.753   .     S
C720   N795    1.377   .     A
C721   H783    1.082   .     S
C721   N795    1.362   .     A
C722   N796    1.362   .     A
C722   H789    1.082   .     S
C722   C822    1.419   .     S
C723   O812    1.296   .     A
C723   C725    1.461   .     S
C723   O810    1.297   .     A
C724   O811    1.304   .     A
C724   C727    1.462   .     S
C724   O813    1.296   .     A
C725   C732    1.395   .     A
C725   C730    1.394   .     A
C726   O809    1.291   .     A
C726   O807    1.287   .     A
C727   C733    1.421   .     A
C727   C731    1.406   .     A
C728   C730    1.405   .     A
C728   O801    1.390   .     S
C728   C736    1.426   .     A
C729   C738    1.406   .     A
C729   C731    1.388   .     A
C729   O802    1.379   .     S
C730   Cl758   1.773   .     S
C731   Cl757   1.775   .     S
C732   O800    1.385   .     S
C732   C734    1.408   .     A
C733   C735    1.408   .     A
C733   O799    1.382   .     S
C734   C739    1.386   .     A
C734   C736    1.411   .     A
C735   C740    1.428   .     A
C735   C738    1.417   .     A
C736   C1670   1.424   .     S
C737   C740    1.426   .     A
C737   O803    1.387   .     S
C737   C752    1.424   .     A
C738   C1671   1.399   1_554 S
C739   C748    1.406   .     A
C739   C1658   1.399   .     S
C740   C1657   1.399   1_554 S
C741   H792    1.114   .     S
C741   O814    1.413   .     S
C741   H791    1.108   .     S
C741   H1708   1.111   1_554 S
C742   H793    1.113   .     S
C742   H762    1.113   .     S
C742   H794    1.108   .     S
C742   O1716   1.412   1_554 S
C743   O799    1.410   .     S
C743   H764    1.113   .     S
C743   H763    1.113   .     S
C743   H765    1.109   .     S
C744   H768    1.109   .     S
C744   O800    1.410   .     S
C744   H767    1.114   .     S
C744   H766    1.112   .     S
C745   H770    1.097   .     S
C745   H771    1.109   .     S
C745   H871    1.114   .     S
C745   O903    1.430   .     S
C746   H774    1.114   .     S
C746   H1691   1.109   .     S
C746   H877    1.109   .     S
C746   O1720   1.418   .     S
C747   H776    1.109   .     S
C747   O803    1.416   .     S
C747   H777    1.115   .     S
C747   H778    1.109   .     S
C748   O804    1.386   .     S
C748   C753    1.391   .     A
C749   H779    1.116   .     S
C749   H780    1.108   .     S
C749   H781    1.110   .     S
C749   O804    1.416   .     S
C750   H785    1.112   .     S
C750   H784    1.109   .     S
C750   O805    1.408   .     S
C750   H782    1.114   .     S
C751   H788    1.113   .     S
C751   H787    1.113   .     S
C751   H786    1.109   .     S
C751   O806    1.410   .     S
C752   O814    1.379   .     S
C752   C1654   1.424   1_554 S
C753   O798    1.378   .     S
C753   C1656   1.399   .     S
C754   H761    1.084   .     S
C754   C144    1.372   1_565 S
C755   H772    1.084   .     S
C756   O805    1.383   .     S
H773   C1664   1.109   1_554 S
H790   C1659   1.111   .     S
N795   Zn815   2.024   .     S
N796   Zn816   2.024   .     S
O797   Zn815   2.007   .     S
O798   C1660   1.412   .     S
O802   C1664   1.418   1_554 S
O807   Zn816   2.007   .     S
O808   Zn816   1.997   .     S
O809   Zn815   1.997   .     S
O810   Zn815   1.963   .     S
O811   Zn816   1.963   .     S
O812   Zn816   2.013   .     S
O813   Zn815   2.013   .     S
C817   O910    1.290   .     A
C817   O899    1.288   .     A
C817   C820    1.422   .     S
C818   C820    1.405   .     A
C818   O908    1.383   .     S
C818   C245    1.373   1_565 S
C819   C858    1.406   .     A
C819   C828    1.422   .     S
C819   C857    1.397   .     A
C820   C856    1.397   .     A
C821   Cl861   1.754   .     S
C821   N898    1.378   .     A
C821   C619    1.418   1_655 S
C822   Cl862   1.753   .     S
C822   N897    1.377   .     A
C823   H885    1.082   .     S
C823   N897    1.362   .     A
C824   N898    1.362   .     A
C824   H891    1.082   .     S
C824   C618    1.419   1_655 S
C825   O914    1.296   .     A
C825   C827    1.461   .     S
C825   O912    1.297   .     A
C826   O913    1.304   .     A
C826   C829    1.462   .     S
C826   O915    1.296   .     A
C827   C834    1.395   .     A
C827   C832    1.394   .     A
C828   O911    1.291   .     A
C828   O909    1.287   .     A
C829   C835    1.421   .     A
C829   C833    1.406   .     A
C830   C832    1.405   .     A
C830   O903    1.390   .     S
C830   C838    1.426   .     A
C831   C840    1.406   .     A
C831   C833    1.388   .     A
C831   O904    1.379   .     S
C832   Cl860   1.773   .     S
C833   Cl859   1.775   .     S
C834   O902    1.385   .     S
C834   C836    1.408   .     A
C835   C837    1.408   .     A
C835   O901    1.382   .     S
C836   C841    1.386   .     A
C836   C838    1.411   .     A
C837   C842    1.428   .     A
C837   C840    1.417   .     A
C838   C1772   1.424   .     S
C839   C842    1.426   .     A
C839   O905    1.387   .     S
C839   C854    1.424   .     A
C840   C1773   1.399   1_554 S
C841   C850    1.406   .     A
C841   C1760   1.399   .     S
C842   C1759   1.399   1_554 S
C843   H894    1.114   .     S
C843   O916    1.413   .     S
C843   H893    1.108   .     S
C843   H1810   1.111   1_554 S
C844   H895    1.113   .     S
C844   H864    1.113   .     S
C844   H896    1.108   .     S
C844   O1818   1.412   1_554 S
C845   O901    1.410   .     S
C845   H866    1.113   .     S
C845   H865    1.113   .     S
C845   H867    1.109   .     S
C846   H870    1.109   .     S
C846   O902    1.410   .     S
C846   H869    1.114   .     S
C846   H868    1.112   .     S
C847   H872    1.097   .     S
C847   H873    1.109   .     S
C847   H667    1.114   1_655 S
C847   O699    1.430   1_655 S
C848   H876    1.114   .     S
C848   H1793   1.109   .     S
C848   H673    1.109   1_655 S
C848   O1822   1.418   .     S
C849   H878    1.109   .     S
C849   O905    1.416   .     S
C849   H879    1.115   .     S
C849   H880    1.109   .     S
C850   O906    1.386   .     S
C850   C855    1.391   .     A
C851   H881    1.116   .     S
C851   H882    1.108   .     S
C851   H883    1.110   .     S
C851   O906    1.416   .     S
C852   H887    1.112   .     S
C852   H886    1.109   .     S
C852   O907    1.408   .     S
C852   H884    1.114   .     S
C853   H890    1.113   .     S
C853   H889    1.113   .     S
C853   H888    1.109   .     S
C853   O908    1.410   .     S
C854   O916    1.379   .     S
C854   C1756   1.424   1_554 S
C855   O900    1.378   .     S
C855   C1758   1.399   .     S
C856   H863    1.084   .     S
C856   C246    1.372   1_565 S
C857   H874    1.084   .     S
C858   O907    1.383   .     S
H875   C1766   1.109   1_554 S
H892   C1761   1.111   .     S
N897   Zn917   2.024   .     S
N898   Zn918   2.024   .     S
O899   Zn917   2.007   .     S
O900   C1762   1.412   .     S
O904   C1766   1.418   1_554 S
O909   Zn918   2.007   .     S
O910   Zn918   1.997   .     S
O911   Zn917   1.997   .     S
O912   Zn917   1.963   .     S
O913   Zn918   1.963   .     S
O914   Zn918   2.013   .     S
O915   Zn917   2.013   .     S
C919   O1012   1.290   .     A
C919   O1001   1.288   .     A
C919   C922    1.422   .     S
C920   C922    1.405   .     A
C920   O1010   1.383   .     S
C920   C1265   1.373   .     S
C921   C960    1.406   .     A
C921   C930    1.422   .     S
C921   C959    1.397   .     A
C922   C958    1.397   .     A
C923   Cl963   1.754   .     S
C923   N1000   1.378   .     A
C923   C1027   1.418   .     S
C924   Cl964   1.753   .     S
C924   N999    1.377   .     A
C924   C1130   1.419   1_455 S
C925   H987    1.082   .     S
C925   N999    1.362   .     A
C925   C1127   1.418   1_455 S
C926   N1000   1.362   .     A
C926   H993    1.082   .     S
C926   C1026   1.419   .     S
C927   O1016   1.296   .     A
C927   C929    1.461   .     S
C927   O1014   1.297   .     A
C928   O1015   1.304   .     A
C928   C931    1.462   .     S
C928   O1017   1.296   .     A
C929   C936    1.395   .     A
C929   C934    1.394   .     A
C930   O1013   1.291   .     A
C930   O1011   1.287   .     A
C931   C937    1.421   .     A
C931   C935    1.406   .     A
C932   C934    1.405   .     A
C932   O1005   1.390   .     S
C932   C940    1.426   .     A
C933   C942    1.406   .     A
C933   C935    1.388   .     A
C933   O1006   1.379   .     S
C934   Cl962   1.773   .     S
C935   Cl961   1.775   .     S
C936   O1004   1.385   .     S
C936   C938    1.408   .     A
C937   C939    1.408   .     A
C937   O1003   1.382   .     S
C938   C943    1.386   .     A
C938   C940    1.411   .     A
C939   C944    1.428   .     A
C939   C942    1.417   .     A
C940   C38     1.424   1_556 S
C941   C944    1.426   .     A
C941   O1007   1.387   .     S
C941   C956    1.424   .     A
C943   C952    1.406   .     A
C943   C26     1.399   1_556 S
C945   H996    1.114   .     S
C945   O1018   1.413   .     S
C945   H995    1.108   .     S
C946   H997    1.113   .     S
C946   H966    1.113   .     S
C946   H998    1.108   .     S
C947   O1003   1.410   .     S
C947   H968    1.113   .     S
C947   H967    1.113   .     S
C947   H969    1.109   .     S
C948   H972    1.109   .     S
C948   O1004   1.410   .     S
C948   H971    1.114   .     S
C948   H970    1.112   .     S
C949   H974    1.097   .     S
C949   H975    1.109   .     S
C949   H1075   1.114   .     S
C949   O1107   1.430   .     S
C950   H978    1.114   .     S
C950   H59     1.109   1_556 S
C950   H1081   1.109   .     S
C950   O88     1.418   1_556 S
C951   H980    1.109   .     S
C951   O1007   1.416   .     S
C951   H981    1.115   .     S
C951   H982    1.109   .     S
C952   O1008   1.386   .     S
C952   C957    1.391   .     A
C953   H983    1.116   .     S
C953   H984    1.108   .     S
C953   H985    1.110   .     S
C953   O1008   1.416   .     S
C954   H989    1.112   .     S
C954   H988    1.109   .     S
C954   O1009   1.408   .     S
C954   H986    1.114   .     S
C955   H992    1.113   .     S
C955   H991    1.113   .     S
C955   H990    1.109   .     S
C955   O1010   1.410   .     S
C956   O1018   1.379   .     S
C957   O1002   1.378   .     S
C957   C24     1.399   1_556 S
C958   H965    1.084   .     S
C958   C1266   1.372   .     S
C959   H976    1.084   .     S
C959   C1532   1.373   1_545 S
C960   O1009   1.383   .     S
C960   C1570   1.372   1_545 S
H973   C1153   1.114   1_455 S
H979   C1154   1.109   1_455 S
H994   C27     1.111   1_556 S
N999   Zn1019  2.024   .     S
N1000  Zn1020  2.024   .     S
O1001  Zn1019  2.007   .     S
O1002  C28     1.412   1_556 S
O1005  C1153   1.430   1_455 S
O1011  Zn1020  2.007   .     S
O1012  Zn1020  1.997   .     S
O1013  Zn1019  1.997   .     S
O1014  Zn1019  1.963   .     S
O1015  Zn1020  1.963   .     S
O1016  Zn1020  2.013   .     S
O1017  Zn1019  2.013   .     S
C1021  O1114   1.290   .     A
C1021  O1103   1.288   .     A
C1021  C1024   1.422   .     S
C1022  C1024   1.405   .     A
C1022  O1112   1.383   .     S
C1022  C1367   1.373   .     S
C1023  C1062   1.406   .     A
C1023  C1032   1.422   .     S
C1023  C1061   1.397   .     A
C1024  C1060   1.397   .     A
C1025  Cl1065  1.754   .     S
C1025  N1102   1.378   .     A
C1025  C1129   1.418   .     S
C1026  Cl1066  1.753   .     S
C1026  N1101   1.377   .     A
C1027  H1089   1.082   .     S
C1027  N1101   1.362   .     A
C1028  N1102   1.362   .     A
C1028  H1095   1.082   .     S
C1028  C1128   1.419   .     S
C1029  O1118   1.296   .     A
C1029  C1031   1.461   .     S
C1029  O1116   1.297   .     A
C1030  O1117   1.304   .     A
C1030  C1033   1.462   .     S
C1030  O1119   1.296   .     A
C1031  C1038   1.395   .     A
C1031  C1036   1.394   .     A
C1032  O1115   1.291   .     A
C1032  O1113   1.287   .     A
C1033  C1039   1.421   .     A
C1033  C1037   1.406   .     A
C1034  C1036   1.405   .     A
C1034  O1107   1.390   .     S
C1034  C1042   1.426   .     A
C1035  C1044   1.406   .     A
C1035  C1037   1.388   .     A
C1035  O1108   1.379   .     S
C1036  Cl1064  1.773   .     S
C1037  Cl1063  1.775   .     S
C1038  O1106   1.385   .     S
C1038  C1040   1.408   .     A
C1039  C1041   1.408   .     A
C1039  O1105   1.382   .     S
C1040  C1045   1.386   .     A
C1040  C1042   1.411   .     A
C1041  C1046   1.428   .     A
C1041  C1044   1.417   .     A
C1042  C140    1.424   1_556 S
C1043  C1046   1.426   .     A
C1043  O1109   1.387   .     S
C1043  C1058   1.424   .     A
C1045  C1054   1.406   .     A
C1045  C128    1.399   1_556 S
C1047  H1098   1.114   .     S
C1047  O1120   1.413   .     S
C1047  H1097   1.108   .     S
C1048  H1099   1.113   .     S
C1048  H1068   1.113   .     S
C1048  H1100   1.108   .     S
C1049  O1105   1.410   .     S
C1049  H1070   1.113   .     S
C1049  H1069   1.113   .     S
C1049  H1071   1.109   .     S
C1050  H1074   1.109   .     S
C1050  O1106   1.410   .     S
C1050  H1073   1.114   .     S
C1050  H1072   1.112   .     S
C1051  H1076   1.097   .     S
C1051  H1077   1.109   .     S
C1051  H1177   1.114   .     S
C1051  O1209   1.430   .     S
C1052  H1080   1.114   .     S
C1052  H161    1.109   1_556 S
C1052  H1183   1.109   .     S
C1052  O190    1.418   1_556 S
C1053  H1082   1.109   .     S
C1053  O1109   1.416   .     S
C1053  H1083   1.115   .     S
C1053  H1084   1.109   .     S
C1054  O1110   1.386   .     S
C1054  C1059   1.391   .     A
C1055  H1085   1.116   .     S
C1055  H1086   1.108   .     S
C1055  H1087   1.110   .     S
C1055  O1110   1.416   .     S
C1056  H1091   1.112   .     S
C1056  H1090   1.109   .     S
C1056  O1111   1.408   .     S
C1056  H1088   1.114   .     S
C1057  H1094   1.113   .     S
C1057  H1093   1.113   .     S
C1057  H1092   1.109   .     S
C1057  O1112   1.410   .     S
C1058  O1120   1.379   .     S
C1059  O1104   1.378   .     S
C1059  C126    1.399   1_556 S
C1060  H1067   1.084   .     S
C1060  C1368   1.372   .     S
C1061  H1078   1.084   .     S
C1061  C1634   1.373   1_545 S
C1062  O1111   1.383   .     S
C1062  C1672   1.372   1_545 S
H1096  C129    1.111   1_556 S
N1101  Zn1121  2.024   .     S
N1102  Zn1122  2.024   .     S
O1103  Zn1121  2.007   .     S
O1104  C130    1.412   1_556 S
O1113  Zn1122  2.007   .     S
O1114  Zn1122  1.997   .     S
O1115  Zn1121  1.997   .     S
O1116  Zn1121  1.963   .     S
O1117  Zn1122  1.963   .     S
O1118  Zn1122  2.013   .     S
O1119  Zn1121  2.013   .     S
C1123  O1216   1.290   .     A
C1123  O1205   1.288   .     A
C1123  C1126   1.422   .     S
C1124  C1126   1.405   .     A
C1124  O1214   1.383   .     S
C1124  C1469   1.373   .     S
C1125  C1164   1.406   .     A
C1125  C1134   1.422   .     S
C1125  C1163   1.397   .     A
C1126  C1162   1.397   .     A
C1127  Cl1167  1.754   .     S
C1127  N1204   1.378   .     A
C1127  C925    1.418   1_655 S
C1128  Cl1168  1.753   .     S
C1128  N1203   1.377   .     A
C1129  H1191   1.082   .     S
C1129  N1203   1.362   .     A
C1130  N1204   1.362   .     A
C1130  H1197   1.082   .     S
C1130  C924    1.419   1_655 S
C1131  O1220   1.296   .     A
C1131  C1133   1.461   .     S
C1131  O1218   1.297   .     A
C1132  O1219   1.304   .     A
C1132  C1135   1.462   .     S
C1132  O1221   1.296   .     A
C1133  C1140   1.395   .     A
C1133  C1138   1.394   .     A
C1134  O1217   1.291   .     A
C1134  O1215   1.287   .     A
C1135  C1141   1.421   .     A
C1135  C1139   1.406   .     A
C1136  C1138   1.405   .     A
C1136  O1209   1.390   .     S
C1136  C1144   1.426   .     A
C1137  C1146   1.406   .     A
C1137  C1139   1.388   .     A
C1137  O1210   1.379   .     S
C1138  Cl1166  1.773   .     S
C1139  Cl1165  1.775   .     S
C1140  O1208   1.385   .     S
C1140  C1142   1.408   .     A
C1141  C1143   1.408   .     A
C1141  O1207   1.382   .     S
C1142  C1147   1.386   .     A
C1142  C1144   1.411   .     A
C1143  C1148   1.428   .     A
C1143  C1146   1.417   .     A
C1144  C242    1.424   1_556 S
C1145  C1148   1.426   .     A
C1145  O1211   1.387   .     S
C1145  C1160   1.424   .     A
C1147  C1156   1.406   .     A
C1147  C230    1.399   1_556 S
C1149  H1200   1.114   .     S
C1149  O1222   1.413   .     S
C1149  H1199   1.108   .     S
C1150  H1201   1.113   .     S
C1150  H1170   1.113   .     S
C1150  H1202   1.108   .     S
C1151  O1207   1.410   .     S
C1151  H1172   1.113   .     S
C1151  H1171   1.113   .     S
C1151  H1173   1.109   .     S
C1152  H1176   1.109   .     S
C1152  O1208   1.410   .     S
C1152  H1175   1.114   .     S
C1152  H1174   1.112   .     S
C1153  H1178   1.097   .     S
C1153  H1179   1.109   .     S
C1153  H973    1.114   1_655 S
C1153  O1005   1.430   1_655 S
C1154  H1182   1.114   .     S
C1154  H263    1.109   1_556 S
C1154  H979    1.109   1_655 S
C1154  O292    1.418   1_556 S
C1155  H1184   1.109   .     S
C1155  O1211   1.416   .     S
C1155  H1185   1.115   .     S
C1155  H1186   1.109   .     S
C1156  O1212   1.386   .     S
C1156  C1161   1.391   .     A
C1157  H1187   1.116   .     S
C1157  H1188   1.108   .     S
C1157  H1189   1.110   .     S
C1157  O1212   1.416   .     S
C1158  H1193   1.112   .     S
C1158  H1192   1.109   .     S
C1158  O1213   1.408   .     S
C1158  H1190   1.114   .     S
C1159  H1196   1.113   .     S
C1159  H1195   1.113   .     S
C1159  H1194   1.109   .     S
C1159  O1214   1.410   .     S
C1160  O1222   1.379   .     S
C1161  O1206   1.378   .     S
C1161  C228    1.399   1_556 S
C1162  H1169   1.084   .     S
C1162  C1470   1.372   .     S
C1163  H1180   1.084   .     S
C1163  C1736   1.373   1_545 S
C1164  O1213   1.383   .     S
C1164  C1774   1.372   1_545 S
H1198  C231    1.111   1_556 S
N1203  Zn1223  2.024   .     S
N1204  Zn1224  2.024   .     S
O1205  Zn1223  2.007   .     S
O1206  C232    1.412   1_556 S
O1215  Zn1224  2.007   .     S
O1216  Zn1224  1.997   .     S
O1217  Zn1223  1.997   .     S
O1218  Zn1223  1.963   .     S
O1219  Zn1224  1.963   .     S
O1220  Zn1224  2.013   .     S
O1221  Zn1223  2.013   .     S
C1225  O1318   1.290   .     A
C1225  O1307   1.288   .     A
C1225  C1228   1.422   .     S
C1226  C1228   1.405   .     A
C1226  O1316   1.383   .     S
C1226  C1571   1.373   .     S
C1227  C1266   1.406   .     A
C1227  C1236   1.422   .     S
C1227  C1265   1.397   .     A
C1228  C1264   1.397   .     A
C1229  Cl1269  1.754   .     S
C1229  N1306   1.378   .     A
C1229  C1333   1.418   .     S
C1230  Cl1270  1.753   .     S
C1230  N1305   1.377   .     A
C1230  C1436   1.419   1_455 S
C1231  H1293   1.082   .     S
C1231  N1305   1.362   .     A
C1231  C1433   1.418   1_455 S
C1232  N1306   1.362   .     A
C1232  H1299   1.082   .     S
C1232  C1332   1.419   .     S
C1233  O1322   1.296   .     A
C1233  C1235   1.461   .     S
C1233  O1320   1.297   .     A
C1234  O1321   1.304   .     A
C1234  C1237   1.462   .     S
C1234  O1323   1.296   .     A
C1235  C1242   1.395   .     A
C1235  C1240   1.394   .     A
C1236  O1319   1.291   .     A
C1236  O1317   1.287   .     A
C1237  C1243   1.421   .     A
C1237  C1241   1.406   .     A
C1238  C1240   1.405   .     A
C1238  O1311   1.390   .     S
C1238  C1246   1.426   .     A
C1239  C1248   1.406   .     A
C1239  C1241   1.388   .     A
C1239  O1312   1.379   .     S
C1240  Cl1268  1.773   .     S
C1241  Cl1267  1.775   .     S
C1242  O1310   1.385   .     S
C1242  C1244   1.408   .     A
C1243  C1245   1.408   .     A
C1243  O1309   1.382   .     S
C1244  C1249   1.386   .     A
C1244  C1246   1.411   .     A
C1245  C1250   1.428   .     A
C1245  C1248   1.417   .     A
C1246  C344    1.424   1_556 S
C1247  C1250   1.426   .     A
C1247  O1313   1.387   .     S
C1247  C1262   1.424   .     A
C1249  C1258   1.406   .     A
C1249  C332    1.399   1_556 S
C1251  H1302   1.114   .     S
C1251  O1324   1.413   .     S
C1251  H1301   1.108   .     S
C1252  H1303   1.113   .     S
C1252  H1272   1.113   .     S
C1252  H1304   1.108   .     S
C1253  O1309   1.410   .     S
C1253  H1274   1.113   .     S
C1253  H1273   1.113   .     S
C1253  H1275   1.109   .     S
C1254  H1278   1.109   .     S
C1254  O1310   1.410   .     S
C1254  H1277   1.114   .     S
C1254  H1276   1.112   .     S
C1255  H1280   1.097   .     S
C1255  H1281   1.109   .     S
C1255  H1381   1.114   .     S
C1255  O1413   1.430   .     S
C1256  H1284   1.114   .     S
C1256  H365    1.109   1_556 S
C1256  H1387   1.109   .     S
C1256  O394    1.418   1_556 S
C1257  H1286   1.109   .     S
C1257  O1313   1.416   .     S
C1257  H1287   1.115   .     S
C1257  H1288   1.109   .     S
C1258  O1314   1.386   .     S
C1258  C1263   1.391   .     A
C1259  H1289   1.116   .     S
C1259  H1290   1.108   .     S
C1259  H1291   1.110   .     S
C1259  O1314   1.416   .     S
C1260  H1295   1.112   .     S
C1260  H1294   1.109   .     S
C1260  O1315   1.408   .     S
C1260  H1292   1.114   .     S
C1261  H1298   1.113   .     S
C1261  H1297   1.113   .     S
C1261  H1296   1.109   .     S
C1261  O1316   1.410   .     S
C1262  O1324   1.379   .     S
C1263  O1308   1.378   .     S
C1263  C330    1.399   1_556 S
C1264  H1271   1.084   .     S
C1264  C1572   1.372   .     S
C1265  H1282   1.084   .     S
C1266  O1315   1.383   .     S
H1279  C1459   1.114   1_455 S
H1285  C1460   1.109   1_455 S
H1300  C333    1.111   1_556 S
N1305  Zn1325  2.024   .     S
N1306  Zn1326  2.024   .     S
O1307  Zn1325  2.007   .     S
O1308  C334    1.412   1_556 S
O1311  C1459   1.430   1_455 S
O1317  Zn1326  2.007   .     S
O1318  Zn1326  1.997   .     S
O1319  Zn1325  1.997   .     S
O1320  Zn1325  1.963   .     S
O1321  Zn1326  1.963   .     S
O1322  Zn1326  2.013   .     S
O1323  Zn1325  2.013   .     S
C1327  O1420   1.290   .     A
C1327  O1409   1.288   .     A
C1327  C1330   1.422   .     S
C1328  C1330   1.405   .     A
C1328  O1418   1.383   .     S
C1328  C1673   1.373   .     S
C1329  C1368   1.406   .     A
C1329  C1338   1.422   .     S
C1329  C1367   1.397   .     A
C1330  C1366   1.397   .     A
C1331  Cl1371  1.754   .     S
C1331  N1408   1.378   .     A
C1331  C1435   1.418   .     S
C1332  Cl1372  1.753   .     S
C1332  N1407   1.377   .     A
C1333  H1395   1.082   .     S
C1333  N1407   1.362   .     A
C1334  N1408   1.362   .     A
C1334  H1401   1.082   .     S
C1334  C1434   1.419   .     S
C1335  O1424   1.296   .     A
C1335  C1337   1.461   .     S
C1335  O1422   1.297   .     A
C1336  O1423   1.304   .     A
C1336  C1339   1.462   .     S
C1336  O1425   1.296   .     A
C1337  C1344   1.395   .     A
C1337  C1342   1.394   .     A
C1338  O1421   1.291   .     A
C1338  O1419   1.287   .     A
C1339  C1345   1.421   .     A
C1339  C1343   1.406   .     A
C1340  C1342   1.405   .     A
C1340  O1413   1.390   .     S
C1340  C1348   1.426   .     A
C1341  C1350   1.406   .     A
C1341  C1343   1.388   .     A
C1341  O1414   1.379   .     S
C1342  Cl1370  1.773   .     S
C1343  Cl1369  1.775   .     S
C1344  O1412   1.385   .     S
C1344  C1346   1.408   .     A
C1345  C1347   1.408   .     A
C1345  O1411   1.382   .     S
C1346  C1351   1.386   .     A
C1346  C1348   1.411   .     A
C1347  C1352   1.428   .     A
C1347  C1350   1.417   .     A
C1348  C446    1.424   1_556 S
C1349  C1352   1.426   .     A
C1349  O1415   1.387   .     S
C1349  C1364   1.424   .     A
C1351  C1360   1.406   .     A
C1351  C434    1.399   1_556 S
C1353  H1404   1.114   .     S
C1353  O1426   1.413   .     S
C1353  H1403   1.108   .     S
C1354  H1405   1.113   .     S
C1354  H1374   1.113   .     S
C1354  H1406   1.108   .     S
C1355  O1411   1.410   .     S
C1355  H1376   1.113   .     S
C1355  H1375   1.113   .     S
C1355  H1377   1.109   .     S
C1356  H1380   1.109   .     S
C1356  O1412   1.410   .     S
C1356  H1379   1.114   .     S
C1356  H1378   1.112   .     S
C1357  H1382   1.097   .     S
C1357  H1383   1.109   .     S
C1357  H1483   1.114   .     S
C1357  O1515   1.430   .     S
C1358  H1386   1.114   .     S
C1358  H467    1.109   1_556 S
C1358  H1489   1.109   .     S
C1358  O496    1.418   1_556 S
C1359  H1388   1.109   .     S
C1359  O1415   1.416   .     S
C1359  H1389   1.115   .     S
C1359  H1390   1.109   .     S
C1360  O1416   1.386   .     S
C1360  C1365   1.391   .     A
C1361  H1391   1.116   .     S
C1361  H1392   1.108   .     S
C1361  H1393   1.110   .     S
C1361  O1416   1.416   .     S
C1362  H1397   1.112   .     S
C1362  H1396   1.109   .     S
C1362  O1417   1.408   .     S
C1362  H1394   1.114   .     S
C1363  H1400   1.113   .     S
C1363  H1399   1.113   .     S
C1363  H1398   1.109   .     S
C1363  O1418   1.410   .     S
C1364  O1426   1.379   .     S
C1365  O1410   1.378   .     S
C1365  C432    1.399   1_556 S
C1366  H1373   1.084   .     S
C1366  C1674   1.372   .     S
C1367  H1384   1.084   .     S
C1368  O1417   1.383   .     S
H1402  C435    1.111   1_556 S
N1407  Zn1427  2.024   .     S
N1408  Zn1428  2.024   .     S
O1409  Zn1427  2.007   .     S
O1410  C436    1.412   1_556 S
O1419  Zn1428  2.007   .     S
O1420  Zn1428  1.997   .     S
O1421  Zn1427  1.997   .     S
O1422  Zn1427  1.963   .     S
O1423  Zn1428  1.963   .     S
O1424  Zn1428  2.013   .     S
O1425  Zn1427  2.013   .     S
C1429  O1522   1.290   .     A
C1429  O1511   1.288   .     A
C1429  C1432   1.422   .     S
C1430  C1432   1.405   .     A
C1430  O1520   1.383   .     S
C1430  C1775   1.373   .     S
C1431  C1470   1.406   .     A
C1431  C1440   1.422   .     S
C1431  C1469   1.397   .     A
C1432  C1468   1.397   .     A
C1433  Cl1473  1.754   .     S
C1433  N1510   1.378   .     A
C1433  C1231   1.418   1_655 S
C1434  Cl1474  1.753   .     S
C1434  N1509   1.377   .     A
C1435  H1497   1.082   .     S
C1435  N1509   1.362   .     A
C1436  N1510   1.362   .     A
C1436  H1503   1.082   .     S
C1436  C1230   1.419   1_655 S
C1437  O1526   1.296   .     A
C1437  C1439   1.461   .     S
C1437  O1524   1.297   .     A
C1438  O1525   1.304   .     A
C1438  C1441   1.462   .     S
C1438  O1527   1.296   .     A
C1439  C1446   1.395   .     A
C1439  C1444   1.394   .     A
C1440  O1523   1.291   .     A
C1440  O1521   1.287   .     A
C1441  C1447   1.421   .     A
C1441  C1445   1.406   .     A
C1442  C1444   1.405   .     A
C1442  O1515   1.390   .     S
C1442  C1450   1.426   .     A
C1443  C1452   1.406   .     A
C1443  C1445   1.388   .     A
C1443  O1516   1.379   .     S
C1444  Cl1472  1.773   .     S
C1445  Cl1471  1.775   .     S
C1446  O1514   1.385   .     S
C1446  C1448   1.408   .     A
C1447  C1449   1.408   .     A
C1447  O1513   1.382   .     S
C1448  C1453   1.386   .     A
C1448  C1450   1.411   .     A
C1449  C1454   1.428   .     A
C1449  C1452   1.417   .     A
C1450  C548    1.424   1_556 S
C1451  C1454   1.426   .     A
C1451  O1517   1.387   .     S
C1451  C1466   1.424   .     A
C1453  C1462   1.406   .     A
C1453  C536    1.399   1_556 S
C1455  H1506   1.114   .     S
C1455  O1528   1.413   .     S
C1455  H1505   1.108   .     S
C1456  H1507   1.113   .     S
C1456  H1476   1.113   .     S
C1456  H1508   1.108   .     S
C1457  O1513   1.410   .     S
C1457  H1478   1.113   .     S
C1457  H1477   1.113   .     S
C1457  H1479   1.109   .     S
C1458  H1482   1.109   .     S
C1458  O1514   1.410   .     S
C1458  H1481   1.114   .     S
C1458  H1480   1.112   .     S
C1459  H1484   1.097   .     S
C1459  H1485   1.109   .     S
C1459  H1279   1.114   1_655 S
C1459  O1311   1.430   1_655 S
C1460  H1488   1.114   .     S
C1460  H569    1.109   1_556 S
C1460  H1285   1.109   1_655 S
C1460  O598    1.418   1_556 S
C1461  H1490   1.109   .     S
C1461  O1517   1.416   .     S
C1461  H1491   1.115   .     S
C1461  H1492   1.109   .     S
C1462  O1518   1.386   .     S
C1462  C1467   1.391   .     A
C1463  H1493   1.116   .     S
C1463  H1494   1.108   .     S
C1463  H1495   1.110   .     S
C1463  O1518   1.416   .     S
C1464  H1499   1.112   .     S
C1464  H1498   1.109   .     S
C1464  O1519   1.408   .     S
C1464  H1496   1.114   .     S
C1465  H1502   1.113   .     S
C1465  H1501   1.113   .     S
C1465  H1500   1.109   .     S
C1465  O1520   1.410   .     S
C1466  O1528   1.379   .     S
C1467  O1512   1.378   .     S
C1467  C534    1.399   1_556 S
C1468  H1475   1.084   .     S
C1468  C1776   1.372   .     S
C1469  H1486   1.084   .     S
C1470  O1519   1.383   .     S
H1504  C537    1.111   1_556 S
N1509  Zn1529  2.024   .     S
N1510  Zn1530  2.024   .     S
O1511  Zn1529  2.007   .     S
O1512  C538    1.412   1_556 S
O1521  Zn1530  2.007   .     S
O1522  Zn1530  1.997   .     S
O1523  Zn1529  1.997   .     S
O1524  Zn1529  1.963   .     S
O1525  Zn1530  1.963   .     S
O1526  Zn1530  2.013   .     S
O1527  Zn1529  2.013   .     S
C1531  O1624   1.290   .     A
C1531  O1613   1.288   .     A
C1531  C1534   1.422   .     S
C1532  C1534   1.405   .     A
C1532  O1622   1.383   .     S
C1532  C959    1.373   1_565 S
C1533  C1572   1.406   .     A
C1533  C1542   1.422   .     S
C1533  C1571   1.397   .     A
C1534  C1570   1.397   .     A
C1535  Cl1575  1.754   .     S
C1535  N1612   1.378   .     A
C1535  C1639   1.418   .     S
C1536  Cl1576  1.753   .     S
C1536  N1611   1.377   .     A
C1536  C1742   1.419   1_455 S
C1537  H1599   1.082   .     S
C1537  N1611   1.362   .     A
C1537  C1739   1.418   1_455 S
C1538  N1612   1.362   .     A
C1538  H1605   1.082   .     S
C1538  C1638   1.419   .     S
C1539  O1628   1.296   .     A
C1539  C1541   1.461   .     S
C1539  O1626   1.297   .     A
C1540  O1627   1.304   .     A
C1540  C1543   1.462   .     S
C1540  O1629   1.296   .     A
C1541  C1548   1.395   .     A
C1541  C1546   1.394   .     A
C1542  O1625   1.291   .     A
C1542  O1623   1.287   .     A
C1543  C1549   1.421   .     A
C1543  C1547   1.406   .     A
C1544  C1546   1.405   .     A
C1544  O1617   1.390   .     S
C1544  C1552   1.426   .     A
C1545  C1554   1.406   .     A
C1545  C1547   1.388   .     A
C1545  O1618   1.379   .     S
C1546  Cl1574  1.773   .     S
C1547  Cl1573  1.775   .     S
C1548  O1616   1.385   .     S
C1548  C1550   1.408   .     A
C1549  C1551   1.408   .     A
C1549  O1615   1.382   .     S
C1550  C1555   1.386   .     A
C1550  C1552   1.411   .     A
C1551  C1556   1.428   .     A
C1551  C1554   1.417   .     A
C1552  C650    1.424   1_556 S
C1553  C1556   1.426   .     A
C1553  O1619   1.387   .     S
C1553  C1568   1.424   .     A
C1555  C1564   1.406   .     A
C1555  C638    1.399   1_556 S
C1557  H1608   1.114   .     S
C1557  O1630   1.413   .     S
C1557  H1607   1.108   .     S
C1558  H1609   1.113   .     S
C1558  H1578   1.113   .     S
C1558  H1610   1.108   .     S
C1559  O1615   1.410   .     S
C1559  H1580   1.113   .     S
C1559  H1579   1.113   .     S
C1559  H1581   1.109   .     S
C1560  H1584   1.109   .     S
C1560  O1616   1.410   .     S
C1560  H1583   1.114   .     S
C1560  H1582   1.112   .     S
C1561  H1586   1.097   .     S
C1561  H1587   1.109   .     S
C1561  H1687   1.114   .     S
C1561  O1719   1.430   .     S
C1562  H1590   1.114   .     S
C1562  H671    1.109   1_556 S
C1562  H1693   1.109   .     S
C1562  O700    1.418   1_556 S
C1563  H1592   1.109   .     S
C1563  O1619   1.416   .     S
C1563  H1593   1.115   .     S
C1563  H1594   1.109   .     S
C1564  O1620   1.386   .     S
C1564  C1569   1.391   .     A
C1565  H1595   1.116   .     S
C1565  H1596   1.108   .     S
C1565  H1597   1.110   .     S
C1565  O1620   1.416   .     S
C1566  H1601   1.112   .     S
C1566  H1600   1.109   .     S
C1566  O1621   1.408   .     S
C1566  H1598   1.114   .     S
C1567  H1604   1.113   .     S
C1567  H1603   1.113   .     S
C1567  H1602   1.109   .     S
C1567  O1622   1.410   .     S
C1568  O1630   1.379   .     S
C1569  O1614   1.378   .     S
C1569  C636    1.399   1_556 S
C1570  H1577   1.084   .     S
C1570  C960    1.372   1_565 S
C1571  H1588   1.084   .     S
C1572  O1621   1.383   .     S
H1585  C1765   1.114   1_455 S
H1591  C1766   1.109   1_455 S
H1606  C639    1.111   1_556 S
N1611  Zn1631  2.024   .     S
N1612  Zn1632  2.024   .     S
O1613  Zn1631  2.007   .     S
O1614  C640    1.412   1_556 S
O1617  C1765   1.430   1_455 S
O1623  Zn1632  2.007   .     S
O1624  Zn1632  1.997   .     S
O1625  Zn1631  1.997   .     S
O1626  Zn1631  1.963   .     S
O1627  Zn1632  1.963   .     S
O1628  Zn1632  2.013   .     S
O1629  Zn1631  2.013   .     S
C1633  O1726   1.290   .     A
C1633  O1715   1.288   .     A
C1633  C1636   1.422   .     S
C1634  C1636   1.405   .     A
C1634  O1724   1.383   .     S
C1634  C1061   1.373   1_565 S
C1635  C1674   1.406   .     A
C1635  C1644   1.422   .     S
C1635  C1673   1.397   .     A
C1636  C1672   1.397   .     A
C1637  Cl1677  1.754   .     S
C1637  N1714   1.378   .     A
C1637  C1741   1.418   .     S
C1638  Cl1678  1.753   .     S
C1638  N1713   1.377   .     A
C1639  H1701   1.082   .     S
C1639  N1713   1.362   .     A
C1640  N1714   1.362   .     A
C1640  H1707   1.082   .     S
C1640  C1740   1.419   .     S
C1641  O1730   1.296   .     A
C1641  C1643   1.461   .     S
C1641  O1728   1.297   .     A
C1642  O1729   1.304   .     A
C1642  C1645   1.462   .     S
C1642  O1731   1.296   .     A
C1643  C1650   1.395   .     A
C1643  C1648   1.394   .     A
C1644  O1727   1.291   .     A
C1644  O1725   1.287   .     A
C1645  C1651   1.421   .     A
C1645  C1649   1.406   .     A
C1646  C1648   1.405   .     A
C1646  O1719   1.390   .     S
C1646  C1654   1.426   .     A
C1647  C1656   1.406   .     A
C1647  C1649   1.388   .     A
C1647  O1720   1.379   .     S
C1648  Cl1676  1.773   .     S
C1649  Cl1675  1.775   .     S
C1650  O1718   1.385   .     S
C1650  C1652   1.408   .     A
C1651  C1653   1.408   .     A
C1651  O1717   1.382   .     S
C1652  C1657   1.386   .     A
C1652  C1654   1.411   .     A
C1653  C1658   1.428   .     A
C1653  C1656   1.417   .     A
C1654  C752    1.424   1_556 S
C1655  C1658   1.426   .     A
C1655  O1721   1.387   .     S
C1655  C1670   1.424   .     A
C1657  C1666   1.406   .     A
C1657  C740    1.399   1_556 S
C1659  H1710   1.114   .     S
C1659  O1732   1.413   .     S
C1659  H1709   1.108   .     S
C1660  H1711   1.113   .     S
C1660  H1680   1.113   .     S
C1660  H1712   1.108   .     S
C1661  O1717   1.410   .     S
C1661  H1682   1.113   .     S
C1661  H1681   1.113   .     S
C1661  H1683   1.109   .     S
C1662  H1686   1.109   .     S
C1662  O1718   1.410   .     S
C1662  H1685   1.114   .     S
C1662  H1684   1.112   .     S
C1663  H1688   1.097   .     S
C1663  H1689   1.109   .     S
C1663  H1789   1.114   .     S
C1663  O1821   1.430   .     S
C1664  H1692   1.114   .     S
C1664  H773    1.109   1_556 S
C1664  H1795   1.109   .     S
C1664  O802    1.418   1_556 S
C1665  H1694   1.109   .     S
C1665  O1721   1.416   .     S
C1665  H1695   1.115   .     S
C1665  H1696   1.109   .     S
C1666  O1722   1.386   .     S
C1666  C1671   1.391   .     A
C1667  H1697   1.116   .     S
C1667  H1698   1.108   .     S
C1667  H1699   1.110   .     S
C1667  O1722   1.416   .     S
C1668  H1703   1.112   .     S
C1668  H1702   1.109   .     S
C1668  O1723   1.408   .     S
C1668  H1700   1.114   .     S
C1669  H1706   1.113   .     S
C1669  H1705   1.113   .     S
C1669  H1704   1.109   .     S
C1669  O1724   1.410   .     S
C1670  O1732   1.379   .     S
C1671  O1716   1.378   .     S
C1671  C738    1.399   1_556 S
C1672  H1679   1.084   .     S
C1672  C1062   1.372   1_565 S
C1673  H1690   1.084   .     S
C1674  O1723   1.383   .     S
H1708  C741    1.111   1_556 S
N1713  Zn1733  2.024   .     S
N1714  Zn1734  2.024   .     S
O1715  Zn1733  2.007   .     S
O1716  C742    1.412   1_556 S
O1725  Zn1734  2.007   .     S
O1726  Zn1734  1.997   .     S
O1727  Zn1733  1.997   .     S
O1728  Zn1733  1.963   .     S
O1729  Zn1734  1.963   .     S
O1730  Zn1734  2.013   .     S
O1731  Zn1733  2.013   .     S
C1735  O1828   1.290   .     A
C1735  O1817   1.288   .     A
C1735  C1738   1.422   .     S
C1736  C1738   1.405   .     A
C1736  O1826   1.383   .     S
C1736  C1163   1.373   1_565 S
C1737  C1776   1.406   .     A
C1737  C1746   1.422   .     S
C1737  C1775   1.397   .     A
C1738  C1774   1.397   .     A
C1739  Cl1779  1.754   .     S
C1739  N1816   1.378   .     A
C1739  C1537   1.418   1_655 S
C1740  Cl1780  1.753   .     S
C1740  N1815   1.377   .     A
C1741  H1803   1.082   .     S
C1741  N1815   1.362   .     A
C1742  N1816   1.362   .     A
C1742  H1809   1.082   .     S
C1742  C1536   1.419   1_655 S
C1743  O1832   1.296   .     A
C1743  C1745   1.461   .     S
C1743  O1830   1.297   .     A
C1744  O1831   1.304   .     A
C1744  C1747   1.462   .     S
C1744  O1833   1.296   .     A
C1745  C1752   1.395   .     A
C1745  C1750   1.394   .     A
C1746  O1829   1.291   .     A
C1746  O1827   1.287   .     A
C1747  C1753   1.421   .     A
C1747  C1751   1.406   .     A
C1748  C1750   1.405   .     A
C1748  O1821   1.390   .     S
C1748  C1756   1.426   .     A
C1749  C1758   1.406   .     A
C1749  C1751   1.388   .     A
C1749  O1822   1.379   .     S
C1750  Cl1778  1.773   .     S
C1751  Cl1777  1.775   .     S
C1752  O1820   1.385   .     S
C1752  C1754   1.408   .     A
C1753  C1755   1.408   .     A
C1753  O1819   1.382   .     S
C1754  C1759   1.386   .     A
C1754  C1756   1.411   .     A
C1755  C1760   1.428   .     A
C1755  C1758   1.417   .     A
C1756  C854    1.424   1_556 S
C1757  C1760   1.426   .     A
C1757  O1823   1.387   .     S
C1757  C1772   1.424   .     A
C1759  C1768   1.406   .     A
C1759  C842    1.399   1_556 S
C1761  H1812   1.114   .     S
C1761  O1834   1.413   .     S
C1761  H1811   1.108   .     S
C1762  H1813   1.113   .     S
C1762  H1782   1.113   .     S
C1762  H1814   1.108   .     S
C1763  O1819   1.410   .     S
C1763  H1784   1.113   .     S
C1763  H1783   1.113   .     S
C1763  H1785   1.109   .     S
C1764  H1788   1.109   .     S
C1764  O1820   1.410   .     S
C1764  H1787   1.114   .     S
C1764  H1786   1.112   .     S
C1765  H1790   1.097   .     S
C1765  H1791   1.109   .     S
C1765  H1585   1.114   1_655 S
C1765  O1617   1.430   1_655 S
C1766  H1794   1.114   .     S
C1766  H875    1.109   1_556 S
C1766  H1591   1.109   1_655 S
C1766  O904    1.418   1_556 S
C1767  H1796   1.109   .     S
C1767  O1823   1.416   .     S
C1767  H1797   1.115   .     S
C1767  H1798   1.109   .     S
C1768  O1824   1.386   .     S
C1768  C1773   1.391   .     A
C1769  H1799   1.116   .     S
C1769  H1800   1.108   .     S
C1769  H1801   1.110   .     S
C1769  O1824   1.416   .     S
C1770  H1805   1.112   .     S
C1770  H1804   1.109   .     S
C1770  O1825   1.408   .     S
C1770  H1802   1.114   .     S
C1771  H1808   1.113   .     S
C1771  H1807   1.113   .     S
C1771  H1806   1.109   .     S
C1771  O1826   1.410   .     S
C1772  O1834   1.379   .     S
C1773  O1818   1.378   .     S
C1773  C840    1.399   1_556 S
C1774  H1781   1.084   .     S
C1774  C1164   1.372   1_565 S
C1775  H1792   1.084   .     S
C1776  O1825   1.383   .     S
H1810  C843    1.111   1_556 S
N1815  Zn1835  2.024   .     S
N1816  Zn1836  2.024   .     S
O1817  Zn1835  2.007   .     S
O1818  C844    1.412   1_556 S
O1827  Zn1836  2.007   .     S
O1828  Zn1836  1.997   .     S
O1829  Zn1835  1.997   .     S
O1830  Zn1835  1.963   .     S
O1831  Zn1836  1.963   .     S
O1832  Zn1836  2.013   .     S
O1833  Zn1835  2.013   .     S
