data_str_m2_o1_o16_pcu_sym.98
_audit_creation_date              2020-01-03
_audit_creation_method            'Materials Studio'
_symmetry_space_group_name_H-M    'P1'
_symmetry_Int_Tables_number       1
_symmetry_cell_setting            triclinic
loop_
_symmetry_equiv_pos_as_xyz
  x,y,z
_cell_length_a                    28.5510
_cell_length_b                    32.4978
_cell_length_c                    26.8625
_cell_angle_alpha                 90.1596
_cell_angle_beta                  72.2543
_cell_angle_gamma                 90.0311
loop_
_atom_site_label
_atom_site_type_symbol
_atom_site_fract_x
_atom_site_fract_y
_atom_site_fract_z
_atom_site_U_iso_or_equiv
_atom_site_adp_type
_atom_site_occupancy
O1     O     0.12708   0.22678   0.25001   0.00000  Uiso   1.00
O2     O     0.20627   0.22679   0.25001   0.00000  Uiso   1.00
C3     C     0.16668   0.24598   0.25003   0.00000  Uiso   1.00
O4     O     0.10775   0.16665   0.32549   0.00000  Uiso   1.00
O5     O     0.18694   0.16666   0.32549   0.00000  Uiso   1.00
C6     C     0.14032   0.16547   0.35018   0.00000  Uiso   1.00
Cu7    Cu    0.11978   0.16666   0.25000   0.00000  Uiso   1.00
Cu8    Cu    0.21355   0.16667   0.25000   0.00000  Uiso   1.00
O9     O     0.12706   0.10654   0.25000   0.00000  Uiso   1.00
O10    O     0.20625   0.10655   0.25000   0.00000  Uiso   1.00
O11    O     0.14640   0.16667   0.17451   0.00000  Uiso   1.00
O12    O     0.22559   0.16668   0.17451   0.00000  Uiso   1.00
C13    C     0.16667   0.08736   0.24994   0.00000  Uiso   1.00
C14    C     0.19301   0.16461   0.14994   0.00000  Uiso   1.00
C15    C     0.25883   0.12159   0.01520   0.00000  Uiso   1.00
H16    H     0.25912   0.09567   0.41955   0.00000  Uiso   1.00
C17    C     0.20799   0.15650   0.09336   0.00000  Uiso   1.00
C18    C     0.07992   0.18576   0.43394   0.00000  Uiso   1.00
C19    C     0.06734   0.19308   0.48730   0.00000  Uiso   1.00
C20    C     0.09994   0.18306   0.01476   0.00000  Uiso   1.00
C21    C     0.14558   0.16372   0.48947   0.00000  Uiso   1.00
C22    C     0.15550   0.15214   0.43633   0.00000  Uiso   1.00
C23    C     0.18124   0.15481   0.01533   0.00000  Uiso   1.00
C24    C     0.22377   0.13131   0.48943   0.00000  Uiso   1.00
C25    C     0.22918   0.11601   0.43925   0.00000  Uiso   1.00
C26    C     0.19564   0.12602   0.41337   0.00000  Uiso   1.00
C27    C     0.17570   0.16859   0.06628   0.00000  Uiso   1.00
C28    C     0.24994   0.13300   0.06781   0.00000  Uiso   1.00
C29    C     0.12439   0.16627   0.40770   0.00000  Uiso   1.00
H30    H     0.14573   0.18843   0.08660   0.00000  Uiso   1.00
H31    H     0.05529   0.19630   0.41292   0.00000  Uiso   1.00
H32    H     0.08763   0.18994   0.05596   0.00000  Uiso   1.00
H33    H     0.03264   0.20776   0.00731   0.00000  Uiso   1.00
H34    H     0.20095   0.11191   0.37555   0.00000  Uiso   1.00
C35    C     0.20937   0.31209   0.24959   0.00000  Uiso   1.00
H36    H     0.24272   0.29609   0.24933   0.00000  Uiso   1.00
C37    C     0.20937   0.02132   0.24951   0.00000  Uiso   1.00
H38    H     0.24274   0.03736   0.24917   0.00000  Uiso   1.00
C39    C     0.16670   0.04275   0.24988   0.00000  Uiso   1.00
C40    C     0.12404   0.02127   0.25024   0.00000  Uiso   1.00
H41    H     0.09068   0.03726   0.25051   0.00000  Uiso   1.00
C42    C     0.12403   0.31203   0.25031   0.00000  Uiso   1.00
H43    H     0.09066   0.29600   0.25064   0.00000  Uiso   1.00
C44    C     0.16669   0.29060   0.24999   0.00000  Uiso   1.00
C45    C     0.29972   0.19353   0.28082   0.00000  Uiso   1.00
H46    H     0.27397   0.21504   0.30553   0.00000  Uiso   1.00
C47    C     0.01598   0.19345   0.28091   0.00000  Uiso   1.00
H48    H     0.02761   0.21487   0.30569   0.00000  Uiso   1.00
N49    N     0.04931   0.16666   0.24999   0.00000  Uiso   1.00
C50    C     0.03359   0.13975   0.21929   0.00000  Uiso   1.00
H51    H     0.05930   0.11816   0.19469   0.00000  Uiso   1.00
C52    C     0.31730   0.13967   0.21949   0.00000  Uiso   1.00
H53    H     0.30562   0.11784   0.19538   0.00000  Uiso   1.00
N54    N     0.28402   0.16669   0.25000   0.00000  Uiso   1.00
N55    N     0.28189   0.11832   0.09583   0.00000  Uiso   1.00
O56    O     0.32751   0.13029   0.08253   0.00000  Uiso   1.00
O57    O     0.26768   0.08794   0.12840   0.00000  Uiso   1.00
N58    N     0.30235   0.09855   0.48898   0.00000  Uiso   1.00
O59    O     0.31184   0.06409   0.00848   0.00000  Uiso   1.00
O60    O     0.00038   0.11294   0.44670   0.00000  Uiso   1.00
O61    O     0.46042   0.22678   0.25001   0.00000  Uiso   1.00
O62    O     0.53961   0.22679   0.25001   0.00000  Uiso   1.00
C63    C     0.50001   0.24598   0.25003   0.00000  Uiso   1.00
O64    O     0.44108   0.16665   0.32549   0.00000  Uiso   1.00
O65    O     0.52027   0.16666   0.32549   0.00000  Uiso   1.00
C66    C     0.47365   0.16547   0.35018   0.00000  Uiso   1.00
Cu67   Cu    0.45311   0.16666   0.25000   0.00000  Uiso   1.00
Cu68   Cu    0.54689   0.16667   0.25000   0.00000  Uiso   1.00
O69    O     0.46039   0.10654   0.25000   0.00000  Uiso   1.00
O70    O     0.53958   0.10655   0.25000   0.00000  Uiso   1.00
O71    O     0.47973   0.16667   0.17451   0.00000  Uiso   1.00
O72    O     0.55892   0.16668   0.17451   0.00000  Uiso   1.00
C73    C     0.50000   0.08736   0.24994   0.00000  Uiso   1.00
C74    C     0.52634   0.16461   0.14994   0.00000  Uiso   1.00
C75    C     0.59216   0.12159   0.01520   0.00000  Uiso   1.00
H76    H     0.59245   0.09567   0.41955   0.00000  Uiso   1.00
C77    C     0.54132   0.15650   0.09336   0.00000  Uiso   1.00
C78    C     0.41325   0.18576   0.43394   0.00000  Uiso   1.00
C79    C     0.40067   0.19308   0.48730   0.00000  Uiso   1.00
C80    C     0.43327   0.18306   0.01476   0.00000  Uiso   1.00
C81    C     0.47891   0.16372   0.48947   0.00000  Uiso   1.00
C82    C     0.48884   0.15214   0.43633   0.00000  Uiso   1.00
C83    C     0.51457   0.15481   0.01533   0.00000  Uiso   1.00
C84    C     0.55711   0.13131   0.48943   0.00000  Uiso   1.00
C85    C     0.56251   0.11601   0.43925   0.00000  Uiso   1.00
C86    C     0.52897   0.12602   0.41337   0.00000  Uiso   1.00
C87    C     0.50903   0.16859   0.06628   0.00000  Uiso   1.00
C88    C     0.58327   0.13300   0.06781   0.00000  Uiso   1.00
C89    C     0.45772   0.16627   0.40770   0.00000  Uiso   1.00
H90    H     0.47907   0.18843   0.08660   0.00000  Uiso   1.00
H91    H     0.38862   0.19630   0.41292   0.00000  Uiso   1.00
H92    H     0.42096   0.18994   0.05596   0.00000  Uiso   1.00
H93    H     0.36597   0.20776   0.00731   0.00000  Uiso   1.00
H94    H     0.53429   0.11191   0.37555   0.00000  Uiso   1.00
C95    C     0.54270   0.31209   0.24959   0.00000  Uiso   1.00
H96    H     0.57606   0.29609   0.24933   0.00000  Uiso   1.00
C97    C     0.54271   0.02132   0.24951   0.00000  Uiso   1.00
H98    H     0.57608   0.03736   0.24917   0.00000  Uiso   1.00
C99    C     0.50003   0.04275   0.24988   0.00000  Uiso   1.00
C100   C     0.45737   0.02127   0.25024   0.00000  Uiso   1.00
H101   H     0.42401   0.03726   0.25051   0.00000  Uiso   1.00
C102   C     0.45736   0.31203   0.25031   0.00000  Uiso   1.00
H103   H     0.42399   0.29600   0.25064   0.00000  Uiso   1.00
C104   C     0.50002   0.29060   0.24999   0.00000  Uiso   1.00
C105   C     0.63305   0.19353   0.28082   0.00000  Uiso   1.00
H106   H     0.60731   0.21504   0.30553   0.00000  Uiso   1.00
C107   C     0.34932   0.19345   0.28091   0.00000  Uiso   1.00
H108   H     0.36095   0.21487   0.30569   0.00000  Uiso   1.00
N109   N     0.38265   0.16666   0.24999   0.00000  Uiso   1.00
C110   C     0.36693   0.13975   0.21929   0.00000  Uiso   1.00
H111   H     0.39263   0.11816   0.19469   0.00000  Uiso   1.00
C112   C     0.65063   0.13967   0.21949   0.00000  Uiso   1.00
H113   H     0.63896   0.11784   0.19538   0.00000  Uiso   1.00
N114   N     0.61735   0.16669   0.25000   0.00000  Uiso   1.00
N115   N     0.61523   0.11832   0.09583   0.00000  Uiso   1.00
O116   O     0.66085   0.13029   0.08253   0.00000  Uiso   1.00
O117   O     0.60101   0.08794   0.12840   0.00000  Uiso   1.00
N118   N     0.63569   0.09855   0.48898   0.00000  Uiso   1.00
O119   O     0.64518   0.06409   0.00848   0.00000  Uiso   1.00
O120   O     0.33372   0.11294   0.44670   0.00000  Uiso   1.00
O121   O     0.79375   0.22678   0.25001   0.00000  Uiso   1.00
O122   O     0.87294   0.22679   0.25001   0.00000  Uiso   1.00
C123   C     0.83335   0.24598   0.25003   0.00000  Uiso   1.00
O124   O     0.77441   0.16665   0.32549   0.00000  Uiso   1.00
O125   O     0.85360   0.16666   0.32549   0.00000  Uiso   1.00
C126   C     0.80698   0.16547   0.35018   0.00000  Uiso   1.00
Cu127  Cu    0.78645   0.16666   0.25000   0.00000  Uiso   1.00
Cu128  Cu    0.88022   0.16667   0.25000   0.00000  Uiso   1.00
O129   O     0.79373   0.10654   0.25000   0.00000  Uiso   1.00
O130   O     0.87292   0.10655   0.25000   0.00000  Uiso   1.00
O131   O     0.81306   0.16667   0.17451   0.00000  Uiso   1.00
O132   O     0.89225   0.16668   0.17451   0.00000  Uiso   1.00
C133   C     0.83334   0.08736   0.24994   0.00000  Uiso   1.00
C134   C     0.85968   0.16461   0.14994   0.00000  Uiso   1.00
C135   C     0.92550   0.12159   0.01520   0.00000  Uiso   1.00
H136   H     0.92578   0.09567   0.41955   0.00000  Uiso   1.00
C137   C     0.87465   0.15650   0.09336   0.00000  Uiso   1.00
C138   C     0.74658   0.18576   0.43394   0.00000  Uiso   1.00
C139   C     0.73401   0.19308   0.48730   0.00000  Uiso   1.00
C140   C     0.76661   0.18306   0.01476   0.00000  Uiso   1.00
C141   C     0.81224   0.16372   0.48947   0.00000  Uiso   1.00
C142   C     0.82217   0.15214   0.43633   0.00000  Uiso   1.00
C143   C     0.84791   0.15481   0.01533   0.00000  Uiso   1.00
C144   C     0.89044   0.13131   0.48943   0.00000  Uiso   1.00
C145   C     0.89585   0.11601   0.43925   0.00000  Uiso   1.00
C146   C     0.86230   0.12602   0.41337   0.00000  Uiso   1.00
C147   C     0.84237   0.16859   0.06628   0.00000  Uiso   1.00
C148   C     0.91661   0.13300   0.06781   0.00000  Uiso   1.00
C149   C     0.79105   0.16627   0.40770   0.00000  Uiso   1.00
H150   H     0.81240   0.18843   0.08660   0.00000  Uiso   1.00
H151   H     0.72195   0.19630   0.41292   0.00000  Uiso   1.00
H152   H     0.75430   0.18994   0.05596   0.00000  Uiso   1.00
H153   H     0.69931   0.20776   0.00731   0.00000  Uiso   1.00
H154   H     0.86762   0.11191   0.37555   0.00000  Uiso   1.00
C155   C     0.87603   0.31209   0.24959   0.00000  Uiso   1.00
H156   H     0.90939   0.29609   0.24933   0.00000  Uiso   1.00
C157   C     0.87604   0.02132   0.24951   0.00000  Uiso   1.00
H158   H     0.90941   0.03736   0.24917   0.00000  Uiso   1.00
C159   C     0.83336   0.04275   0.24988   0.00000  Uiso   1.00
C160   C     0.79070   0.02127   0.25024   0.00000  Uiso   1.00
H161   H     0.75735   0.03726   0.25051   0.00000  Uiso   1.00
C162   C     0.79070   0.31203   0.25031   0.00000  Uiso   1.00
H163   H     0.75733   0.29600   0.25064   0.00000  Uiso   1.00
C164   C     0.83336   0.29060   0.24999   0.00000  Uiso   1.00
C165   C     0.96639   0.19353   0.28082   0.00000  Uiso   1.00
H166   H     0.94064   0.21504   0.30553   0.00000  Uiso   1.00
C167   C     0.68265   0.19345   0.28091   0.00000  Uiso   1.00
H168   H     0.69428   0.21487   0.30569   0.00000  Uiso   1.00
N169   N     0.71598   0.16666   0.24999   0.00000  Uiso   1.00
C170   C     0.70026   0.13975   0.21929   0.00000  Uiso   1.00
H171   H     0.72597   0.11816   0.19469   0.00000  Uiso   1.00
C172   C     0.98396   0.13967   0.21949   0.00000  Uiso   1.00
H173   H     0.97229   0.11784   0.19538   0.00000  Uiso   1.00
N174   N     0.95069   0.16669   0.25000   0.00000  Uiso   1.00
N175   N     0.94856   0.11832   0.09583   0.00000  Uiso   1.00
O176   O     0.99418   0.13029   0.08253   0.00000  Uiso   1.00
O177   O     0.93434   0.08794   0.12840   0.00000  Uiso   1.00
N178   N     0.96902   0.09855   0.48898   0.00000  Uiso   1.00
O179   O     0.97851   0.06409   0.00848   0.00000  Uiso   1.00
O180   O     0.66705   0.11294   0.44670   0.00000  Uiso   1.00
O181   O     0.12708   0.56011   0.25001   0.00000  Uiso   1.00
O182   O     0.20627   0.56012   0.25001   0.00000  Uiso   1.00
C183   C     0.16668   0.57931   0.25003   0.00000  Uiso   1.00
O184   O     0.10775   0.49998   0.32549   0.00000  Uiso   1.00
O185   O     0.18694   0.49999   0.32549   0.00000  Uiso   1.00
C186   C     0.14032   0.49880   0.35018   0.00000  Uiso   1.00
Cu187  Cu    0.11978   0.49999   0.25000   0.00000  Uiso   1.00
Cu188  Cu    0.21355   0.50001   0.25000   0.00000  Uiso   1.00
O189   O     0.12706   0.43988   0.25000   0.00000  Uiso   1.00
O190   O     0.20625   0.43989   0.25000   0.00000  Uiso   1.00
O191   O     0.14640   0.50001   0.17451   0.00000  Uiso   1.00
O192   O     0.22559   0.50002   0.17451   0.00000  Uiso   1.00
C193   C     0.16667   0.42069   0.24994   0.00000  Uiso   1.00
C194   C     0.19301   0.49794   0.14994   0.00000  Uiso   1.00
C195   C     0.25883   0.45493   0.01520   0.00000  Uiso   1.00
H196   H     0.25912   0.42901   0.41955   0.00000  Uiso   1.00
C197   C     0.20799   0.48983   0.09336   0.00000  Uiso   1.00
C198   C     0.07992   0.51909   0.43394   0.00000  Uiso   1.00
C199   C     0.06734   0.52641   0.48730   0.00000  Uiso   1.00
C200   C     0.09994   0.51639   0.01476   0.00000  Uiso   1.00
C201   C     0.14558   0.49705   0.48947   0.00000  Uiso   1.00
C202   C     0.15550   0.48547   0.43633   0.00000  Uiso   1.00
C203   C     0.18124   0.48814   0.01533   0.00000  Uiso   1.00
C204   C     0.22377   0.46464   0.48943   0.00000  Uiso   1.00
C205   C     0.22918   0.44935   0.43925   0.00000  Uiso   1.00
C206   C     0.19564   0.45935   0.41337   0.00000  Uiso   1.00
C207   C     0.17570   0.50192   0.06628   0.00000  Uiso   1.00
C208   C     0.24994   0.46634   0.06781   0.00000  Uiso   1.00
C209   C     0.12439   0.49960   0.40770   0.00000  Uiso   1.00
H210   H     0.14573   0.52176   0.08660   0.00000  Uiso   1.00
H211   H     0.05529   0.52963   0.41292   0.00000  Uiso   1.00
H212   H     0.08763   0.52327   0.05596   0.00000  Uiso   1.00
H213   H     0.03264   0.54110   0.00731   0.00000  Uiso   1.00
H214   H     0.20095   0.44524   0.37555   0.00000  Uiso   1.00
C215   C     0.20937   0.64542   0.24959   0.00000  Uiso   1.00
H216   H     0.24272   0.62943   0.24933   0.00000  Uiso   1.00
C217   C     0.20937   0.35466   0.24951   0.00000  Uiso   1.00
H218   H     0.24274   0.37069   0.24917   0.00000  Uiso   1.00
C219   C     0.16670   0.37608   0.24988   0.00000  Uiso   1.00
C220   C     0.12404   0.35460   0.25024   0.00000  Uiso   1.00
H221   H     0.09068   0.37059   0.25051   0.00000  Uiso   1.00
C222   C     0.12403   0.64537   0.25031   0.00000  Uiso   1.00
H223   H     0.09066   0.62934   0.25064   0.00000  Uiso   1.00
C224   C     0.16669   0.62393   0.24999   0.00000  Uiso   1.00
C225   C     0.29972   0.52686   0.28082   0.00000  Uiso   1.00
H226   H     0.27397   0.54837   0.30553   0.00000  Uiso   1.00
C227   C     0.01598   0.52678   0.28091   0.00000  Uiso   1.00
H228   H     0.02761   0.54821   0.30569   0.00000  Uiso   1.00
N229   N     0.04931   0.49999   0.24999   0.00000  Uiso   1.00
C230   C     0.03359   0.47308   0.21929   0.00000  Uiso   1.00
H231   H     0.05930   0.45149   0.19469   0.00000  Uiso   1.00
C232   C     0.31730   0.47300   0.21949   0.00000  Uiso   1.00
H233   H     0.30562   0.45118   0.19538   0.00000  Uiso   1.00
N234   N     0.28402   0.50002   0.25000   0.00000  Uiso   1.00
N235   N     0.28189   0.45165   0.09583   0.00000  Uiso   1.00
O236   O     0.32751   0.46362   0.08253   0.00000  Uiso   1.00
O237   O     0.26768   0.42128   0.12840   0.00000  Uiso   1.00
N238   N     0.30235   0.43189   0.48898   0.00000  Uiso   1.00
O239   O     0.31184   0.39742   0.00848   0.00000  Uiso   1.00
O240   O     0.00038   0.44628   0.44670   0.00000  Uiso   1.00
O241   O     0.46042   0.56011   0.25001   0.00000  Uiso   1.00
O242   O     0.53961   0.56012   0.25001   0.00000  Uiso   1.00
C243   C     0.50001   0.57931   0.25003   0.00000  Uiso   1.00
O244   O     0.44108   0.49998   0.32549   0.00000  Uiso   1.00
O245   O     0.52027   0.49999   0.32549   0.00000  Uiso   1.00
C246   C     0.47365   0.49880   0.35018   0.00000  Uiso   1.00
Cu247  Cu    0.45311   0.49999   0.25000   0.00000  Uiso   1.00
Cu248  Cu    0.54689   0.50001   0.25000   0.00000  Uiso   1.00
O249   O     0.46039   0.43988   0.25000   0.00000  Uiso   1.00
O250   O     0.53958   0.43989   0.25000   0.00000  Uiso   1.00
O251   O     0.47973   0.50001   0.17451   0.00000  Uiso   1.00
O252   O     0.55892   0.50002   0.17451   0.00000  Uiso   1.00
C253   C     0.50000   0.42069   0.24994   0.00000  Uiso   1.00
C254   C     0.52634   0.49794   0.14994   0.00000  Uiso   1.00
C255   C     0.59216   0.45493   0.01520   0.00000  Uiso   1.00
H256   H     0.59245   0.42901   0.41955   0.00000  Uiso   1.00
C257   C     0.54132   0.48983   0.09336   0.00000  Uiso   1.00
C258   C     0.41325   0.51909   0.43394   0.00000  Uiso   1.00
C259   C     0.40067   0.52641   0.48730   0.00000  Uiso   1.00
C260   C     0.43327   0.51639   0.01476   0.00000  Uiso   1.00
C261   C     0.47891   0.49705   0.48947   0.00000  Uiso   1.00
C262   C     0.48884   0.48547   0.43633   0.00000  Uiso   1.00
C263   C     0.51457   0.48814   0.01533   0.00000  Uiso   1.00
C264   C     0.55711   0.46464   0.48943   0.00000  Uiso   1.00
C265   C     0.56251   0.44935   0.43925   0.00000  Uiso   1.00
C266   C     0.52897   0.45935   0.41337   0.00000  Uiso   1.00
C267   C     0.50903   0.50192   0.06628   0.00000  Uiso   1.00
C268   C     0.58327   0.46634   0.06781   0.00000  Uiso   1.00
C269   C     0.45772   0.49960   0.40770   0.00000  Uiso   1.00
H270   H     0.47907   0.52176   0.08660   0.00000  Uiso   1.00
H271   H     0.38862   0.52963   0.41292   0.00000  Uiso   1.00
H272   H     0.42096   0.52327   0.05596   0.00000  Uiso   1.00
H273   H     0.36597   0.54110   0.00731   0.00000  Uiso   1.00
H274   H     0.53429   0.44524   0.37555   0.00000  Uiso   1.00
C275   C     0.54270   0.64542   0.24959   0.00000  Uiso   1.00
H276   H     0.57606   0.62943   0.24933   0.00000  Uiso   1.00
C277   C     0.54271   0.35466   0.24951   0.00000  Uiso   1.00
H278   H     0.57608   0.37069   0.24917   0.00000  Uiso   1.00
C279   C     0.50003   0.37608   0.24988   0.00000  Uiso   1.00
C280   C     0.45737   0.35460   0.25024   0.00000  Uiso   1.00
H281   H     0.42401   0.37059   0.25051   0.00000  Uiso   1.00
C282   C     0.45736   0.64537   0.25031   0.00000  Uiso   1.00
H283   H     0.42399   0.62934   0.25064   0.00000  Uiso   1.00
C284   C     0.50002   0.62393   0.24999   0.00000  Uiso   1.00
C285   C     0.63305   0.52686   0.28082   0.00000  Uiso   1.00
H286   H     0.60731   0.54837   0.30553   0.00000  Uiso   1.00
C287   C     0.34932   0.52678   0.28091   0.00000  Uiso   1.00
H288   H     0.36095   0.54821   0.30569   0.00000  Uiso   1.00
N289   N     0.38265   0.49999   0.24999   0.00000  Uiso   1.00
C290   C     0.36693   0.47308   0.21929   0.00000  Uiso   1.00
H291   H     0.39263   0.45149   0.19469   0.00000  Uiso   1.00
C292   C     0.65063   0.47300   0.21949   0.00000  Uiso   1.00
H293   H     0.63896   0.45118   0.19538   0.00000  Uiso   1.00
N294   N     0.61735   0.50002   0.25000   0.00000  Uiso   1.00
N295   N     0.61523   0.45165   0.09583   0.00000  Uiso   1.00
O296   O     0.66085   0.46362   0.08253   0.00000  Uiso   1.00
O297   O     0.60101   0.42128   0.12840   0.00000  Uiso   1.00
N298   N     0.63569   0.43189   0.48898   0.00000  Uiso   1.00
O299   O     0.64518   0.39742   0.00848   0.00000  Uiso   1.00
O300   O     0.33372   0.44628   0.44670   0.00000  Uiso   1.00
O301   O     0.79375   0.56011   0.25001   0.00000  Uiso   1.00
O302   O     0.87294   0.56012   0.25001   0.00000  Uiso   1.00
C303   C     0.83335   0.57931   0.25003   0.00000  Uiso   1.00
O304   O     0.77441   0.49998   0.32549   0.00000  Uiso   1.00
O305   O     0.85360   0.49999   0.32549   0.00000  Uiso   1.00
C306   C     0.80698   0.49880   0.35018   0.00000  Uiso   1.00
Cu307  Cu    0.78645   0.49999   0.25000   0.00000  Uiso   1.00
Cu308  Cu    0.88022   0.50001   0.25000   0.00000  Uiso   1.00
O309   O     0.79373   0.43988   0.25000   0.00000  Uiso   1.00
O310   O     0.87292   0.43989   0.25000   0.00000  Uiso   1.00
O311   O     0.81306   0.50001   0.17451   0.00000  Uiso   1.00
O312   O     0.89225   0.50002   0.17451   0.00000  Uiso   1.00
C313   C     0.83334   0.42069   0.24994   0.00000  Uiso   1.00
C314   C     0.85968   0.49794   0.14994   0.00000  Uiso   1.00
C315   C     0.92550   0.45493   0.01520   0.00000  Uiso   1.00
H316   H     0.92578   0.42901   0.41955   0.00000  Uiso   1.00
C317   C     0.87465   0.48983   0.09336   0.00000  Uiso   1.00
C318   C     0.74658   0.51909   0.43394   0.00000  Uiso   1.00
C319   C     0.73401   0.52641   0.48730   0.00000  Uiso   1.00
C320   C     0.76661   0.51639   0.01476   0.00000  Uiso   1.00
C321   C     0.81224   0.49705   0.48947   0.00000  Uiso   1.00
C322   C     0.82217   0.48547   0.43633   0.00000  Uiso   1.00
C323   C     0.84791   0.48814   0.01533   0.00000  Uiso   1.00
C324   C     0.89044   0.46464   0.48943   0.00000  Uiso   1.00
C325   C     0.89585   0.44935   0.43925   0.00000  Uiso   1.00
C326   C     0.86230   0.45935   0.41337   0.00000  Uiso   1.00
C327   C     0.84237   0.50192   0.06628   0.00000  Uiso   1.00
C328   C     0.91661   0.46634   0.06781   0.00000  Uiso   1.00
C329   C     0.79105   0.49960   0.40770   0.00000  Uiso   1.00
H330   H     0.81240   0.52176   0.08660   0.00000  Uiso   1.00
H331   H     0.72195   0.52963   0.41292   0.00000  Uiso   1.00
H332   H     0.75430   0.52327   0.05596   0.00000  Uiso   1.00
H333   H     0.69931   0.54110   0.00731   0.00000  Uiso   1.00
H334   H     0.86762   0.44524   0.37555   0.00000  Uiso   1.00
C335   C     0.87603   0.64542   0.24959   0.00000  Uiso   1.00
H336   H     0.90939   0.62943   0.24933   0.00000  Uiso   1.00
C337   C     0.87604   0.35466   0.24951   0.00000  Uiso   1.00
H338   H     0.90941   0.37069   0.24917   0.00000  Uiso   1.00
C339   C     0.83336   0.37608   0.24988   0.00000  Uiso   1.00
C340   C     0.79070   0.35460   0.25024   0.00000  Uiso   1.00
H341   H     0.75735   0.37059   0.25051   0.00000  Uiso   1.00
C342   C     0.79070   0.64537   0.25031   0.00000  Uiso   1.00
H343   H     0.75733   0.62934   0.25064   0.00000  Uiso   1.00
C344   C     0.83336   0.62393   0.24999   0.00000  Uiso   1.00
C345   C     0.96639   0.52686   0.28082   0.00000  Uiso   1.00
H346   H     0.94064   0.54837   0.30553   0.00000  Uiso   1.00
C347   C     0.68265   0.52678   0.28091   0.00000  Uiso   1.00
H348   H     0.69428   0.54821   0.30569   0.00000  Uiso   1.00
N349   N     0.71598   0.49999   0.24999   0.00000  Uiso   1.00
C350   C     0.70026   0.47308   0.21929   0.00000  Uiso   1.00
H351   H     0.72597   0.45149   0.19469   0.00000  Uiso   1.00
C352   C     0.98396   0.47300   0.21949   0.00000  Uiso   1.00
H353   H     0.97229   0.45118   0.19538   0.00000  Uiso   1.00
N354   N     0.95069   0.50002   0.25000   0.00000  Uiso   1.00
N355   N     0.94856   0.45165   0.09583   0.00000  Uiso   1.00
O356   O     0.99418   0.46362   0.08253   0.00000  Uiso   1.00
O357   O     0.93434   0.42128   0.12840   0.00000  Uiso   1.00
N358   N     0.96902   0.43189   0.48898   0.00000  Uiso   1.00
O359   O     0.97851   0.39742   0.00848   0.00000  Uiso   1.00
O360   O     0.66705   0.44628   0.44670   0.00000  Uiso   1.00
O361   O     0.12708   0.89345   0.25001   0.00000  Uiso   1.00
O362   O     0.20627   0.89346   0.25001   0.00000  Uiso   1.00
C363   C     0.16668   0.91265   0.25003   0.00000  Uiso   1.00
O364   O     0.10775   0.83332   0.32549   0.00000  Uiso   1.00
O365   O     0.18694   0.83333   0.32549   0.00000  Uiso   1.00
C366   C     0.14032   0.83214   0.35018   0.00000  Uiso   1.00
Cu367  Cu    0.11978   0.83333   0.25000   0.00000  Uiso   1.00
Cu368  Cu    0.21355   0.83334   0.25000   0.00000  Uiso   1.00
O369   O     0.12706   0.77321   0.25000   0.00000  Uiso   1.00
O370   O     0.20625   0.77322   0.25000   0.00000  Uiso   1.00
O371   O     0.14640   0.83334   0.17451   0.00000  Uiso   1.00
O372   O     0.22559   0.83335   0.17451   0.00000  Uiso   1.00
C373   C     0.16667   0.75402   0.24994   0.00000  Uiso   1.00
C374   C     0.19301   0.83128   0.14994   0.00000  Uiso   1.00
C375   C     0.25883   0.78826   0.01520   0.00000  Uiso   1.00
H376   H     0.25912   0.76234   0.41955   0.00000  Uiso   1.00
C377   C     0.20799   0.82317   0.09336   0.00000  Uiso   1.00
C378   C     0.07992   0.85243   0.43394   0.00000  Uiso   1.00
C379   C     0.06734   0.85975   0.48730   0.00000  Uiso   1.00
C380   C     0.09994   0.84972   0.01476   0.00000  Uiso   1.00
C381   C     0.14558   0.83039   0.48947   0.00000  Uiso   1.00
C382   C     0.15550   0.81881   0.43633   0.00000  Uiso   1.00
C383   C     0.18124   0.82147   0.01533   0.00000  Uiso   1.00
C384   C     0.22377   0.79797   0.48943   0.00000  Uiso   1.00
C385   C     0.22918   0.78268   0.43925   0.00000  Uiso   1.00
C386   C     0.19564   0.79269   0.41337   0.00000  Uiso   1.00
C387   C     0.17570   0.83526   0.06628   0.00000  Uiso   1.00
C388   C     0.24994   0.79967   0.06781   0.00000  Uiso   1.00
C389   C     0.12439   0.83293   0.40770   0.00000  Uiso   1.00
H390   H     0.14573   0.85510   0.08660   0.00000  Uiso   1.00
H391   H     0.05529   0.86297   0.41292   0.00000  Uiso   1.00
H392   H     0.08763   0.85660   0.05596   0.00000  Uiso   1.00
H393   H     0.03264   0.87443   0.00731   0.00000  Uiso   1.00
H394   H     0.20095   0.77858   0.37555   0.00000  Uiso   1.00
C395   C     0.20937   0.97875   0.24959   0.00000  Uiso   1.00
H396   H     0.24272   0.96276   0.24933   0.00000  Uiso   1.00
C397   C     0.20937   0.68799   0.24951   0.00000  Uiso   1.00
H398   H     0.24274   0.70403   0.24917   0.00000  Uiso   1.00
C399   C     0.16670   0.70942   0.24988   0.00000  Uiso   1.00
C400   C     0.12404   0.68793   0.25024   0.00000  Uiso   1.00
H401   H     0.09068   0.70393   0.25051   0.00000  Uiso   1.00
C402   C     0.12403   0.97870   0.25031   0.00000  Uiso   1.00
H403   H     0.09066   0.96267   0.25064   0.00000  Uiso   1.00
C404   C     0.16669   0.95727   0.24999   0.00000  Uiso   1.00
C405   C     0.29972   0.86020   0.28082   0.00000  Uiso   1.00
H406   H     0.27397   0.88171   0.30553   0.00000  Uiso   1.00
C407   C     0.01598   0.86012   0.28091   0.00000  Uiso   1.00
H408   H     0.02761   0.88154   0.30569   0.00000  Uiso   1.00
N409   N     0.04931   0.83332   0.24999   0.00000  Uiso   1.00
C410   C     0.03359   0.80642   0.21929   0.00000  Uiso   1.00
H411   H     0.05930   0.78482   0.19469   0.00000  Uiso   1.00
C412   C     0.31730   0.80634   0.21949   0.00000  Uiso   1.00
H413   H     0.30562   0.78451   0.19538   0.00000  Uiso   1.00
N414   N     0.28402   0.83335   0.25000   0.00000  Uiso   1.00
N415   N     0.28189   0.78498   0.09583   0.00000  Uiso   1.00
O416   O     0.32751   0.79696   0.08253   0.00000  Uiso   1.00
O417   O     0.26768   0.75461   0.12840   0.00000  Uiso   1.00
N418   N     0.30235   0.76522   0.48898   0.00000  Uiso   1.00
O419   O     0.31184   0.73075   0.00848   0.00000  Uiso   1.00
O420   O     0.00038   0.77961   0.44670   0.00000  Uiso   1.00
O421   O     0.46042   0.89345   0.25001   0.00000  Uiso   1.00
O422   O     0.53961   0.89346   0.25001   0.00000  Uiso   1.00
C423   C     0.50001   0.91265   0.25003   0.00000  Uiso   1.00
O424   O     0.44108   0.83332   0.32549   0.00000  Uiso   1.00
O425   O     0.52027   0.83333   0.32549   0.00000  Uiso   1.00
C426   C     0.47365   0.83214   0.35018   0.00000  Uiso   1.00
Cu427  Cu    0.45311   0.83333   0.25000   0.00000  Uiso   1.00
Cu428  Cu    0.54689   0.83334   0.25000   0.00000  Uiso   1.00
O429   O     0.46039   0.77321   0.25000   0.00000  Uiso   1.00
O430   O     0.53958   0.77322   0.25000   0.00000  Uiso   1.00
O431   O     0.47973   0.83334   0.17451   0.00000  Uiso   1.00
O432   O     0.55892   0.83335   0.17451   0.00000  Uiso   1.00
C433   C     0.50000   0.75402   0.24994   0.00000  Uiso   1.00
C434   C     0.52634   0.83128   0.14994   0.00000  Uiso   1.00
C435   C     0.59216   0.78826   0.01520   0.00000  Uiso   1.00
H436   H     0.59245   0.76234   0.41955   0.00000  Uiso   1.00
C437   C     0.54132   0.82317   0.09336   0.00000  Uiso   1.00
C438   C     0.41325   0.85243   0.43394   0.00000  Uiso   1.00
C439   C     0.40067   0.85975   0.48730   0.00000  Uiso   1.00
C440   C     0.43327   0.84972   0.01476   0.00000  Uiso   1.00
C441   C     0.47891   0.83039   0.48947   0.00000  Uiso   1.00
C442   C     0.48884   0.81881   0.43633   0.00000  Uiso   1.00
C443   C     0.51457   0.82147   0.01533   0.00000  Uiso   1.00
C444   C     0.55711   0.79797   0.48943   0.00000  Uiso   1.00
C445   C     0.56251   0.78268   0.43925   0.00000  Uiso   1.00
C446   C     0.52897   0.79269   0.41337   0.00000  Uiso   1.00
C447   C     0.50903   0.83526   0.06628   0.00000  Uiso   1.00
C448   C     0.58327   0.79967   0.06781   0.00000  Uiso   1.00
C449   C     0.45772   0.83293   0.40770   0.00000  Uiso   1.00
H450   H     0.47907   0.85510   0.08660   0.00000  Uiso   1.00
H451   H     0.38862   0.86297   0.41292   0.00000  Uiso   1.00
H452   H     0.42096   0.85660   0.05596   0.00000  Uiso   1.00
H453   H     0.36597   0.87443   0.00731   0.00000  Uiso   1.00
H454   H     0.53429   0.77858   0.37555   0.00000  Uiso   1.00
C455   C     0.54270   0.97875   0.24959   0.00000  Uiso   1.00
H456   H     0.57606   0.96276   0.24933   0.00000  Uiso   1.00
C457   C     0.54271   0.68799   0.24951   0.00000  Uiso   1.00
H458   H     0.57608   0.70403   0.24917   0.00000  Uiso   1.00
C459   C     0.50003   0.70942   0.24988   0.00000  Uiso   1.00
C460   C     0.45737   0.68793   0.25024   0.00000  Uiso   1.00
H461   H     0.42401   0.70393   0.25051   0.00000  Uiso   1.00
C462   C     0.45736   0.97870   0.25031   0.00000  Uiso   1.00
H463   H     0.42399   0.96267   0.25064   0.00000  Uiso   1.00
C464   C     0.50002   0.95727   0.24999   0.00000  Uiso   1.00
C465   C     0.63305   0.86020   0.28082   0.00000  Uiso   1.00
H466   H     0.60731   0.88171   0.30553   0.00000  Uiso   1.00
C467   C     0.34932   0.86012   0.28091   0.00000  Uiso   1.00
H468   H     0.36095   0.88154   0.30569   0.00000  Uiso   1.00
N469   N     0.38265   0.83332   0.24999   0.00000  Uiso   1.00
C470   C     0.36693   0.80642   0.21929   0.00000  Uiso   1.00
H471   H     0.39263   0.78482   0.19469   0.00000  Uiso   1.00
C472   C     0.65063   0.80634   0.21949   0.00000  Uiso   1.00
H473   H     0.63896   0.78451   0.19538   0.00000  Uiso   1.00
N474   N     0.61735   0.83335   0.25000   0.00000  Uiso   1.00
N475   N     0.61523   0.78498   0.09583   0.00000  Uiso   1.00
O476   O     0.66085   0.79696   0.08253   0.00000  Uiso   1.00
O477   O     0.60101   0.75461   0.12840   0.00000  Uiso   1.00
N478   N     0.63569   0.76522   0.48898   0.00000  Uiso   1.00
O479   O     0.64518   0.73075   0.00848   0.00000  Uiso   1.00
O480   O     0.33372   0.77961   0.44670   0.00000  Uiso   1.00
O481   O     0.79375   0.89345   0.25001   0.00000  Uiso   1.00
O482   O     0.87294   0.89346   0.25001   0.00000  Uiso   1.00
C483   C     0.83335   0.91265   0.25003   0.00000  Uiso   1.00
O484   O     0.77441   0.83332   0.32549   0.00000  Uiso   1.00
O485   O     0.85360   0.83333   0.32549   0.00000  Uiso   1.00
C486   C     0.80698   0.83214   0.35018   0.00000  Uiso   1.00
Cu487  Cu    0.78645   0.83333   0.25000   0.00000  Uiso   1.00
Cu488  Cu    0.88022   0.83334   0.25000   0.00000  Uiso   1.00
O489   O     0.79373   0.77321   0.25000   0.00000  Uiso   1.00
O490   O     0.87292   0.77322   0.25000   0.00000  Uiso   1.00
O491   O     0.81306   0.83334   0.17451   0.00000  Uiso   1.00
O492   O     0.89225   0.83335   0.17451   0.00000  Uiso   1.00
C493   C     0.83334   0.75402   0.24994   0.00000  Uiso   1.00
C494   C     0.85968   0.83128   0.14994   0.00000  Uiso   1.00
C495   C     0.92550   0.78826   0.01520   0.00000  Uiso   1.00
H496   H     0.92578   0.76234   0.41955   0.00000  Uiso   1.00
C497   C     0.87465   0.82317   0.09336   0.00000  Uiso   1.00
C498   C     0.74658   0.85243   0.43394   0.00000  Uiso   1.00
C499   C     0.73401   0.85975   0.48730   0.00000  Uiso   1.00
C500   C     0.76661   0.84972   0.01476   0.00000  Uiso   1.00
C501   C     0.81224   0.83039   0.48947   0.00000  Uiso   1.00
C502   C     0.82217   0.81881   0.43633   0.00000  Uiso   1.00
C503   C     0.84791   0.82147   0.01533   0.00000  Uiso   1.00
C504   C     0.89044   0.79797   0.48943   0.00000  Uiso   1.00
C505   C     0.89585   0.78268   0.43925   0.00000  Uiso   1.00
C506   C     0.86230   0.79269   0.41337   0.00000  Uiso   1.00
C507   C     0.84237   0.83526   0.06628   0.00000  Uiso   1.00
C508   C     0.91661   0.79967   0.06781   0.00000  Uiso   1.00
C509   C     0.79105   0.83293   0.40770   0.00000  Uiso   1.00
H510   H     0.81240   0.85510   0.08660   0.00000  Uiso   1.00
H511   H     0.72195   0.86297   0.41292   0.00000  Uiso   1.00
H512   H     0.75430   0.85660   0.05596   0.00000  Uiso   1.00
H513   H     0.69931   0.87443   0.00731   0.00000  Uiso   1.00
H514   H     0.86762   0.77858   0.37555   0.00000  Uiso   1.00
C515   C     0.87603   0.97875   0.24959   0.00000  Uiso   1.00
H516   H     0.90939   0.96276   0.24933   0.00000  Uiso   1.00
C517   C     0.87604   0.68799   0.24951   0.00000  Uiso   1.00
H518   H     0.90941   0.70403   0.24917   0.00000  Uiso   1.00
C519   C     0.83336   0.70942   0.24988   0.00000  Uiso   1.00
C520   C     0.79070   0.68793   0.25024   0.00000  Uiso   1.00
H521   H     0.75735   0.70393   0.25051   0.00000  Uiso   1.00
C522   C     0.79070   0.97870   0.25031   0.00000  Uiso   1.00
H523   H     0.75733   0.96267   0.25064   0.00000  Uiso   1.00
C524   C     0.83336   0.95727   0.24999   0.00000  Uiso   1.00
C525   C     0.96639   0.86020   0.28082   0.00000  Uiso   1.00
H526   H     0.94064   0.88171   0.30553   0.00000  Uiso   1.00
C527   C     0.68265   0.86012   0.28091   0.00000  Uiso   1.00
H528   H     0.69428   0.88154   0.30569   0.00000  Uiso   1.00
N529   N     0.71598   0.83332   0.24999   0.00000  Uiso   1.00
C530   C     0.70026   0.80642   0.21929   0.00000  Uiso   1.00
H531   H     0.72597   0.78482   0.19469   0.00000  Uiso   1.00
C532   C     0.98396   0.80634   0.21949   0.00000  Uiso   1.00
H533   H     0.97229   0.78451   0.19538   0.00000  Uiso   1.00
N534   N     0.95069   0.83335   0.25000   0.00000  Uiso   1.00
N535   N     0.94856   0.78498   0.09583   0.00000  Uiso   1.00
O536   O     0.99418   0.79696   0.08253   0.00000  Uiso   1.00
O537   O     0.93434   0.75461   0.12840   0.00000  Uiso   1.00
N538   N     0.96902   0.76522   0.48898   0.00000  Uiso   1.00
O539   O     0.97851   0.73075   0.00848   0.00000  Uiso   1.00
O540   O     0.66705   0.77961   0.44670   0.00000  Uiso   1.00
O541   O     0.12708   0.22678   0.75001   0.00000  Uiso   1.00
O542   O     0.20627   0.22679   0.75001   0.00000  Uiso   1.00
C543   C     0.16668   0.24598   0.75003   0.00000  Uiso   1.00
O544   O     0.10775   0.16665   0.82549   0.00000  Uiso   1.00
O545   O     0.18694   0.16666   0.82549   0.00000  Uiso   1.00
C546   C     0.14032   0.16547   0.85018   0.00000  Uiso   1.00
Cu547  Cu    0.11978   0.16666   0.75000   0.00000  Uiso   1.00
Cu548  Cu    0.21355   0.16667   0.75000   0.00000  Uiso   1.00
O549   O     0.12706   0.10654   0.75000   0.00000  Uiso   1.00
O550   O     0.20625   0.10655   0.75000   0.00000  Uiso   1.00
O551   O     0.14640   0.16667   0.67451   0.00000  Uiso   1.00
O552   O     0.22559   0.16668   0.67451   0.00000  Uiso   1.00
C553   C     0.16667   0.08736   0.74994   0.00000  Uiso   1.00
C554   C     0.19301   0.16461   0.64994   0.00000  Uiso   1.00
C555   C     0.25883   0.12159   0.51520   0.00000  Uiso   1.00
H556   H     0.25912   0.09567   0.91955   0.00000  Uiso   1.00
C557   C     0.20799   0.15650   0.59336   0.00000  Uiso   1.00
C558   C     0.07992   0.18576   0.93394   0.00000  Uiso   1.00
C559   C     0.06734   0.19308   0.98730   0.00000  Uiso   1.00
C560   C     0.09994   0.18306   0.51476   0.00000  Uiso   1.00
C561   C     0.14558   0.16372   0.98947   0.00000  Uiso   1.00
C562   C     0.15550   0.15214   0.93633   0.00000  Uiso   1.00
C563   C     0.18124   0.15481   0.51533   0.00000  Uiso   1.00
C564   C     0.22377   0.13131   0.98943   0.00000  Uiso   1.00
C565   C     0.22918   0.11601   0.93925   0.00000  Uiso   1.00
C566   C     0.19564   0.12602   0.91337   0.00000  Uiso   1.00
C567   C     0.17570   0.16859   0.56628   0.00000  Uiso   1.00
C568   C     0.24994   0.13300   0.56781   0.00000  Uiso   1.00
C569   C     0.12439   0.16627   0.90770   0.00000  Uiso   1.00
H570   H     0.14573   0.18843   0.58660   0.00000  Uiso   1.00
H571   H     0.05529   0.19630   0.91292   0.00000  Uiso   1.00
H572   H     0.08763   0.18994   0.55596   0.00000  Uiso   1.00
H573   H     0.03264   0.20776   0.50731   0.00000  Uiso   1.00
H574   H     0.20095   0.11191   0.87555   0.00000  Uiso   1.00
C575   C     0.20937   0.31209   0.74959   0.00000  Uiso   1.00
H576   H     0.24272   0.29609   0.74933   0.00000  Uiso   1.00
C577   C     0.20937   0.02132   0.74951   0.00000  Uiso   1.00
H578   H     0.24274   0.03736   0.74917   0.00000  Uiso   1.00
C579   C     0.16670   0.04275   0.74988   0.00000  Uiso   1.00
C580   C     0.12404   0.02127   0.75024   0.00000  Uiso   1.00
H581   H     0.09068   0.03726   0.75051   0.00000  Uiso   1.00
C582   C     0.12403   0.31203   0.75031   0.00000  Uiso   1.00
H583   H     0.09066   0.29600   0.75064   0.00000  Uiso   1.00
C584   C     0.16669   0.29060   0.74999   0.00000  Uiso   1.00
C585   C     0.29972   0.19353   0.78082   0.00000  Uiso   1.00
H586   H     0.27397   0.21504   0.80553   0.00000  Uiso   1.00
C587   C     0.01598   0.19345   0.78091   0.00000  Uiso   1.00
H588   H     0.02761   0.21487   0.80569   0.00000  Uiso   1.00
N589   N     0.04931   0.16666   0.74999   0.00000  Uiso   1.00
C590   C     0.03359   0.13975   0.71929   0.00000  Uiso   1.00
H591   H     0.05930   0.11816   0.69469   0.00000  Uiso   1.00
C592   C     0.31730   0.13967   0.71949   0.00000  Uiso   1.00
H593   H     0.30562   0.11784   0.69538   0.00000  Uiso   1.00
N594   N     0.28402   0.16669   0.75000   0.00000  Uiso   1.00
N595   N     0.28189   0.11832   0.59583   0.00000  Uiso   1.00
O596   O     0.32751   0.13029   0.58253   0.00000  Uiso   1.00
O597   O     0.26768   0.08794   0.62840   0.00000  Uiso   1.00
N598   N     0.30235   0.09855   0.98898   0.00000  Uiso   1.00
O599   O     0.31184   0.06409   0.50848   0.00000  Uiso   1.00
O600   O     0.00038   0.11294   0.94670   0.00000  Uiso   1.00
O601   O     0.46042   0.22678   0.75001   0.00000  Uiso   1.00
O602   O     0.53961   0.22679   0.75001   0.00000  Uiso   1.00
C603   C     0.50001   0.24598   0.75003   0.00000  Uiso   1.00
O604   O     0.44108   0.16665   0.82549   0.00000  Uiso   1.00
O605   O     0.52027   0.16666   0.82549   0.00000  Uiso   1.00
C606   C     0.47365   0.16547   0.85018   0.00000  Uiso   1.00
Cu607  Cu    0.45311   0.16666   0.75000   0.00000  Uiso   1.00
Cu608  Cu    0.54689   0.16667   0.75000   0.00000  Uiso   1.00
O609   O     0.46039   0.10654   0.75000   0.00000  Uiso   1.00
O610   O     0.53958   0.10655   0.75000   0.00000  Uiso   1.00
O611   O     0.47973   0.16667   0.67451   0.00000  Uiso   1.00
O612   O     0.55892   0.16668   0.67451   0.00000  Uiso   1.00
C613   C     0.50000   0.08736   0.74994   0.00000  Uiso   1.00
C614   C     0.52634   0.16461   0.64994   0.00000  Uiso   1.00
C615   C     0.59216   0.12159   0.51520   0.00000  Uiso   1.00
H616   H     0.59245   0.09567   0.91955   0.00000  Uiso   1.00
C617   C     0.54132   0.15650   0.59336   0.00000  Uiso   1.00
C618   C     0.41325   0.18576   0.93394   0.00000  Uiso   1.00
C619   C     0.40067   0.19308   0.98730   0.00000  Uiso   1.00
C620   C     0.43327   0.18306   0.51476   0.00000  Uiso   1.00
C621   C     0.47891   0.16372   0.98947   0.00000  Uiso   1.00
C622   C     0.48884   0.15214   0.93633   0.00000  Uiso   1.00
C623   C     0.51457   0.15481   0.51533   0.00000  Uiso   1.00
C624   C     0.55711   0.13131   0.98943   0.00000  Uiso   1.00
C625   C     0.56251   0.11601   0.93925   0.00000  Uiso   1.00
C626   C     0.52897   0.12602   0.91337   0.00000  Uiso   1.00
C627   C     0.50903   0.16859   0.56628   0.00000  Uiso   1.00
C628   C     0.58327   0.13300   0.56781   0.00000  Uiso   1.00
C629   C     0.45772   0.16627   0.90770   0.00000  Uiso   1.00
H630   H     0.47907   0.18843   0.58660   0.00000  Uiso   1.00
H631   H     0.38862   0.19630   0.91292   0.00000  Uiso   1.00
H632   H     0.42096   0.18994   0.55596   0.00000  Uiso   1.00
H633   H     0.36597   0.20776   0.50731   0.00000  Uiso   1.00
H634   H     0.53429   0.11191   0.87555   0.00000  Uiso   1.00
C635   C     0.54270   0.31209   0.74959   0.00000  Uiso   1.00
H636   H     0.57606   0.29609   0.74933   0.00000  Uiso   1.00
C637   C     0.54271   0.02132   0.74951   0.00000  Uiso   1.00
H638   H     0.57608   0.03736   0.74917   0.00000  Uiso   1.00
C639   C     0.50003   0.04275   0.74988   0.00000  Uiso   1.00
C640   C     0.45737   0.02127   0.75024   0.00000  Uiso   1.00
H641   H     0.42401   0.03726   0.75051   0.00000  Uiso   1.00
C642   C     0.45736   0.31203   0.75031   0.00000  Uiso   1.00
H643   H     0.42399   0.29600   0.75064   0.00000  Uiso   1.00
C644   C     0.50002   0.29060   0.74999   0.00000  Uiso   1.00
C645   C     0.63305   0.19353   0.78082   0.00000  Uiso   1.00
H646   H     0.60731   0.21504   0.80553   0.00000  Uiso   1.00
C647   C     0.34932   0.19345   0.78091   0.00000  Uiso   1.00
H648   H     0.36095   0.21487   0.80569   0.00000  Uiso   1.00
N649   N     0.38265   0.16666   0.74999   0.00000  Uiso   1.00
C650   C     0.36693   0.13975   0.71929   0.00000  Uiso   1.00
H651   H     0.39263   0.11816   0.69469   0.00000  Uiso   1.00
C652   C     0.65063   0.13967   0.71949   0.00000  Uiso   1.00
H653   H     0.63896   0.11784   0.69538   0.00000  Uiso   1.00
N654   N     0.61735   0.16669   0.75000   0.00000  Uiso   1.00
N655   N     0.61523   0.11832   0.59583   0.00000  Uiso   1.00
O656   O     0.66085   0.13029   0.58253   0.00000  Uiso   1.00
O657   O     0.60101   0.08794   0.62840   0.00000  Uiso   1.00
N658   N     0.63569   0.09855   0.98898   0.00000  Uiso   1.00
O659   O     0.64518   0.06409   0.50848   0.00000  Uiso   1.00
O660   O     0.33372   0.11294   0.94670   0.00000  Uiso   1.00
O661   O     0.79375   0.22678   0.75001   0.00000  Uiso   1.00
O662   O     0.87294   0.22679   0.75001   0.00000  Uiso   1.00
C663   C     0.83335   0.24598   0.75003   0.00000  Uiso   1.00
O664   O     0.77441   0.16665   0.82549   0.00000  Uiso   1.00
O665   O     0.85360   0.16666   0.82549   0.00000  Uiso   1.00
C666   C     0.80698   0.16547   0.85018   0.00000  Uiso   1.00
Cu667  Cu    0.78645   0.16666   0.75000   0.00000  Uiso   1.00
Cu668  Cu    0.88022   0.16667   0.75000   0.00000  Uiso   1.00
O669   O     0.79373   0.10654   0.75000   0.00000  Uiso   1.00
O670   O     0.87292   0.10655   0.75000   0.00000  Uiso   1.00
O671   O     0.81306   0.16667   0.67451   0.00000  Uiso   1.00
O672   O     0.89225   0.16668   0.67451   0.00000  Uiso   1.00
C673   C     0.83334   0.08736   0.74994   0.00000  Uiso   1.00
C674   C     0.85968   0.16461   0.64994   0.00000  Uiso   1.00
C675   C     0.92550   0.12159   0.51520   0.00000  Uiso   1.00
H676   H     0.92578   0.09567   0.91955   0.00000  Uiso   1.00
C677   C     0.87465   0.15650   0.59336   0.00000  Uiso   1.00
C678   C     0.74658   0.18576   0.93394   0.00000  Uiso   1.00
C679   C     0.73401   0.19308   0.98730   0.00000  Uiso   1.00
C680   C     0.76661   0.18306   0.51476   0.00000  Uiso   1.00
C681   C     0.81224   0.16372   0.98947   0.00000  Uiso   1.00
C682   C     0.82217   0.15214   0.93633   0.00000  Uiso   1.00
C683   C     0.84791   0.15481   0.51533   0.00000  Uiso   1.00
C684   C     0.89044   0.13131   0.98943   0.00000  Uiso   1.00
C685   C     0.89585   0.11601   0.93925   0.00000  Uiso   1.00
C686   C     0.86230   0.12602   0.91337   0.00000  Uiso   1.00
C687   C     0.84237   0.16859   0.56628   0.00000  Uiso   1.00
C688   C     0.91661   0.13300   0.56781   0.00000  Uiso   1.00
C689   C     0.79105   0.16627   0.90770   0.00000  Uiso   1.00
H690   H     0.81240   0.18843   0.58660   0.00000  Uiso   1.00
H691   H     0.72195   0.19630   0.91292   0.00000  Uiso   1.00
H692   H     0.75430   0.18994   0.55596   0.00000  Uiso   1.00
H693   H     0.69931   0.20776   0.50731   0.00000  Uiso   1.00
H694   H     0.86762   0.11191   0.87555   0.00000  Uiso   1.00
C695   C     0.87603   0.31209   0.74959   0.00000  Uiso   1.00
H696   H     0.90939   0.29609   0.74933   0.00000  Uiso   1.00
C697   C     0.87604   0.02132   0.74951   0.00000  Uiso   1.00
H698   H     0.90941   0.03736   0.74917   0.00000  Uiso   1.00
C699   C     0.83336   0.04275   0.74988   0.00000  Uiso   1.00
C700   C     0.79070   0.02127   0.75024   0.00000  Uiso   1.00
H701   H     0.75735   0.03726   0.75051   0.00000  Uiso   1.00
C702   C     0.79070   0.31203   0.75031   0.00000  Uiso   1.00
H703   H     0.75733   0.29600   0.75064   0.00000  Uiso   1.00
C704   C     0.83336   0.29060   0.74999   0.00000  Uiso   1.00
C705   C     0.96639   0.19353   0.78082   0.00000  Uiso   1.00
H706   H     0.94064   0.21504   0.80553   0.00000  Uiso   1.00
C707   C     0.68265   0.19345   0.78091   0.00000  Uiso   1.00
H708   H     0.69428   0.21487   0.80569   0.00000  Uiso   1.00
N709   N     0.71598   0.16666   0.74999   0.00000  Uiso   1.00
C710   C     0.70026   0.13975   0.71929   0.00000  Uiso   1.00
H711   H     0.72597   0.11816   0.69469   0.00000  Uiso   1.00
C712   C     0.98396   0.13967   0.71949   0.00000  Uiso   1.00
H713   H     0.97229   0.11784   0.69538   0.00000  Uiso   1.00
N714   N     0.95069   0.16669   0.75000   0.00000  Uiso   1.00
N715   N     0.94856   0.11832   0.59583   0.00000  Uiso   1.00
O716   O     0.99418   0.13029   0.58253   0.00000  Uiso   1.00
O717   O     0.93434   0.08794   0.62840   0.00000  Uiso   1.00
N718   N     0.96902   0.09855   0.98898   0.00000  Uiso   1.00
O719   O     0.97851   0.06409   0.50848   0.00000  Uiso   1.00
O720   O     0.66705   0.11294   0.94670   0.00000  Uiso   1.00
O721   O     0.12708   0.56011   0.75001   0.00000  Uiso   1.00
O722   O     0.20627   0.56012   0.75001   0.00000  Uiso   1.00
C723   C     0.16668   0.57931   0.75003   0.00000  Uiso   1.00
O724   O     0.10775   0.49998   0.82549   0.00000  Uiso   1.00
O725   O     0.18694   0.49999   0.82549   0.00000  Uiso   1.00
C726   C     0.14032   0.49880   0.85018   0.00000  Uiso   1.00
Cu727  Cu    0.11978   0.49999   0.75000   0.00000  Uiso   1.00
Cu728  Cu    0.21355   0.50001   0.75000   0.00000  Uiso   1.00
O729   O     0.12706   0.43988   0.75000   0.00000  Uiso   1.00
O730   O     0.20625   0.43989   0.75000   0.00000  Uiso   1.00
O731   O     0.14640   0.50001   0.67451   0.00000  Uiso   1.00
O732   O     0.22559   0.50002   0.67451   0.00000  Uiso   1.00
C733   C     0.16667   0.42069   0.74994   0.00000  Uiso   1.00
C734   C     0.19301   0.49794   0.64994   0.00000  Uiso   1.00
C735   C     0.25883   0.45493   0.51520   0.00000  Uiso   1.00
H736   H     0.25912   0.42901   0.91955   0.00000  Uiso   1.00
C737   C     0.20799   0.48983   0.59336   0.00000  Uiso   1.00
C738   C     0.07992   0.51909   0.93394   0.00000  Uiso   1.00
C739   C     0.06734   0.52641   0.98730   0.00000  Uiso   1.00
C740   C     0.09994   0.51639   0.51476   0.00000  Uiso   1.00
C741   C     0.14558   0.49705   0.98947   0.00000  Uiso   1.00
C742   C     0.15550   0.48547   0.93633   0.00000  Uiso   1.00
C743   C     0.18124   0.48814   0.51533   0.00000  Uiso   1.00
C744   C     0.22377   0.46464   0.98943   0.00000  Uiso   1.00
C745   C     0.22918   0.44935   0.93925   0.00000  Uiso   1.00
C746   C     0.19564   0.45935   0.91337   0.00000  Uiso   1.00
C747   C     0.17570   0.50192   0.56628   0.00000  Uiso   1.00
C748   C     0.24994   0.46634   0.56781   0.00000  Uiso   1.00
C749   C     0.12439   0.49960   0.90770   0.00000  Uiso   1.00
H750   H     0.14573   0.52176   0.58660   0.00000  Uiso   1.00
H751   H     0.05529   0.52963   0.91292   0.00000  Uiso   1.00
H752   H     0.08763   0.52327   0.55596   0.00000  Uiso   1.00
H753   H     0.03264   0.54110   0.50731   0.00000  Uiso   1.00
H754   H     0.20095   0.44524   0.87555   0.00000  Uiso   1.00
C755   C     0.20937   0.64542   0.74959   0.00000  Uiso   1.00
H756   H     0.24272   0.62943   0.74933   0.00000  Uiso   1.00
C757   C     0.20937   0.35466   0.74951   0.00000  Uiso   1.00
H758   H     0.24274   0.37069   0.74917   0.00000  Uiso   1.00
C759   C     0.16670   0.37608   0.74988   0.00000  Uiso   1.00
C760   C     0.12404   0.35460   0.75024   0.00000  Uiso   1.00
H761   H     0.09068   0.37059   0.75051   0.00000  Uiso   1.00
C762   C     0.12403   0.64537   0.75031   0.00000  Uiso   1.00
H763   H     0.09066   0.62934   0.75064   0.00000  Uiso   1.00
C764   C     0.16669   0.62393   0.74999   0.00000  Uiso   1.00
C765   C     0.29972   0.52686   0.78082   0.00000  Uiso   1.00
H766   H     0.27397   0.54837   0.80553   0.00000  Uiso   1.00
C767   C     0.01598   0.52678   0.78091   0.00000  Uiso   1.00
H768   H     0.02761   0.54821   0.80569   0.00000  Uiso   1.00
N769   N     0.04931   0.49999   0.74999   0.00000  Uiso   1.00
C770   C     0.03359   0.47308   0.71929   0.00000  Uiso   1.00
H771   H     0.05930   0.45149   0.69469   0.00000  Uiso   1.00
C772   C     0.31730   0.47300   0.71949   0.00000  Uiso   1.00
H773   H     0.30562   0.45118   0.69538   0.00000  Uiso   1.00
N774   N     0.28402   0.50002   0.75000   0.00000  Uiso   1.00
N775   N     0.28189   0.45165   0.59583   0.00000  Uiso   1.00
O776   O     0.32751   0.46362   0.58253   0.00000  Uiso   1.00
O777   O     0.26768   0.42128   0.62840   0.00000  Uiso   1.00
N778   N     0.30235   0.43189   0.98898   0.00000  Uiso   1.00
O779   O     0.31184   0.39742   0.50848   0.00000  Uiso   1.00
O780   O     0.00038   0.44628   0.94670   0.00000  Uiso   1.00
O781   O     0.46042   0.56011   0.75001   0.00000  Uiso   1.00
O782   O     0.53961   0.56012   0.75001   0.00000  Uiso   1.00
C783   C     0.50001   0.57931   0.75003   0.00000  Uiso   1.00
O784   O     0.44108   0.49998   0.82549   0.00000  Uiso   1.00
O785   O     0.52027   0.49999   0.82549   0.00000  Uiso   1.00
C786   C     0.47365   0.49880   0.85018   0.00000  Uiso   1.00
Cu787  Cu    0.45311   0.49999   0.75000   0.00000  Uiso   1.00
Cu788  Cu    0.54689   0.50001   0.75000   0.00000  Uiso   1.00
O789   O     0.46039   0.43988   0.75000   0.00000  Uiso   1.00
O790   O     0.53958   0.43989   0.75000   0.00000  Uiso   1.00
O791   O     0.47973   0.50001   0.67451   0.00000  Uiso   1.00
O792   O     0.55892   0.50002   0.67451   0.00000  Uiso   1.00
C793   C     0.50000   0.42069   0.74994   0.00000  Uiso   1.00
C794   C     0.52634   0.49794   0.64994   0.00000  Uiso   1.00
C795   C     0.59216   0.45493   0.51520   0.00000  Uiso   1.00
H796   H     0.59245   0.42901   0.91955   0.00000  Uiso   1.00
C797   C     0.54132   0.48983   0.59336   0.00000  Uiso   1.00
C798   C     0.41325   0.51909   0.93394   0.00000  Uiso   1.00
C799   C     0.40067   0.52641   0.98730   0.00000  Uiso   1.00
C800   C     0.43327   0.51639   0.51476   0.00000  Uiso   1.00
C801   C     0.47891   0.49705   0.98947   0.00000  Uiso   1.00
C802   C     0.48884   0.48547   0.93633   0.00000  Uiso   1.00
C803   C     0.51457   0.48814   0.51533   0.00000  Uiso   1.00
C804   C     0.55711   0.46464   0.98943   0.00000  Uiso   1.00
C805   C     0.56251   0.44935   0.93925   0.00000  Uiso   1.00
C806   C     0.52897   0.45935   0.91337   0.00000  Uiso   1.00
C807   C     0.50903   0.50192   0.56628   0.00000  Uiso   1.00
C808   C     0.58327   0.46634   0.56781   0.00000  Uiso   1.00
C809   C     0.45772   0.49960   0.90770   0.00000  Uiso   1.00
H810   H     0.47907   0.52176   0.58660   0.00000  Uiso   1.00
H811   H     0.38862   0.52963   0.91292   0.00000  Uiso   1.00
H812   H     0.42096   0.52327   0.55596   0.00000  Uiso   1.00
H813   H     0.36597   0.54110   0.50731   0.00000  Uiso   1.00
H814   H     0.53429   0.44524   0.87555   0.00000  Uiso   1.00
C815   C     0.54270   0.64542   0.74959   0.00000  Uiso   1.00
H816   H     0.57606   0.62943   0.74933   0.00000  Uiso   1.00
C817   C     0.54271   0.35466   0.74951   0.00000  Uiso   1.00
H818   H     0.57608   0.37069   0.74917   0.00000  Uiso   1.00
C819   C     0.50003   0.37608   0.74988   0.00000  Uiso   1.00
C820   C     0.45737   0.35460   0.75024   0.00000  Uiso   1.00
H821   H     0.42401   0.37059   0.75051   0.00000  Uiso   1.00
C822   C     0.45736   0.64537   0.75031   0.00000  Uiso   1.00
H823   H     0.42399   0.62934   0.75064   0.00000  Uiso   1.00
C824   C     0.50002   0.62393   0.74999   0.00000  Uiso   1.00
C825   C     0.63305   0.52686   0.78082   0.00000  Uiso   1.00
H826   H     0.60731   0.54837   0.80553   0.00000  Uiso   1.00
C827   C     0.34932   0.52678   0.78091   0.00000  Uiso   1.00
H828   H     0.36095   0.54821   0.80569   0.00000  Uiso   1.00
N829   N     0.38265   0.49999   0.74999   0.00000  Uiso   1.00
C830   C     0.36693   0.47308   0.71929   0.00000  Uiso   1.00
H831   H     0.39263   0.45149   0.69469   0.00000  Uiso   1.00
C832   C     0.65063   0.47300   0.71949   0.00000  Uiso   1.00
H833   H     0.63896   0.45118   0.69538   0.00000  Uiso   1.00
N834   N     0.61735   0.50002   0.75000   0.00000  Uiso   1.00
N835   N     0.61523   0.45165   0.59583   0.00000  Uiso   1.00
O836   O     0.66085   0.46362   0.58253   0.00000  Uiso   1.00
O837   O     0.60101   0.42128   0.62840   0.00000  Uiso   1.00
N838   N     0.63569   0.43189   0.98898   0.00000  Uiso   1.00
O839   O     0.64518   0.39742   0.50848   0.00000  Uiso   1.00
O840   O     0.33372   0.44628   0.94670   0.00000  Uiso   1.00
O841   O     0.79375   0.56011   0.75001   0.00000  Uiso   1.00
O842   O     0.87294   0.56012   0.75001   0.00000  Uiso   1.00
C843   C     0.83335   0.57931   0.75003   0.00000  Uiso   1.00
O844   O     0.77441   0.49998   0.82549   0.00000  Uiso   1.00
O845   O     0.85360   0.49999   0.82549   0.00000  Uiso   1.00
C846   C     0.80698   0.49880   0.85018   0.00000  Uiso   1.00
Cu847  Cu    0.78645   0.49999   0.75000   0.00000  Uiso   1.00
Cu848  Cu    0.88022   0.50001   0.75000   0.00000  Uiso   1.00
O849   O     0.79373   0.43988   0.75000   0.00000  Uiso   1.00
O850   O     0.87292   0.43989   0.75000   0.00000  Uiso   1.00
O851   O     0.81306   0.50001   0.67451   0.00000  Uiso   1.00
O852   O     0.89225   0.50002   0.67451   0.00000  Uiso   1.00
C853   C     0.83334   0.42069   0.74994   0.00000  Uiso   1.00
C854   C     0.85968   0.49794   0.64994   0.00000  Uiso   1.00
C855   C     0.92550   0.45493   0.51520   0.00000  Uiso   1.00
H856   H     0.92578   0.42901   0.91955   0.00000  Uiso   1.00
C857   C     0.87465   0.48983   0.59336   0.00000  Uiso   1.00
C858   C     0.74658   0.51909   0.93394   0.00000  Uiso   1.00
C859   C     0.73401   0.52641   0.98730   0.00000  Uiso   1.00
C860   C     0.76661   0.51639   0.51476   0.00000  Uiso   1.00
C861   C     0.81224   0.49705   0.98947   0.00000  Uiso   1.00
C862   C     0.82217   0.48547   0.93633   0.00000  Uiso   1.00
C863   C     0.84791   0.48814   0.51533   0.00000  Uiso   1.00
C864   C     0.89044   0.46464   0.98943   0.00000  Uiso   1.00
C865   C     0.89585   0.44935   0.93925   0.00000  Uiso   1.00
C866   C     0.86230   0.45935   0.91337   0.00000  Uiso   1.00
C867   C     0.84237   0.50192   0.56628   0.00000  Uiso   1.00
C868   C     0.91661   0.46634   0.56781   0.00000  Uiso   1.00
C869   C     0.79105   0.49960   0.90770   0.00000  Uiso   1.00
H870   H     0.81240   0.52176   0.58660   0.00000  Uiso   1.00
H871   H     0.72195   0.52963   0.91292   0.00000  Uiso   1.00
H872   H     0.75430   0.52327   0.55596   0.00000  Uiso   1.00
H873   H     0.69931   0.54110   0.50731   0.00000  Uiso   1.00
H874   H     0.86762   0.44524   0.87555   0.00000  Uiso   1.00
C875   C     0.87603   0.64542   0.74959   0.00000  Uiso   1.00
H876   H     0.90939   0.62943   0.74933   0.00000  Uiso   1.00
C877   C     0.87604   0.35466   0.74951   0.00000  Uiso   1.00
H878   H     0.90941   0.37069   0.74917   0.00000  Uiso   1.00
C879   C     0.83336   0.37608   0.74988   0.00000  Uiso   1.00
C880   C     0.79070   0.35460   0.75024   0.00000  Uiso   1.00
H881   H     0.75735   0.37059   0.75051   0.00000  Uiso   1.00
C882   C     0.79070   0.64537   0.75031   0.00000  Uiso   1.00
H883   H     0.75733   0.62934   0.75064   0.00000  Uiso   1.00
C884   C     0.83336   0.62393   0.74999   0.00000  Uiso   1.00
C885   C     0.96639   0.52686   0.78082   0.00000  Uiso   1.00
H886   H     0.94064   0.54837   0.80553   0.00000  Uiso   1.00
C887   C     0.68265   0.52678   0.78091   0.00000  Uiso   1.00
H888   H     0.69428   0.54821   0.80569   0.00000  Uiso   1.00
N889   N     0.71598   0.49999   0.74999   0.00000  Uiso   1.00
C890   C     0.70026   0.47308   0.71929   0.00000  Uiso   1.00
H891   H     0.72597   0.45149   0.69469   0.00000  Uiso   1.00
C892   C     0.98396   0.47300   0.71949   0.00000  Uiso   1.00
H893   H     0.97229   0.45118   0.69538   0.00000  Uiso   1.00
N894   N     0.95069   0.50002   0.75000   0.00000  Uiso   1.00
N895   N     0.94856   0.45165   0.59583   0.00000  Uiso   1.00
O896   O     0.99418   0.46362   0.58253   0.00000  Uiso   1.00
O897   O     0.93434   0.42128   0.62840   0.00000  Uiso   1.00
N898   N     0.96902   0.43189   0.98898   0.00000  Uiso   1.00
O899   O     0.97851   0.39742   0.50848   0.00000  Uiso   1.00
O900   O     0.66705   0.44628   0.94670   0.00000  Uiso   1.00
O901   O     0.12708   0.89345   0.75001   0.00000  Uiso   1.00
O902   O     0.20627   0.89346   0.75001   0.00000  Uiso   1.00
C903   C     0.16668   0.91265   0.75003   0.00000  Uiso   1.00
O904   O     0.10775   0.83332   0.82549   0.00000  Uiso   1.00
O905   O     0.18694   0.83333   0.82549   0.00000  Uiso   1.00
C906   C     0.14032   0.83214   0.85018   0.00000  Uiso   1.00
Cu907  Cu    0.11978   0.83333   0.75000   0.00000  Uiso   1.00
Cu908  Cu    0.21355   0.83334   0.75000   0.00000  Uiso   1.00
O909   O     0.12706   0.77321   0.75000   0.00000  Uiso   1.00
O910   O     0.20625   0.77322   0.75000   0.00000  Uiso   1.00
O911   O     0.14640   0.83334   0.67451   0.00000  Uiso   1.00
O912   O     0.22559   0.83335   0.67451   0.00000  Uiso   1.00
C913   C     0.16667   0.75402   0.74994   0.00000  Uiso   1.00
C914   C     0.19301   0.83128   0.64994   0.00000  Uiso   1.00
C915   C     0.25883   0.78826   0.51520   0.00000  Uiso   1.00
H916   H     0.25912   0.76234   0.91955   0.00000  Uiso   1.00
C917   C     0.20799   0.82317   0.59336   0.00000  Uiso   1.00
C918   C     0.07992   0.85243   0.93394   0.00000  Uiso   1.00
C919   C     0.06734   0.85975   0.98730   0.00000  Uiso   1.00
C920   C     0.09994   0.84972   0.51476   0.00000  Uiso   1.00
C921   C     0.14558   0.83039   0.98947   0.00000  Uiso   1.00
C922   C     0.15550   0.81881   0.93633   0.00000  Uiso   1.00
C923   C     0.18124   0.82147   0.51533   0.00000  Uiso   1.00
C924   C     0.22377   0.79797   0.98943   0.00000  Uiso   1.00
C925   C     0.22918   0.78268   0.93925   0.00000  Uiso   1.00
C926   C     0.19564   0.79269   0.91337   0.00000  Uiso   1.00
C927   C     0.17570   0.83526   0.56628   0.00000  Uiso   1.00
C928   C     0.24994   0.79967   0.56781   0.00000  Uiso   1.00
C929   C     0.12439   0.83293   0.90770   0.00000  Uiso   1.00
H930   H     0.14573   0.85510   0.58660   0.00000  Uiso   1.00
H931   H     0.05529   0.86297   0.91292   0.00000  Uiso   1.00
H932   H     0.08763   0.85660   0.55596   0.00000  Uiso   1.00
H933   H     0.03264   0.87443   0.50731   0.00000  Uiso   1.00
H934   H     0.20095   0.77858   0.87555   0.00000  Uiso   1.00
C935   C     0.20937   0.97875   0.74959   0.00000  Uiso   1.00
H936   H     0.24272   0.96276   0.74933   0.00000  Uiso   1.00
C937   C     0.20937   0.68799   0.74951   0.00000  Uiso   1.00
H938   H     0.24274   0.70403   0.74917   0.00000  Uiso   1.00
C939   C     0.16670   0.70942   0.74988   0.00000  Uiso   1.00
C940   C     0.12404   0.68793   0.75024   0.00000  Uiso   1.00
H941   H     0.09068   0.70393   0.75051   0.00000  Uiso   1.00
C942   C     0.12403   0.97870   0.75031   0.00000  Uiso   1.00
H943   H     0.09066   0.96267   0.75064   0.00000  Uiso   1.00
C944   C     0.16669   0.95727   0.74999   0.00000  Uiso   1.00
C945   C     0.29972   0.86020   0.78082   0.00000  Uiso   1.00
H946   H     0.27397   0.88171   0.80553   0.00000  Uiso   1.00
C947   C     0.01598   0.86012   0.78091   0.00000  Uiso   1.00
H948   H     0.02761   0.88154   0.80569   0.00000  Uiso   1.00
N949   N     0.04931   0.83332   0.74999   0.00000  Uiso   1.00
C950   C     0.03359   0.80642   0.71929   0.00000  Uiso   1.00
H951   H     0.05930   0.78482   0.69469   0.00000  Uiso   1.00
C952   C     0.31730   0.80634   0.71949   0.00000  Uiso   1.00
H953   H     0.30562   0.78451   0.69538   0.00000  Uiso   1.00
N954   N     0.28402   0.83335   0.75000   0.00000  Uiso   1.00
N955   N     0.28189   0.78498   0.59583   0.00000  Uiso   1.00
O956   O     0.32751   0.79696   0.58253   0.00000  Uiso   1.00
O957   O     0.26768   0.75461   0.62840   0.00000  Uiso   1.00
N958   N     0.30235   0.76522   0.98898   0.00000  Uiso   1.00
O959   O     0.31184   0.73075   0.50848   0.00000  Uiso   1.00
O960   O     0.00038   0.77961   0.94670   0.00000  Uiso   1.00
O961   O     0.46042   0.89345   0.75001   0.00000  Uiso   1.00
O962   O     0.53961   0.89346   0.75001   0.00000  Uiso   1.00
C963   C     0.50001   0.91265   0.75003   0.00000  Uiso   1.00
O964   O     0.44108   0.83332   0.82549   0.00000  Uiso   1.00
O965   O     0.52027   0.83333   0.82549   0.00000  Uiso   1.00
C966   C     0.47365   0.83214   0.85018   0.00000  Uiso   1.00
Cu967  Cu    0.45311   0.83333   0.75000   0.00000  Uiso   1.00
Cu968  Cu    0.54689   0.83334   0.75000   0.00000  Uiso   1.00
O969   O     0.46039   0.77321   0.75000   0.00000  Uiso   1.00
O970   O     0.53958   0.77322   0.75000   0.00000  Uiso   1.00
O971   O     0.47973   0.83334   0.67451   0.00000  Uiso   1.00
O972   O     0.55892   0.83335   0.67451   0.00000  Uiso   1.00
C973   C     0.50000   0.75402   0.74994   0.00000  Uiso   1.00
C974   C     0.52634   0.83128   0.64994   0.00000  Uiso   1.00
C975   C     0.59216   0.78826   0.51520   0.00000  Uiso   1.00
H976   H     0.59245   0.76234   0.91955   0.00000  Uiso   1.00
C977   C     0.54132   0.82317   0.59336   0.00000  Uiso   1.00
C978   C     0.41325   0.85243   0.93394   0.00000  Uiso   1.00
C979   C     0.40067   0.85975   0.98730   0.00000  Uiso   1.00
C980   C     0.43327   0.84972   0.51476   0.00000  Uiso   1.00
C981   C     0.47891   0.83039   0.98947   0.00000  Uiso   1.00
C982   C     0.48884   0.81881   0.93633   0.00000  Uiso   1.00
C983   C     0.51457   0.82147   0.51533   0.00000  Uiso   1.00
C984   C     0.55711   0.79797   0.98943   0.00000  Uiso   1.00
C985   C     0.56251   0.78268   0.93925   0.00000  Uiso   1.00
C986   C     0.52897   0.79269   0.91337   0.00000  Uiso   1.00
C987   C     0.50903   0.83526   0.56628   0.00000  Uiso   1.00
C988   C     0.58327   0.79967   0.56781   0.00000  Uiso   1.00
C989   C     0.45772   0.83293   0.90770   0.00000  Uiso   1.00
H990   H     0.47907   0.85510   0.58660   0.00000  Uiso   1.00
H991   H     0.38862   0.86297   0.91292   0.00000  Uiso   1.00
H992   H     0.42096   0.85660   0.55596   0.00000  Uiso   1.00
H993   H     0.36597   0.87443   0.50731   0.00000  Uiso   1.00
H994   H     0.53429   0.77858   0.87555   0.00000  Uiso   1.00
C995   C     0.54270   0.97875   0.74959   0.00000  Uiso   1.00
H996   H     0.57606   0.96276   0.74933   0.00000  Uiso   1.00
C997   C     0.54271   0.68799   0.74951   0.00000  Uiso   1.00
H998   H     0.57608   0.70403   0.74917   0.00000  Uiso   1.00
C999   C     0.50003   0.70942   0.74988   0.00000  Uiso   1.00
C1000  C     0.45737   0.68793   0.75024   0.00000  Uiso   1.00
H1001  H     0.42401   0.70393   0.75051   0.00000  Uiso   1.00
C1002  C     0.45736   0.97870   0.75031   0.00000  Uiso   1.00
H1003  H     0.42399   0.96267   0.75064   0.00000  Uiso   1.00
C1004  C     0.50002   0.95727   0.74999   0.00000  Uiso   1.00
C1005  C     0.63305   0.86020   0.78082   0.00000  Uiso   1.00
H1006  H     0.60731   0.88171   0.80553   0.00000  Uiso   1.00
C1007  C     0.34932   0.86012   0.78091   0.00000  Uiso   1.00
H1008  H     0.36095   0.88154   0.80569   0.00000  Uiso   1.00
N1009  N     0.38265   0.83332   0.74999   0.00000  Uiso   1.00
C1010  C     0.36693   0.80642   0.71929   0.00000  Uiso   1.00
H1011  H     0.39263   0.78482   0.69469   0.00000  Uiso   1.00
C1012  C     0.65063   0.80634   0.71949   0.00000  Uiso   1.00
H1013  H     0.63896   0.78451   0.69538   0.00000  Uiso   1.00
N1014  N     0.61735   0.83335   0.75000   0.00000  Uiso   1.00
N1015  N     0.61523   0.78498   0.59583   0.00000  Uiso   1.00
O1016  O     0.66085   0.79696   0.58253   0.00000  Uiso   1.00
O1017  O     0.60101   0.75461   0.62840   0.00000  Uiso   1.00
N1018  N     0.63569   0.76522   0.98898   0.00000  Uiso   1.00
O1019  O     0.64518   0.73075   0.50848   0.00000  Uiso   1.00
O1020  O     0.33372   0.77961   0.94670   0.00000  Uiso   1.00
O1021  O     0.79375   0.89345   0.75001   0.00000  Uiso   1.00
O1022  O     0.87294   0.89346   0.75001   0.00000  Uiso   1.00
C1023  C     0.83335   0.91265   0.75003   0.00000  Uiso   1.00
O1024  O     0.77441   0.83332   0.82549   0.00000  Uiso   1.00
O1025  O     0.85360   0.83333   0.82549   0.00000  Uiso   1.00
C1026  C     0.80698   0.83214   0.85018   0.00000  Uiso   1.00
Cu1027 Cu    0.78645   0.83333   0.75000   0.00000  Uiso   1.00
Cu1028 Cu    0.88022   0.83334   0.75000   0.00000  Uiso   1.00
O1029  O     0.79373   0.77321   0.75000   0.00000  Uiso   1.00
O1030  O     0.87292   0.77322   0.75000   0.00000  Uiso   1.00
O1031  O     0.81306   0.83334   0.67451   0.00000  Uiso   1.00
O1032  O     0.89225   0.83335   0.67451   0.00000  Uiso   1.00
C1033  C     0.83334   0.75402   0.74994   0.00000  Uiso   1.00
C1034  C     0.85968   0.83128   0.64994   0.00000  Uiso   1.00
C1035  C     0.92550   0.78826   0.51520   0.00000  Uiso   1.00
H1036  H     0.92578   0.76234   0.91955   0.00000  Uiso   1.00
C1037  C     0.87465   0.82317   0.59336   0.00000  Uiso   1.00
C1038  C     0.74658   0.85243   0.93394   0.00000  Uiso   1.00
C1039  C     0.73401   0.85975   0.98730   0.00000  Uiso   1.00
C1040  C     0.76661   0.84972   0.51476   0.00000  Uiso   1.00
C1041  C     0.81224   0.83039   0.98947   0.00000  Uiso   1.00
C1042  C     0.82217   0.81881   0.93633   0.00000  Uiso   1.00
C1043  C     0.84791   0.82147   0.51533   0.00000  Uiso   1.00
C1044  C     0.89044   0.79797   0.98943   0.00000  Uiso   1.00
C1045  C     0.89585   0.78268   0.93925   0.00000  Uiso   1.00
C1046  C     0.86230   0.79269   0.91337   0.00000  Uiso   1.00
C1047  C     0.84237   0.83526   0.56628   0.00000  Uiso   1.00
C1048  C     0.91661   0.79967   0.56781   0.00000  Uiso   1.00
C1049  C     0.79105   0.83293   0.90770   0.00000  Uiso   1.00
H1050  H     0.81240   0.85510   0.58660   0.00000  Uiso   1.00
H1051  H     0.72195   0.86297   0.91292   0.00000  Uiso   1.00
H1052  H     0.75430   0.85660   0.55596   0.00000  Uiso   1.00
H1053  H     0.69931   0.87443   0.50731   0.00000  Uiso   1.00
H1054  H     0.86762   0.77858   0.87555   0.00000  Uiso   1.00
C1055  C     0.87603   0.97875   0.74959   0.00000  Uiso   1.00
H1056  H     0.90939   0.96276   0.74933   0.00000  Uiso   1.00
C1057  C     0.87604   0.68799   0.74951   0.00000  Uiso   1.00
H1058  H     0.90941   0.70403   0.74917   0.00000  Uiso   1.00
C1059  C     0.83336   0.70942   0.74988   0.00000  Uiso   1.00
C1060  C     0.79070   0.68793   0.75024   0.00000  Uiso   1.00
H1061  H     0.75735   0.70393   0.75051   0.00000  Uiso   1.00
C1062  C     0.79070   0.97870   0.75031   0.00000  Uiso   1.00
H1063  H     0.75733   0.96267   0.75064   0.00000  Uiso   1.00
C1064  C     0.83336   0.95727   0.74999   0.00000  Uiso   1.00
C1065  C     0.96639   0.86020   0.78082   0.00000  Uiso   1.00
H1066  H     0.94064   0.88171   0.80553   0.00000  Uiso   1.00
C1067  C     0.68265   0.86012   0.78091   0.00000  Uiso   1.00
H1068  H     0.69428   0.88154   0.80569   0.00000  Uiso   1.00
N1069  N     0.71598   0.83332   0.74999   0.00000  Uiso   1.00
C1070  C     0.70026   0.80642   0.71929   0.00000  Uiso   1.00
H1071  H     0.72597   0.78482   0.69469   0.00000  Uiso   1.00
C1072  C     0.98396   0.80634   0.71949   0.00000  Uiso   1.00
H1073  H     0.97229   0.78451   0.69538   0.00000  Uiso   1.00
N1074  N     0.95069   0.83335   0.75000   0.00000  Uiso   1.00
N1075  N     0.94856   0.78498   0.59583   0.00000  Uiso   1.00
O1076  O     0.99418   0.79696   0.58253   0.00000  Uiso   1.00
O1077  O     0.93434   0.75461   0.62840   0.00000  Uiso   1.00
N1078  N     0.96902   0.76522   0.98898   0.00000  Uiso   1.00
O1079  O     0.97851   0.73075   0.50848   0.00000  Uiso   1.00
O1080  O     0.66705   0.77961   0.94670   0.00000  Uiso   1.00
loop_
_geom_bond_atom_site_label_1
_geom_bond_atom_site_label_2
_geom_bond_distance
_geom_bond_site_symmetry_2
_ccdc_geom_bond_type
O1     Cu7     1.965   .     S
O1     C3      1.291   .     A
O2     C3      1.291   .     A
O2     Cu8     1.965   .     S
C3     C44     1.450   .     S
O4     Cu7     1.951   .     S
O4     C6      1.297   .     A
O5     Cu8     1.937   .     S
O5     C6      1.294   .     A
C6     C29     1.472   .     S
Cu7    Cu8     2.677   .     S
Cu7    O11     1.937   .     S
Cu7    N49     2.012   .     S
Cu7    O9      1.965   .     S
Cu8    O12     1.951   .     S
Cu8    N54     2.012   .     S
Cu8    O10     1.965   .     S
O9     C13     1.291   .     A
O10    C13     1.291   .     A
O11    C14     1.294   .     A
O12    C14     1.296   .     A
C13    C39     1.450   .     S
C14    C17     1.471   .     S
C15    C28     1.406   .     A
C15    C564    1.416   1_554 S
C15    N598    1.437   1_554 S
H16    C25     1.082   .     S
C17    C27     1.394   .     A
C17    C28     1.409   .     A
C18    C29     1.401   .     A
C18    C19     1.387   .     A
C18    H31     1.083   .     S
C19    C560    1.392   .     S
C19    H573    1.083   .     S
C20    H32     1.077   .     S
C20    C559    1.392   1_554 S
C20    C561    1.419   1_554 S
C21    C22     1.418   .     A
C21    C560    1.419   .     S
C21    C563    1.427   .     S
C22    C29     1.418   .     A
C22    C26     1.408   .     A
C23    C27     1.401   .     A
C23    C561    1.427   1_554 S
C23    C564    1.423   1_554 S
C24    C25     1.399   .     A
C24    C555    1.416   .     S
C24    C563    1.423   .     S
C25    C26     1.383   .     A
C26    H34     1.081   .     S
C27    H30     1.077   .     S
C28    N55     1.431   .     S
H33    C559    1.083   1_554 S
C35    C44     1.401   .     A
C35    H36     1.083   .     S
C35    C217    1.384   .     S
C37    H38     1.083   .     S
C37    C39     1.401   .     A
C37    C395    1.384   1_545 S
C39    C40     1.401   .     A
C40    H41     1.083   .     S
C40    C402    1.383   1_545 S
C42    C44     1.401   .     A
C42    H43     1.083   .     S
C42    C220    1.383   .     S
C45    N54     1.367   .     A
C45    H46     1.082   .     S
C45    C107    1.417   .     S
C47    N49     1.367   .     A
C47    H48     1.082   .     S
C47    C165    1.417   1_455 S
N49    C50     1.366   .     A
C50    H51     1.082   .     S
C50    C172    1.415   1_455 S
C52    N54     1.366   .     A
C52    H53     1.078   .     S
C52    C110    1.415   .     S
N55    O56     1.301   .     A
N55    O57     1.301   .     A
N58    C555    1.437   .     S
N58    O599    1.301   .     S
N58    O120    1.301   .     S
O59    N598    1.301   1_554 S
O60    N178    1.301   1_455 S
O61    Cu67    1.965   .     S
O61    C63     1.291   .     A
O62    C63     1.291   .     A
O62    Cu68    1.965   .     S
C63    C104    1.450   .     S
O64    Cu67    1.951   .     S
O64    C66     1.297   .     A
O65    Cu68    1.937   .     S
O65    C66     1.294   .     A
C66    C89     1.472   .     S
Cu67   Cu68    2.677   .     S
Cu67   O71     1.937   .     S
Cu67   N109    2.012   .     S
Cu67   O69     1.965   .     S
Cu68   O72     1.951   .     S
Cu68   N114    2.012   .     S
Cu68   O70     1.965   .     S
O69    C73     1.291   .     A
O70    C73     1.291   .     A
O71    C74     1.294   .     A
O72    C74     1.296   .     A
C73    C99     1.450   .     S
C74    C77     1.471   .     S
C75    C88     1.406   .     A
C75    C624    1.416   1_554 S
C75    N658    1.437   1_554 S
H76    C85     1.082   .     S
C77    C87     1.394   .     A
C77    C88     1.409   .     A
C78    C89     1.401   .     A
C78    C79     1.387   .     A
C78    H91     1.083   .     S
C79    C620    1.392   .     S
C79    H633    1.083   .     S
C80    H92     1.077   .     S
C80    C619    1.392   1_554 S
C80    C621    1.419   1_554 S
C81    C82     1.418   .     A
C81    C620    1.419   .     S
C81    C623    1.427   .     S
C82    C89     1.418   .     A
C82    C86     1.408   .     A
C83    C87     1.401   .     A
C83    C621    1.427   1_554 S
C83    C624    1.423   1_554 S
C84    C85     1.399   .     A
C84    C615    1.416   .     S
C84    C623    1.423   .     S
C85    C86     1.383   .     A
C86    H94     1.081   .     S
C87    H90     1.077   .     S
C88    N115    1.431   .     S
H93    C619    1.083   1_554 S
C95    C104    1.401   .     A
C95    H96     1.083   .     S
C95    C277    1.384   .     S
C97    H98     1.083   .     S
C97    C99     1.401   .     A
C97    C455    1.384   1_545 S
C99    C100    1.401   .     A
C100   H101    1.083   .     S
C100   C462    1.383   1_545 S
C102   C104    1.401   .     A
C102   H103    1.083   .     S
C102   C280    1.383   .     S
C105   N114    1.367   .     A
C105   H106    1.082   .     S
C105   C167    1.417   .     S
C107   N109    1.367   .     A
C107   H108    1.082   .     S
N109   C110    1.366   .     A
C110   H111    1.082   .     S
C112   N114    1.366   .     A
C112   H113    1.078   .     S
C112   C170    1.415   .     S
N115   O116    1.301   .     A
N115   O117    1.301   .     A
N118   C615    1.437   .     S
N118   O659    1.301   .     S
N118   O180    1.301   .     S
O119   N658    1.301   1_554 S
O121   Cu127   1.965   .     S
O121   C123    1.291   .     A
O122   C123    1.291   .     A
O122   Cu128   1.965   .     S
C123   C164    1.450   .     S
O124   Cu127   1.951   .     S
O124   C126    1.297   .     A
O125   Cu128   1.937   .     S
O125   C126    1.294   .     A
C126   C149    1.472   .     S
Cu127  Cu128   2.677   .     S
Cu127  O131    1.937   .     S
Cu127  N169    2.012   .     S
Cu127  O129    1.965   .     S
Cu128  O132    1.951   .     S
Cu128  N174    2.012   .     S
Cu128  O130    1.965   .     S
O129   C133    1.291   .     A
O130   C133    1.291   .     A
O131   C134    1.294   .     A
O132   C134    1.296   .     A
C133   C159    1.450   .     S
C134   C137    1.471   .     S
C135   C148    1.406   .     A
C135   C684    1.416   1_554 S
C135   N718    1.437   1_554 S
H136   C145    1.082   .     S
C137   C147    1.394   .     A
C137   C148    1.409   .     A
C138   C149    1.401   .     A
C138   C139    1.387   .     A
C138   H151    1.083   .     S
C139   C680    1.392   .     S
C139   H693    1.083   .     S
C140   H152    1.077   .     S
C140   C679    1.392   1_554 S
C140   C681    1.419   1_554 S
C141   C142    1.418   .     A
C141   C680    1.419   .     S
C141   C683    1.427   .     S
C142   C149    1.418   .     A
C142   C146    1.408   .     A
C143   C147    1.401   .     A
C143   C681    1.427   1_554 S
C143   C684    1.423   1_554 S
C144   C145    1.399   .     A
C144   C675    1.416   .     S
C144   C683    1.423   .     S
C145   C146    1.383   .     A
C146   H154    1.081   .     S
C147   H150    1.077   .     S
C148   N175    1.431   .     S
H153   C679    1.083   1_554 S
C155   C164    1.401   .     A
C155   H156    1.083   .     S
C155   C337    1.384   .     S
C157   H158    1.083   .     S
C157   C159    1.401   .     A
C157   C515    1.384   1_545 S
C159   C160    1.401   .     A
C160   H161    1.083   .     S
C160   C522    1.383   1_545 S
C162   C164    1.401   .     A
C162   H163    1.083   .     S
C162   C340    1.383   .     S
C165   N174    1.367   .     A
C165   H166    1.082   .     S
C165   C47     1.417   1_655 S
C167   N169    1.367   .     A
C167   H168    1.082   .     S
N169   C170    1.366   .     A
C170   H171    1.082   .     S
C172   N174    1.366   .     A
C172   H173    1.078   .     S
C172   C50     1.415   1_655 S
N175   O176    1.301   .     A
N175   O177    1.301   .     A
N178   C675    1.437   .     S
N178   O719    1.301   .     S
N178   O60     1.301   1_655 S
O179   N718    1.301   1_554 S
O181   Cu187   1.965   .     S
O181   C183    1.291   .     A
O182   C183    1.291   .     A
O182   Cu188   1.965   .     S
C183   C224    1.450   .     S
O184   Cu187   1.951   .     S
O184   C186    1.297   .     A
O185   Cu188   1.937   .     S
O185   C186    1.294   .     A
C186   C209    1.472   .     S
Cu187  Cu188   2.677   .     S
Cu187  O191    1.937   .     S
Cu187  N229    2.012   .     S
Cu187  O189    1.965   .     S
Cu188  O192    1.951   .     S
Cu188  N234    2.012   .     S
Cu188  O190    1.965   .     S
O189   C193    1.291   .     A
O190   C193    1.291   .     A
O191   C194    1.294   .     A
O192   C194    1.296   .     A
C193   C219    1.450   .     S
C194   C197    1.471   .     S
C195   C208    1.406   .     A
C195   C744    1.416   1_554 S
C195   N778    1.437   1_554 S
H196   C205    1.082   .     S
C197   C207    1.394   .     A
C197   C208    1.409   .     A
C198   C209    1.401   .     A
C198   C199    1.387   .     A
C198   H211    1.083   .     S
C199   C740    1.392   .     S
C199   H753    1.083   .     S
C200   H212    1.077   .     S
C200   C739    1.392   1_554 S
C200   C741    1.419   1_554 S
C201   C202    1.418   .     A
C201   C740    1.419   .     S
C201   C743    1.427   .     S
C202   C209    1.418   .     A
C202   C206    1.408   .     A
C203   C207    1.401   .     A
C203   C741    1.427   1_554 S
C203   C744    1.423   1_554 S
C204   C205    1.399   .     A
C204   C735    1.416   .     S
C204   C743    1.423   .     S
C205   C206    1.383   .     A
C206   H214    1.081   .     S
C207   H210    1.077   .     S
C208   N235    1.431   .     S
H213   C739    1.083   1_554 S
C215   C224    1.401   .     A
C215   H216    1.083   .     S
C215   C397    1.384   .     S
C217   H218    1.083   .     S
C217   C219    1.401   .     A
C219   C220    1.401   .     A
C220   H221    1.083   .     S
C222   C224    1.401   .     A
C222   H223    1.083   .     S
C222   C400    1.383   .     S
C225   N234    1.367   .     A
C225   H226    1.082   .     S
C225   C287    1.417   .     S
C227   N229    1.367   .     A
C227   H228    1.082   .     S
C227   C345    1.417   1_455 S
N229   C230    1.366   .     A
C230   H231    1.082   .     S
C230   C352    1.415   1_455 S
C232   N234    1.366   .     A
C232   H233    1.078   .     S
C232   C290    1.415   .     S
N235   O236    1.301   .     A
N235   O237    1.301   .     A
N238   C735    1.437   .     S
N238   O779    1.301   .     S
N238   O300    1.301   .     S
O239   N778    1.301   1_554 S
O240   N358    1.301   1_455 S
O241   Cu247   1.965   .     S
O241   C243    1.291   .     A
O242   C243    1.291   .     A
O242   Cu248   1.965   .     S
C243   C284    1.450   .     S
O244   Cu247   1.951   .     S
O244   C246    1.297   .     A
O245   Cu248   1.937   .     S
O245   C246    1.294   .     A
C246   C269    1.472   .     S
Cu247  Cu248   2.677   .     S
Cu247  O251    1.937   .     S
Cu247  N289    2.012   .     S
Cu247  O249    1.965   .     S
Cu248  O252    1.951   .     S
Cu248  N294    2.012   .     S
Cu248  O250    1.965   .     S
O249   C253    1.291   .     A
O250   C253    1.291   .     A
O251   C254    1.294   .     A
O252   C254    1.296   .     A
C253   C279    1.450   .     S
C254   C257    1.471   .     S
C255   C268    1.406   .     A
C255   C804    1.416   1_554 S
C255   N838    1.437   1_554 S
H256   C265    1.082   .     S
C257   C267    1.394   .     A
C257   C268    1.409   .     A
C258   C269    1.401   .     A
C258   C259    1.387   .     A
C258   H271    1.083   .     S
C259   C800    1.392   .     S
C259   H813    1.083   .     S
C260   H272    1.077   .     S
C260   C799    1.392   1_554 S
C260   C801    1.419   1_554 S
C261   C262    1.418   .     A
C261   C800    1.419   .     S
C261   C803    1.427   .     S
C262   C269    1.418   .     A
C262   C266    1.408   .     A
C263   C267    1.401   .     A
C263   C801    1.427   1_554 S
C263   C804    1.423   1_554 S
C264   C265    1.399   .     A
C264   C795    1.416   .     S
C264   C803    1.423   .     S
C265   C266    1.383   .     A
C266   H274    1.081   .     S
C267   H270    1.077   .     S
C268   N295    1.431   .     S
H273   C799    1.083   1_554 S
C275   C284    1.401   .     A
C275   H276    1.083   .     S
C275   C457    1.384   .     S
C277   H278    1.083   .     S
C277   C279    1.401   .     A
C279   C280    1.401   .     A
C280   H281    1.083   .     S
C282   C284    1.401   .     A
C282   H283    1.083   .     S
C282   C460    1.383   .     S
C285   N294    1.367   .     A
C285   H286    1.082   .     S
C285   C347    1.417   .     S
C287   N289    1.367   .     A
C287   H288    1.082   .     S
N289   C290    1.366   .     A
C290   H291    1.082   .     S
C292   N294    1.366   .     A
C292   H293    1.078   .     S
C292   C350    1.415   .     S
N295   O296    1.301   .     A
N295   O297    1.301   .     A
N298   C795    1.437   .     S
N298   O839    1.301   .     S
N298   O360    1.301   .     S
O299   N838    1.301   1_554 S
O301   Cu307   1.965   .     S
O301   C303    1.291   .     A
O302   C303    1.291   .     A
O302   Cu308   1.965   .     S
C303   C344    1.450   .     S
O304   Cu307   1.951   .     S
O304   C306    1.297   .     A
O305   Cu308   1.937   .     S
O305   C306    1.294   .     A
C306   C329    1.472   .     S
Cu307  Cu308   2.677   .     S
Cu307  O311    1.937   .     S
Cu307  N349    2.012   .     S
Cu307  O309    1.965   .     S
Cu308  O312    1.951   .     S
Cu308  N354    2.012   .     S
Cu308  O310    1.965   .     S
O309   C313    1.291   .     A
O310   C313    1.291   .     A
O311   C314    1.294   .     A
O312   C314    1.296   .     A
C313   C339    1.450   .     S
C314   C317    1.471   .     S
C315   C328    1.406   .     A
C315   C864    1.416   1_554 S
C315   N898    1.437   1_554 S
H316   C325    1.082   .     S
C317   C327    1.394   .     A
C317   C328    1.409   .     A
C318   C329    1.401   .     A
C318   C319    1.387   .     A
C318   H331    1.083   .     S
C319   C860    1.392   .     S
C319   H873    1.083   .     S
C320   H332    1.077   .     S
C320   C859    1.392   1_554 S
C320   C861    1.419   1_554 S
C321   C322    1.418   .     A
C321   C860    1.419   .     S
C321   C863    1.427   .     S
C322   C329    1.418   .     A
C322   C326    1.408   .     A
C323   C327    1.401   .     A
C323   C861    1.427   1_554 S
C323   C864    1.423   1_554 S
C324   C325    1.399   .     A
C324   C855    1.416   .     S
C324   C863    1.423   .     S
C325   C326    1.383   .     A
C326   H334    1.081   .     S
C327   H330    1.077   .     S
C328   N355    1.431   .     S
H333   C859    1.083   1_554 S
C335   C344    1.401   .     A
C335   H336    1.083   .     S
C335   C517    1.384   .     S
C337   H338    1.083   .     S
C337   C339    1.401   .     A
C339   C340    1.401   .     A
C340   H341    1.083   .     S
C342   C344    1.401   .     A
C342   H343    1.083   .     S
C342   C520    1.383   .     S
C345   N354    1.367   .     A
C345   H346    1.082   .     S
C345   C227    1.417   1_655 S
C347   N349    1.367   .     A
C347   H348    1.082   .     S
N349   C350    1.366   .     A
C350   H351    1.082   .     S
C352   N354    1.366   .     A
C352   H353    1.078   .     S
C352   C230    1.415   1_655 S
N355   O356    1.301   .     A
N355   O357    1.301   .     A
N358   C855    1.437   .     S
N358   O899    1.301   .     S
N358   O240    1.301   1_655 S
O359   N898    1.301   1_554 S
O361   Cu367   1.965   .     S
O361   C363    1.291   .     A
O362   C363    1.291   .     A
O362   Cu368   1.965   .     S
C363   C404    1.450   .     S
O364   Cu367   1.951   .     S
O364   C366    1.297   .     A
O365   Cu368   1.937   .     S
O365   C366    1.294   .     A
C366   C389    1.472   .     S
Cu367  Cu368   2.677   .     S
Cu367  O371    1.937   .     S
Cu367  N409    2.012   .     S
Cu367  O369    1.965   .     S
Cu368  O372    1.951   .     S
Cu368  N414    2.012   .     S
Cu368  O370    1.965   .     S
O369   C373    1.291   .     A
O370   C373    1.291   .     A
O371   C374    1.294   .     A
O372   C374    1.296   .     A
C373   C399    1.450   .     S
C374   C377    1.471   .     S
C375   C388    1.406   .     A
C375   C924    1.416   1_554 S
C375   N958    1.437   1_554 S
H376   C385    1.082   .     S
C377   C387    1.394   .     A
C377   C388    1.409   .     A
C378   C389    1.401   .     A
C378   C379    1.387   .     A
C378   H391    1.083   .     S
C379   C920    1.392   .     S
C379   H933    1.083   .     S
C380   H392    1.077   .     S
C380   C919    1.392   1_554 S
C380   C921    1.419   1_554 S
C381   C382    1.418   .     A
C381   C920    1.419   .     S
C381   C923    1.427   .     S
C382   C389    1.418   .     A
C382   C386    1.408   .     A
C383   C387    1.401   .     A
C383   C921    1.427   1_554 S
C383   C924    1.423   1_554 S
C384   C385    1.399   .     A
C384   C915    1.416   .     S
C384   C923    1.423   .     S
C385   C386    1.383   .     A
C386   H394    1.081   .     S
C387   H390    1.077   .     S
C388   N415    1.431   .     S
H393   C919    1.083   1_554 S
C395   C404    1.401   .     A
C395   H396    1.083   .     S
C395   C37     1.384   1_565 S
C397   H398    1.083   .     S
C397   C399    1.401   .     A
C399   C400    1.401   .     A
C400   H401    1.083   .     S
C402   C404    1.401   .     A
C402   H403    1.083   .     S
C402   C40     1.383   1_565 S
C405   N414    1.367   .     A
C405   H406    1.082   .     S
C405   C467    1.417   .     S
C407   N409    1.367   .     A
C407   H408    1.082   .     S
C407   C525    1.417   1_455 S
N409   C410    1.366   .     A
C410   H411    1.082   .     S
C410   C532    1.415   1_455 S
C412   N414    1.366   .     A
C412   H413    1.078   .     S
C412   C470    1.415   .     S
N415   O416    1.301   .     A
N415   O417    1.301   .     A
N418   C915    1.437   .     S
N418   O959    1.301   .     S
N418   O480    1.301   .     S
O419   N958    1.301   1_554 S
O420   N538    1.301   1_455 S
O421   Cu427   1.965   .     S
O421   C423    1.291   .     A
O422   C423    1.291   .     A
O422   Cu428   1.965   .     S
C423   C464    1.450   .     S
O424   Cu427   1.951   .     S
O424   C426    1.297   .     A
O425   Cu428   1.937   .     S
O425   C426    1.294   .     A
C426   C449    1.472   .     S
Cu427  Cu428   2.677   .     S
Cu427  O431    1.937   .     S
Cu427  N469    2.012   .     S
Cu427  O429    1.965   .     S
Cu428  O432    1.951   .     S
Cu428  N474    2.012   .     S
Cu428  O430    1.965   .     S
O429   C433    1.291   .     A
O430   C433    1.291   .     A
O431   C434    1.294   .     A
O432   C434    1.296   .     A
C433   C459    1.450   .     S
C434   C437    1.471   .     S
C435   C448    1.406   .     A
C435   C984    1.416   1_554 S
C435   N1018   1.437   1_554 S
H436   C445    1.082   .     S
C437   C447    1.394   .     A
C437   C448    1.409   .     A
C438   C449    1.401   .     A
C438   C439    1.387   .     A
C438   H451    1.083   .     S
C439   C980    1.392   .     S
C439   H993    1.083   .     S
C440   H452    1.077   .     S
C440   C979    1.392   1_554 S
C440   C981    1.419   1_554 S
C441   C442    1.418   .     A
C441   C980    1.419   .     S
C441   C983    1.427   .     S
C442   C449    1.418   .     A
C442   C446    1.408   .     A
C443   C447    1.401   .     A
C443   C981    1.427   1_554 S
C443   C984    1.423   1_554 S
C444   C445    1.399   .     A
C444   C975    1.416   .     S
C444   C983    1.423   .     S
C445   C446    1.383   .     A
C446   H454    1.081   .     S
C447   H450    1.077   .     S
C448   N475    1.431   .     S
H453   C979    1.083   1_554 S
C455   C464    1.401   .     A
C455   H456    1.083   .     S
C455   C97     1.384   1_565 S
C457   H458    1.083   .     S
C457   C459    1.401   .     A
C459   C460    1.401   .     A
C460   H461    1.083   .     S
C462   C464    1.401   .     A
C462   H463    1.083   .     S
C462   C100    1.383   1_565 S
C465   N474    1.367   .     A
C465   H466    1.082   .     S
C465   C527    1.417   .     S
C467   N469    1.367   .     A
C467   H468    1.082   .     S
N469   C470    1.366   .     A
C470   H471    1.082   .     S
C472   N474    1.366   .     A
C472   H473    1.078   .     S
C472   C530    1.415   .     S
N475   O476    1.301   .     A
N475   O477    1.301   .     A
N478   C975    1.437   .     S
N478   O1019   1.301   .     S
N478   O540    1.301   .     S
O479   N1018   1.301   1_554 S
O481   Cu487   1.965   .     S
O481   C483    1.291   .     A
O482   C483    1.291   .     A
O482   Cu488   1.965   .     S
C483   C524    1.450   .     S
O484   Cu487   1.951   .     S
O484   C486    1.297   .     A
O485   Cu488   1.937   .     S
O485   C486    1.294   .     A
C486   C509    1.472   .     S
Cu487  Cu488   2.677   .     S
Cu487  O491    1.937   .     S
Cu487  N529    2.012   .     S
Cu487  O489    1.965   .     S
Cu488  O492    1.951   .     S
Cu488  N534    2.012   .     S
Cu488  O490    1.965   .     S
O489   C493    1.291   .     A
O490   C493    1.291   .     A
O491   C494    1.294   .     A
O492   C494    1.296   .     A
C493   C519    1.450   .     S
C494   C497    1.471   .     S
C495   C508    1.406   .     A
C495   C1044   1.416   1_554 S
C495   N1078   1.437   1_554 S
H496   C505    1.082   .     S
C497   C507    1.394   .     A
C497   C508    1.409   .     A
C498   C509    1.401   .     A
C498   C499    1.387   .     A
C498   H511    1.083   .     S
C499   C1040   1.392   .     S
C499   H1053   1.083   .     S
C500   H512    1.077   .     S
C500   C1039   1.392   1_554 S
C500   C1041   1.419   1_554 S
C501   C502    1.418   .     A
C501   C1040   1.419   .     S
C501   C1043   1.427   .     S
C502   C509    1.418   .     A
C502   C506    1.408   .     A
C503   C507    1.401   .     A
C503   C1041   1.427   1_554 S
C503   C1044   1.423   1_554 S
C504   C505    1.399   .     A
C504   C1035   1.416   .     S
C504   C1043   1.423   .     S
C505   C506    1.383   .     A
C506   H514    1.081   .     S
C507   H510    1.077   .     S
C508   N535    1.431   .     S
H513   C1039   1.083   1_554 S
C515   C524    1.401   .     A
C515   H516    1.083   .     S
C515   C157    1.384   1_565 S
C517   H518    1.083   .     S
C517   C519    1.401   .     A
C519   C520    1.401   .     A
C520   H521    1.083   .     S
C522   C524    1.401   .     A
C522   H523    1.083   .     S
C522   C160    1.383   1_565 S
C525   N534    1.367   .     A
C525   H526    1.082   .     S
C525   C407    1.417   1_655 S
C527   N529    1.367   .     A
C527   H528    1.082   .     S
N529   C530    1.366   .     A
C530   H531    1.082   .     S
C532   N534    1.366   .     A
C532   H533    1.078   .     S
C532   C410    1.415   1_655 S
N535   O536    1.301   .     A
N535   O537    1.301   .     A
N538   C1035   1.437   .     S
N538   O1079   1.301   .     S
N538   O420    1.301   1_655 S
O539   N1078   1.301   1_554 S
O541   Cu547   1.965   .     S
O541   C543    1.291   .     A
O542   C543    1.291   .     A
O542   Cu548   1.965   .     S
C543   C584    1.450   .     S
O544   Cu547   1.951   .     S
O544   C546    1.297   .     A
O545   Cu548   1.937   .     S
O545   C546    1.294   .     A
C546   C569    1.472   .     S
Cu547  Cu548   2.677   .     S
Cu547  O551    1.937   .     S
Cu547  N589    2.012   .     S
Cu547  O549    1.965   .     S
Cu548  O552    1.951   .     S
Cu548  N594    2.012   .     S
Cu548  O550    1.965   .     S
O549   C553    1.291   .     A
O550   C553    1.291   .     A
O551   C554    1.294   .     A
O552   C554    1.296   .     A
C553   C579    1.450   .     S
C554   C557    1.471   .     S
C555   C568    1.406   .     A
H556   C565    1.082   .     S
C557   C567    1.394   .     A
C557   C568    1.409   .     A
C558   C569    1.401   .     A
C558   C559    1.387   .     A
C558   H571    1.083   .     S
C559   C20     1.392   1_556 S
C559   H33     1.083   1_556 S
C560   H572    1.077   .     S
C561   C562    1.418   .     A
C561   C20     1.419   1_556 S
C561   C23     1.427   1_556 S
C562   C569    1.418   .     A
C562   C566    1.408   .     A
C563   C567    1.401   .     A
C564   C565    1.399   .     A
C564   C15     1.416   1_556 S
C564   C23     1.423   1_556 S
C565   C566    1.383   .     A
C566   H574    1.081   .     S
C567   H570    1.077   .     S
C568   N595    1.431   .     S
C575   C584    1.401   .     A
C575   H576    1.083   .     S
C575   C757    1.384   .     S
C577   H578    1.083   .     S
C577   C579    1.401   .     A
C577   C935    1.384   1_545 S
C579   C580    1.401   .     A
C580   H581    1.083   .     S
C580   C942    1.383   1_545 S
C582   C584    1.401   .     A
C582   H583    1.083   .     S
C582   C760    1.383   .     S
C585   N594    1.367   .     A
C585   H586    1.082   .     S
C585   C647    1.417   .     S
C587   N589    1.367   .     A
C587   H588    1.082   .     S
C587   C705    1.417   1_455 S
N589   C590    1.366   .     A
C590   H591    1.082   .     S
C590   C712    1.415   1_455 S
C592   N594    1.366   .     A
C592   H593    1.078   .     S
C592   C650    1.415   .     S
N595   O596    1.301   .     A
N595   O597    1.301   .     A
N598   C15     1.437   1_556 S
N598   O59     1.301   1_556 S
N598   O660    1.301   .     S
O600   N718    1.301   1_455 S
O601   Cu607   1.965   .     S
O601   C603    1.291   .     A
O602   C603    1.291   .     A
O602   Cu608   1.965   .     S
C603   C644    1.450   .     S
O604   Cu607   1.951   .     S
O604   C606    1.297   .     A
O605   Cu608   1.937   .     S
O605   C606    1.294   .     A
C606   C629    1.472   .     S
Cu607  Cu608   2.677   .     S
Cu607  O611    1.937   .     S
Cu607  N649    2.012   .     S
Cu607  O609    1.965   .     S
Cu608  O612    1.951   .     S
Cu608  N654    2.012   .     S
Cu608  O610    1.965   .     S
O609   C613    1.291   .     A
O610   C613    1.291   .     A
O611   C614    1.294   .     A
O612   C614    1.296   .     A
C613   C639    1.450   .     S
C614   C617    1.471   .     S
C615   C628    1.406   .     A
H616   C625    1.082   .     S
C617   C627    1.394   .     A
C617   C628    1.409   .     A
C618   C629    1.401   .     A
C618   C619    1.387   .     A
C618   H631    1.083   .     S
C619   C80     1.392   1_556 S
C619   H93     1.083   1_556 S
C620   H632    1.077   .     S
C621   C622    1.418   .     A
C621   C80     1.419   1_556 S
C621   C83     1.427   1_556 S
C622   C629    1.418   .     A
C622   C626    1.408   .     A
C623   C627    1.401   .     A
C624   C625    1.399   .     A
C624   C75     1.416   1_556 S
C624   C83     1.423   1_556 S
C625   C626    1.383   .     A
C626   H634    1.081   .     S
C627   H630    1.077   .     S
C628   N655    1.431   .     S
C635   C644    1.401   .     A
C635   H636    1.083   .     S
C635   C817    1.384   .     S
C637   H638    1.083   .     S
C637   C639    1.401   .     A
C637   C995    1.384   1_545 S
C639   C640    1.401   .     A
C640   H641    1.083   .     S
C640   C1002   1.383   1_545 S
C642   C644    1.401   .     A
C642   H643    1.083   .     S
C642   C820    1.383   .     S
C645   N654    1.367   .     A
C645   H646    1.082   .     S
C645   C707    1.417   .     S
C647   N649    1.367   .     A
C647   H648    1.082   .     S
N649   C650    1.366   .     A
C650   H651    1.082   .     S
C652   N654    1.366   .     A
C652   H653    1.078   .     S
C652   C710    1.415   .     S
N655   O656    1.301   .     A
N655   O657    1.301   .     A
N658   C75     1.437   1_556 S
N658   O119    1.301   1_556 S
N658   O720    1.301   .     S
O661   Cu667   1.965   .     S
O661   C663    1.291   .     A
O662   C663    1.291   .     A
O662   Cu668   1.965   .     S
C663   C704    1.450   .     S
O664   Cu667   1.951   .     S
O664   C666    1.297   .     A
O665   Cu668   1.937   .     S
O665   C666    1.294   .     A
C666   C689    1.472   .     S
Cu667  Cu668   2.677   .     S
Cu667  O671    1.937   .     S
Cu667  N709    2.012   .     S
Cu667  O669    1.965   .     S
Cu668  O672    1.951   .     S
Cu668  N714    2.012   .     S
Cu668  O670    1.965   .     S
O669   C673    1.291   .     A
O670   C673    1.291   .     A
O671   C674    1.294   .     A
O672   C674    1.296   .     A
C673   C699    1.450   .     S
C674   C677    1.471   .     S
C675   C688    1.406   .     A
H676   C685    1.082   .     S
C677   C687    1.394   .     A
C677   C688    1.409   .     A
C678   C689    1.401   .     A
C678   C679    1.387   .     A
C678   H691    1.083   .     S
C679   C140    1.392   1_556 S
C679   H153    1.083   1_556 S
C680   H692    1.077   .     S
C681   C682    1.418   .     A
C681   C140    1.419   1_556 S
C681   C143    1.427   1_556 S
C682   C689    1.418   .     A
C682   C686    1.408   .     A
C683   C687    1.401   .     A
C684   C685    1.399   .     A
C684   C135    1.416   1_556 S
C684   C143    1.423   1_556 S
C685   C686    1.383   .     A
C686   H694    1.081   .     S
C687   H690    1.077   .     S
C688   N715    1.431   .     S
C695   C704    1.401   .     A
C695   H696    1.083   .     S
C695   C877    1.384   .     S
C697   H698    1.083   .     S
C697   C699    1.401   .     A
C697   C1055   1.384   1_545 S
C699   C700    1.401   .     A
C700   H701    1.083   .     S
C700   C1062   1.383   1_545 S
C702   C704    1.401   .     A
C702   H703    1.083   .     S
C702   C880    1.383   .     S
C705   N714    1.367   .     A
C705   H706    1.082   .     S
C705   C587    1.417   1_655 S
C707   N709    1.367   .     A
C707   H708    1.082   .     S
N709   C710    1.366   .     A
C710   H711    1.082   .     S
C712   N714    1.366   .     A
C712   H713    1.078   .     S
C712   C590    1.415   1_655 S
N715   O716    1.301   .     A
N715   O717    1.301   .     A
N718   C135    1.437   1_556 S
N718   O179    1.301   1_556 S
N718   O600    1.301   1_655 S
O721   Cu727   1.965   .     S
O721   C723    1.291   .     A
O722   C723    1.291   .     A
O722   Cu728   1.965   .     S
C723   C764    1.450   .     S
O724   Cu727   1.951   .     S
O724   C726    1.297   .     A
O725   Cu728   1.937   .     S
O725   C726    1.294   .     A
C726   C749    1.472   .     S
Cu727  Cu728   2.677   .     S
Cu727  O731    1.937   .     S
Cu727  N769    2.012   .     S
Cu727  O729    1.965   .     S
Cu728  O732    1.951   .     S
Cu728  N774    2.012   .     S
Cu728  O730    1.965   .     S
O729   C733    1.291   .     A
O730   C733    1.291   .     A
O731   C734    1.294   .     A
O732   C734    1.296   .     A
C733   C759    1.450   .     S
C734   C737    1.471   .     S
C735   C748    1.406   .     A
H736   C745    1.082   .     S
C737   C747    1.394   .     A
C737   C748    1.409   .     A
C738   C749    1.401   .     A
C738   C739    1.387   .     A
C738   H751    1.083   .     S
C739   C200    1.392   1_556 S
C739   H213    1.083   1_556 S
C740   H752    1.077   .     S
C741   C742    1.418   .     A
C741   C200    1.419   1_556 S
C741   C203    1.427   1_556 S
C742   C749    1.418   .     A
C742   C746    1.408   .     A
C743   C747    1.401   .     A
C744   C745    1.399   .     A
C744   C195    1.416   1_556 S
C744   C203    1.423   1_556 S
C745   C746    1.383   .     A
C746   H754    1.081   .     S
C747   H750    1.077   .     S
C748   N775    1.431   .     S
C755   C764    1.401   .     A
C755   H756    1.083   .     S
C755   C937    1.384   .     S
C757   H758    1.083   .     S
C757   C759    1.401   .     A
C759   C760    1.401   .     A
C760   H761    1.083   .     S
C762   C764    1.401   .     A
C762   H763    1.083   .     S
C762   C940    1.383   .     S
C765   N774    1.367   .     A
C765   H766    1.082   .     S
C765   C827    1.417   .     S
C767   N769    1.367   .     A
C767   H768    1.082   .     S
C767   C885    1.417   1_455 S
N769   C770    1.366   .     A
C770   H771    1.082   .     S
C770   C892    1.415   1_455 S
C772   N774    1.366   .     A
C772   H773    1.078   .     S
C772   C830    1.415   .     S
N775   O776    1.301   .     A
N775   O777    1.301   .     A
N778   C195    1.437   1_556 S
N778   O239    1.301   1_556 S
N778   O840    1.301   .     S
O780   N898    1.301   1_455 S
O781   Cu787   1.965   .     S
O781   C783    1.291   .     A
O782   C783    1.291   .     A
O782   Cu788   1.965   .     S
C783   C824    1.450   .     S
O784   Cu787   1.951   .     S
O784   C786    1.297   .     A
O785   Cu788   1.937   .     S
O785   C786    1.294   .     A
C786   C809    1.472   .     S
Cu787  Cu788   2.677   .     S
Cu787  O791    1.937   .     S
Cu787  N829    2.012   .     S
Cu787  O789    1.965   .     S
Cu788  O792    1.951   .     S
Cu788  N834    2.012   .     S
Cu788  O790    1.965   .     S
O789   C793    1.291   .     A
O790   C793    1.291   .     A
O791   C794    1.294   .     A
O792   C794    1.296   .     A
C793   C819    1.450   .     S
C794   C797    1.471   .     S
C795   C808    1.406   .     A
H796   C805    1.082   .     S
C797   C807    1.394   .     A
C797   C808    1.409   .     A
C798   C809    1.401   .     A
C798   C799    1.387   .     A
C798   H811    1.083   .     S
C799   C260    1.392   1_556 S
C799   H273    1.083   1_556 S
C800   H812    1.077   .     S
C801   C802    1.418   .     A
C801   C260    1.419   1_556 S
C801   C263    1.427   1_556 S
C802   C809    1.418   .     A
C802   C806    1.408   .     A
C803   C807    1.401   .     A
C804   C805    1.399   .     A
C804   C255    1.416   1_556 S
C804   C263    1.423   1_556 S
C805   C806    1.383   .     A
C806   H814    1.081   .     S
C807   H810    1.077   .     S
C808   N835    1.431   .     S
C815   C824    1.401   .     A
C815   H816    1.083   .     S
C815   C997    1.384   .     S
C817   H818    1.083   .     S
C817   C819    1.401   .     A
C819   C820    1.401   .     A
C820   H821    1.083   .     S
C822   C824    1.401   .     A
C822   H823    1.083   .     S
C822   C1000   1.383   .     S
C825   N834    1.367   .     A
C825   H826    1.082   .     S
C825   C887    1.417   .     S
C827   N829    1.367   .     A
C827   H828    1.082   .     S
N829   C830    1.366   .     A
C830   H831    1.082   .     S
C832   N834    1.366   .     A
C832   H833    1.078   .     S
C832   C890    1.415   .     S
N835   O836    1.301   .     A
N835   O837    1.301   .     A
N838   C255    1.437   1_556 S
N838   O299    1.301   1_556 S
N838   O900    1.301   .     S
O841   Cu847   1.965   .     S
O841   C843    1.291   .     A
O842   C843    1.291   .     A
O842   Cu848   1.965   .     S
C843   C884    1.450   .     S
O844   Cu847   1.951   .     S
O844   C846    1.297   .     A
O845   Cu848   1.937   .     S
O845   C846    1.294   .     A
C846   C869    1.472   .     S
Cu847  Cu848   2.677   .     S
Cu847  O851    1.937   .     S
Cu847  N889    2.012   .     S
Cu847  O849    1.965   .     S
Cu848  O852    1.951   .     S
Cu848  N894    2.012   .     S
Cu848  O850    1.965   .     S
O849   C853    1.291   .     A
O850   C853    1.291   .     A
O851   C854    1.294   .     A
O852   C854    1.296   .     A
C853   C879    1.450   .     S
C854   C857    1.471   .     S
C855   C868    1.406   .     A
H856   C865    1.082   .     S
C857   C867    1.394   .     A
C857   C868    1.409   .     A
C858   C869    1.401   .     A
C858   C859    1.387   .     A
C858   H871    1.083   .     S
C859   C320    1.392   1_556 S
C859   H333    1.083   1_556 S
C860   H872    1.077   .     S
C861   C862    1.418   .     A
C861   C320    1.419   1_556 S
C861   C323    1.427   1_556 S
C862   C869    1.418   .     A
C862   C866    1.408   .     A
C863   C867    1.401   .     A
C864   C865    1.399   .     A
C864   C315    1.416   1_556 S
C864   C323    1.423   1_556 S
C865   C866    1.383   .     A
C866   H874    1.081   .     S
C867   H870    1.077   .     S
C868   N895    1.431   .     S
C875   C884    1.401   .     A
C875   H876    1.083   .     S
C875   C1057   1.384   .     S
C877   H878    1.083   .     S
C877   C879    1.401   .     A
C879   C880    1.401   .     A
C880   H881    1.083   .     S
C882   C884    1.401   .     A
C882   H883    1.083   .     S
C882   C1060   1.383   .     S
C885   N894    1.367   .     A
C885   H886    1.082   .     S
C885   C767    1.417   1_655 S
C887   N889    1.367   .     A
C887   H888    1.082   .     S
N889   C890    1.366   .     A
C890   H891    1.082   .     S
C892   N894    1.366   .     A
C892   H893    1.078   .     S
C892   C770    1.415   1_655 S
N895   O896    1.301   .     A
N895   O897    1.301   .     A
N898   C315    1.437   1_556 S
N898   O359    1.301   1_556 S
N898   O780    1.301   1_655 S
O901   Cu907   1.965   .     S
O901   C903    1.291   .     A
O902   C903    1.291   .     A
O902   Cu908   1.965   .     S
C903   C944    1.450   .     S
O904   Cu907   1.951   .     S
O904   C906    1.297   .     A
O905   Cu908   1.937   .     S
O905   C906    1.294   .     A
C906   C929    1.472   .     S
Cu907  Cu908   2.677   .     S
Cu907  O911    1.937   .     S
Cu907  N949    2.012   .     S
Cu907  O909    1.965   .     S
Cu908  O912    1.951   .     S
Cu908  N954    2.012   .     S
Cu908  O910    1.965   .     S
O909   C913    1.291   .     A
O910   C913    1.291   .     A
O911   C914    1.294   .     A
O912   C914    1.296   .     A
C913   C939    1.450   .     S
C914   C917    1.471   .     S
C915   C928    1.406   .     A
H916   C925    1.082   .     S
C917   C927    1.394   .     A
C917   C928    1.409   .     A
C918   C929    1.401   .     A
C918   C919    1.387   .     A
C918   H931    1.083   .     S
C919   C380    1.392   1_556 S
C919   H393    1.083   1_556 S
C920   H932    1.077   .     S
C921   C922    1.418   .     A
C921   C380    1.419   1_556 S
C921   C383    1.427   1_556 S
C922   C929    1.418   .     A
C922   C926    1.408   .     A
C923   C927    1.401   .     A
C924   C925    1.399   .     A
C924   C375    1.416   1_556 S
C924   C383    1.423   1_556 S
C925   C926    1.383   .     A
C926   H934    1.081   .     S
C927   H930    1.077   .     S
C928   N955    1.431   .     S
C935   C944    1.401   .     A
C935   H936    1.083   .     S
C935   C577    1.384   1_565 S
C937   H938    1.083   .     S
C937   C939    1.401   .     A
C939   C940    1.401   .     A
C940   H941    1.083   .     S
C942   C944    1.401   .     A
C942   H943    1.083   .     S
C942   C580    1.383   1_565 S
C945   N954    1.367   .     A
C945   H946    1.082   .     S
C945   C1007   1.417   .     S
C947   N949    1.367   .     A
C947   H948    1.082   .     S
C947   C1065   1.417   1_455 S
N949   C950    1.366   .     A
C950   H951    1.082   .     S
C950   C1072   1.415   1_455 S
C952   N954    1.366   .     A
C952   H953    1.078   .     S
C952   C1010   1.415   .     S
N955   O956    1.301   .     A
N955   O957    1.301   .     A
N958   C375    1.437   1_556 S
N958   O419    1.301   1_556 S
N958   O1020   1.301   .     S
O960   N1078   1.301   1_455 S
O961   Cu967   1.965   .     S
O961   C963    1.291   .     A
O962   C963    1.291   .     A
O962   Cu968   1.965   .     S
C963   C1004   1.450   .     S
O964   Cu967   1.951   .     S
O964   C966    1.297   .     A
O965   Cu968   1.937   .     S
O965   C966    1.294   .     A
C966   C989    1.472   .     S
Cu967  Cu968   2.677   .     S
Cu967  O971    1.937   .     S
Cu967  N1009   2.012   .     S
Cu967  O969    1.965   .     S
Cu968  O972    1.951   .     S
Cu968  N1014   2.012   .     S
Cu968  O970    1.965   .     S
O969   C973    1.291   .     A
O970   C973    1.291   .     A
O971   C974    1.294   .     A
O972   C974    1.296   .     A
C973   C999    1.450   .     S
C974   C977    1.471   .     S
C975   C988    1.406   .     A
H976   C985    1.082   .     S
C977   C987    1.394   .     A
C977   C988    1.409   .     A
C978   C989    1.401   .     A
C978   C979    1.387   .     A
C978   H991    1.083   .     S
C979   C440    1.392   1_556 S
C979   H453    1.083   1_556 S
C980   H992    1.077   .     S
C981   C982    1.418   .     A
C981   C440    1.419   1_556 S
C981   C443    1.427   1_556 S
C982   C989    1.418   .     A
C982   C986    1.408   .     A
C983   C987    1.401   .     A
C984   C985    1.399   .     A
C984   C435    1.416   1_556 S
C984   C443    1.423   1_556 S
C985   C986    1.383   .     A
C986   H994    1.081   .     S
C987   H990    1.077   .     S
C988   N1015   1.431   .     S
C995   C1004   1.401   .     A
C995   H996    1.083   .     S
C995   C637    1.384   1_565 S
C997   H998    1.083   .     S
C997   C999    1.401   .     A
C999   C1000   1.401   .     A
C1000  H1001   1.083   .     S
C1002  C1004   1.401   .     A
C1002  H1003   1.083   .     S
C1002  C640    1.383   1_565 S
C1005  N1014   1.367   .     A
C1005  H1006   1.082   .     S
C1005  C1067   1.417   .     S
C1007  N1009   1.367   .     A
C1007  H1008   1.082   .     S
N1009  C1010   1.366   .     A
C1010  H1011   1.082   .     S
C1012  N1014   1.366   .     A
C1012  H1013   1.078   .     S
C1012  C1070   1.415   .     S
N1015  O1016   1.301   .     A
N1015  O1017   1.301   .     A
N1018  C435    1.437   1_556 S
N1018  O479    1.301   1_556 S
N1018  O1080   1.301   .     S
O1021  Cu1027  1.965   .     S
O1021  C1023   1.291   .     A
O1022  C1023   1.291   .     A
O1022  Cu1028  1.965   .     S
C1023  C1064   1.450   .     S
O1024  Cu1027  1.951   .     S
O1024  C1026   1.297   .     A
O1025  Cu1028  1.937   .     S
O1025  C1026   1.294   .     A
C1026  C1049   1.472   .     S
Cu1027 Cu1028  2.677   .     S
Cu1027 O1031   1.937   .     S
Cu1027 N1069   2.012   .     S
Cu1027 O1029   1.965   .     S
Cu1028 O1032   1.951   .     S
Cu1028 N1074   2.012   .     S
Cu1028 O1030   1.965   .     S
O1029  C1033   1.291   .     A
O1030  C1033   1.291   .     A
O1031  C1034   1.294   .     A
O1032  C1034   1.296   .     A
C1033  C1059   1.450   .     S
C1034  C1037   1.471   .     S
C1035  C1048   1.406   .     A
H1036  C1045   1.082   .     S
C1037  C1047   1.394   .     A
C1037  C1048   1.409   .     A
C1038  C1049   1.401   .     A
C1038  C1039   1.387   .     A
C1038  H1051   1.083   .     S
C1039  C500    1.392   1_556 S
C1039  H513    1.083   1_556 S
C1040  H1052   1.077   .     S
C1041  C1042   1.418   .     A
C1041  C500    1.419   1_556 S
C1041  C503    1.427   1_556 S
C1042  C1049   1.418   .     A
C1042  C1046   1.408   .     A
C1043  C1047   1.401   .     A
C1044  C1045   1.399   .     A
C1044  C495    1.416   1_556 S
C1044  C503    1.423   1_556 S
C1045  C1046   1.383   .     A
C1046  H1054   1.081   .     S
C1047  H1050   1.077   .     S
C1048  N1075   1.431   .     S
C1055  C1064   1.401   .     A
C1055  H1056   1.083   .     S
C1055  C697    1.384   1_565 S
C1057  H1058   1.083   .     S
C1057  C1059   1.401   .     A
C1059  C1060   1.401   .     A
C1060  H1061   1.083   .     S
C1062  C1064   1.401   .     A
C1062  H1063   1.083   .     S
C1062  C700    1.383   1_565 S
C1065  N1074   1.367   .     A
C1065  H1066   1.082   .     S
C1065  C947    1.417   1_655 S
C1067  N1069   1.367   .     A
C1067  H1068   1.082   .     S
N1069  C1070   1.366   .     A
C1070  H1071   1.082   .     S
C1072  N1074   1.366   .     A
C1072  H1073   1.078   .     S
C1072  C950    1.415   1_655 S
N1075  O1076   1.301   .     A
N1075  O1077   1.301   .     A
N1078  C495    1.437   1_556 S
N1078  O539    1.301   1_556 S
N1078  O960    1.301   1_655 S
