data_str_m2_o10_o16_pcu_sym.53
_audit_creation_date              2020-01-03
_audit_creation_method            'Materials Studio'
_symmetry_space_group_name_H-M    'P1'
_symmetry_Int_Tables_number       1
_symmetry_cell_setting            triclinic
loop_
_symmetry_equiv_pos_as_xyz
  x,y,z
_cell_length_a                    22.2659
_cell_length_b                    26.0837
_cell_length_c                    26.7981
_cell_angle_alpha                 94.0278
_cell_angle_beta                  77.0682
_cell_angle_gamma                 103.1869
loop_
_atom_site_label
_atom_site_type_symbol
_atom_site_fract_x
_atom_site_fract_y
_atom_site_fract_z
_atom_site_U_iso_or_equiv
_atom_site_adp_type
_atom_site_occupancy
C1     C     0.18180   0.26675   0.25149   0.00000  Uiso   1.00
C2     C     0.11162   0.16414   0.40353   0.00000  Uiso   1.00
C3     C     0.19033   0.32270   0.25220   0.00000  Uiso   1.00
C4     C     0.13292   0.16576   0.34730   0.00000  Uiso   1.00
C5     C     0.14307   0.01062   0.24762   0.00000  Uiso   1.00
C6     C     0.15156   0.06659   0.24845   0.00000  Uiso   1.00
C7     C     0.20113   0.17089   0.15271   0.00000  Uiso   1.00
C8     C     0.29290   0.22824   0.02465   0.00000  Uiso   1.00
C9     C     0.22281   0.17979   0.09706   0.00000  Uiso   1.00
C10    C     0.05068   0.13577   0.42448   0.00000  Uiso   1.00
C11    C     0.03335   0.12410   0.47616   0.00000  Uiso   1.00
C12    C     0.13893   0.16806   0.48777   0.00000  Uiso   1.00
C13    C     0.07714   0.13851   0.00725   0.00000  Uiso   1.00
C14    C     0.00275   0.22623   0.10107   0.00000  Uiso   1.00
C15    C     0.15404   0.18458   0.43621   0.00000  Uiso   1.00
C16    C     0.18629   0.18191   0.01752   0.00000  Uiso   1.00
C17    C     0.24529   0.21508   0.49662   0.00000  Uiso   1.00
C18    C     0.25625   0.23555   0.44800   0.00000  Uiso   1.00
C19    C     0.21100   0.22129   0.41859   0.00000  Uiso   1.00
C20    C     0.17700   0.16382   0.06736   0.00000  Uiso   1.00
C21    C     0.28289   0.21047   0.07449   0.00000  Uiso   1.00
Cu22   Cu    0.10710   0.16105   0.24436   0.00000  Uiso   1.00
Cu23   Cu    0.22623   0.17228   0.25565   0.00000  Uiso   1.00
H24    H     0.00368   0.20600   0.28952   0.00000  Uiso   1.00
H25    H     0.07257   0.28440   0.11802   0.00000  Uiso   1.00
H26    H     0.09753   0.32014   0.24325   0.00000  Uiso   1.00
H27    H     0.30021   0.26270   0.43247   0.00000  Uiso   1.00
H28    H     0.32960   0.12723   0.21058   0.00000  Uiso   1.00
H29    H     0.00500   0.25260   0.00750   0.00000  Uiso   1.00
H30    H     0.13349   0.13785   0.08478   0.00000  Uiso   1.00
H31    H     0.01706   0.12078   0.40048   0.00000  Uiso   1.00
H32    H     0.06057   0.12659   0.04647   0.00000  Uiso   1.00
H33    H     0.31954   0.10198   0.49193   0.00000  Uiso   1.00
H34    H     0.22101   0.24019   0.38211   0.00000  Uiso   1.00
H35    H     0.23587   0.01319   0.25655   0.00000  Uiso   1.00
N36    N     0.31574   0.18074   0.26416   0.00000  Uiso   1.00
N37    N     0.01759   0.15259   0.23584   0.00000  Uiso   1.00
O38    O     0.12797   0.23807   0.24633   0.00000  Uiso   1.00
O39    O     0.03646   0.27856   0.09950   0.00000  Uiso   1.00
O40    O     0.22858   0.24755   0.25587   0.00000  Uiso   1.00
O41    O     0.09181   0.15960   0.31840   0.00000  Uiso   1.00
O42    O     0.19242   0.16908   0.32793   0.00000  Uiso   1.00
O43    O     0.10476   0.08578   0.24414   0.00000  Uiso   1.00
O44    O     0.20536   0.09526   0.25367   0.00000  Uiso   1.00
O45    O     0.14092   0.16425   0.17207   0.00000  Uiso   1.00
O46    O     0.24152   0.17373   0.18161   0.00000  Uiso   1.00
O47    O     0.01945   0.19324   0.12182   0.00000  Uiso   1.00
C48    C     0.51513   0.26675   0.25149   0.00000  Uiso   1.00
C49    C     0.44496   0.16414   0.40353   0.00000  Uiso   1.00
C50    C     0.52366   0.32270   0.25220   0.00000  Uiso   1.00
C51    C     0.46625   0.16576   0.34730   0.00000  Uiso   1.00
C52    C     0.47640   0.01062   0.24762   0.00000  Uiso   1.00
C53    C     0.48489   0.06659   0.24845   0.00000  Uiso   1.00
C54    C     0.53446   0.17089   0.15271   0.00000  Uiso   1.00
C55    C     0.62623   0.22824   0.02465   0.00000  Uiso   1.00
C56    C     0.55614   0.17979   0.09706   0.00000  Uiso   1.00
C57    C     0.38402   0.13577   0.42448   0.00000  Uiso   1.00
C58    C     0.36668   0.12410   0.47616   0.00000  Uiso   1.00
C59    C     0.47227   0.16806   0.48777   0.00000  Uiso   1.00
C60    C     0.41048   0.13851   0.00725   0.00000  Uiso   1.00
C61    C     0.33609   0.22623   0.10107   0.00000  Uiso   1.00
C62    C     0.48737   0.18458   0.43621   0.00000  Uiso   1.00
C63    C     0.51962   0.18191   0.01752   0.00000  Uiso   1.00
C64    C     0.57863   0.21508   0.49662   0.00000  Uiso   1.00
C65    C     0.58958   0.23555   0.44800   0.00000  Uiso   1.00
C66    C     0.54434   0.22129   0.41859   0.00000  Uiso   1.00
C67    C     0.51034   0.16382   0.06736   0.00000  Uiso   1.00
C68    C     0.61623   0.21047   0.07449   0.00000  Uiso   1.00
Cu69   Cu    0.44043   0.16105   0.24436   0.00000  Uiso   1.00
Cu70   Cu    0.55957   0.17228   0.25565   0.00000  Uiso   1.00
H71    H     0.33701   0.20600   0.28952   0.00000  Uiso   1.00
H72    H     0.40591   0.28440   0.11802   0.00000  Uiso   1.00
H73    H     0.43086   0.32014   0.24325   0.00000  Uiso   1.00
H74    H     0.63354   0.26270   0.43247   0.00000  Uiso   1.00
H75    H     0.66293   0.12723   0.21058   0.00000  Uiso   1.00
H76    H     0.33834   0.25260   0.00750   0.00000  Uiso   1.00
H77    H     0.46682   0.13785   0.08478   0.00000  Uiso   1.00
H78    H     0.35040   0.12078   0.40048   0.00000  Uiso   1.00
H79    H     0.39390   0.12659   0.04647   0.00000  Uiso   1.00
H80    H     0.65287   0.10198   0.49193   0.00000  Uiso   1.00
H81    H     0.55435   0.24019   0.38211   0.00000  Uiso   1.00
H82    H     0.56921   0.01319   0.25655   0.00000  Uiso   1.00
N83    N     0.64908   0.18074   0.26416   0.00000  Uiso   1.00
N84    N     0.35092   0.15259   0.23584   0.00000  Uiso   1.00
O85    O     0.46131   0.23807   0.24633   0.00000  Uiso   1.00
O86    O     0.36979   0.27856   0.09950   0.00000  Uiso   1.00
O87    O     0.56191   0.24755   0.25587   0.00000  Uiso   1.00
O88    O     0.42515   0.15960   0.31840   0.00000  Uiso   1.00
O89    O     0.52575   0.16908   0.32793   0.00000  Uiso   1.00
O90    O     0.43809   0.08578   0.24414   0.00000  Uiso   1.00
O91    O     0.53869   0.09526   0.25367   0.00000  Uiso   1.00
O92    O     0.47425   0.16425   0.17207   0.00000  Uiso   1.00
O93    O     0.57485   0.17373   0.18161   0.00000  Uiso   1.00
O94    O     0.35279   0.19324   0.12182   0.00000  Uiso   1.00
C95    C     0.84847   0.26675   0.25149   0.00000  Uiso   1.00
C96    C     0.77829   0.16414   0.40353   0.00000  Uiso   1.00
C97    C     0.85700   0.32270   0.25220   0.00000  Uiso   1.00
C98    C     0.79959   0.16576   0.34730   0.00000  Uiso   1.00
C99    C     0.80973   0.01062   0.24762   0.00000  Uiso   1.00
C100   C     0.81823   0.06659   0.24845   0.00000  Uiso   1.00
C101   C     0.86779   0.17089   0.15271   0.00000  Uiso   1.00
C102   C     0.95957   0.22824   0.02465   0.00000  Uiso   1.00
C103   C     0.88947   0.17979   0.09706   0.00000  Uiso   1.00
C104   C     0.71735   0.13577   0.42448   0.00000  Uiso   1.00
C105   C     0.70001   0.12410   0.47616   0.00000  Uiso   1.00
C106   C     0.80560   0.16806   0.48777   0.00000  Uiso   1.00
C107   C     0.74381   0.13851   0.00725   0.00000  Uiso   1.00
C108   C     0.66942   0.22623   0.10107   0.00000  Uiso   1.00
C109   C     0.82071   0.18458   0.43621   0.00000  Uiso   1.00
C110   C     0.85296   0.18191   0.01752   0.00000  Uiso   1.00
C111   C     0.91196   0.21508   0.49662   0.00000  Uiso   1.00
C112   C     0.92291   0.23555   0.44800   0.00000  Uiso   1.00
C113   C     0.87767   0.22129   0.41859   0.00000  Uiso   1.00
C114   C     0.84367   0.16382   0.06736   0.00000  Uiso   1.00
C115   C     0.94956   0.21047   0.07449   0.00000  Uiso   1.00
Cu116  Cu    0.77377   0.16105   0.24436   0.00000  Uiso   1.00
Cu117  Cu    0.89290   0.17228   0.25565   0.00000  Uiso   1.00
H118   H     0.67034   0.20600   0.28952   0.00000  Uiso   1.00
H119   H     0.73924   0.28440   0.11802   0.00000  Uiso   1.00
H120   H     0.76420   0.32014   0.24325   0.00000  Uiso   1.00
H121   H     0.96688   0.26270   0.43247   0.00000  Uiso   1.00
H122   H     0.99626   0.12723   0.21058   0.00000  Uiso   1.00
H123   H     0.67167   0.25260   0.00750   0.00000  Uiso   1.00
H124   H     0.80016   0.13785   0.08478   0.00000  Uiso   1.00
H125   H     0.68373   0.12078   0.40048   0.00000  Uiso   1.00
H126   H     0.72723   0.12659   0.04647   0.00000  Uiso   1.00
H127   H     0.98620   0.10198   0.49193   0.00000  Uiso   1.00
H128   H     0.88768   0.24019   0.38211   0.00000  Uiso   1.00
H129   H     0.90254   0.01319   0.25655   0.00000  Uiso   1.00
N130   N     0.98241   0.18074   0.26416   0.00000  Uiso   1.00
N131   N     0.68426   0.15259   0.23584   0.00000  Uiso   1.00
O132   O     0.79464   0.23807   0.24633   0.00000  Uiso   1.00
O133   O     0.70312   0.27856   0.09950   0.00000  Uiso   1.00
O134   O     0.89524   0.24755   0.25587   0.00000  Uiso   1.00
O135   O     0.75848   0.15960   0.31840   0.00000  Uiso   1.00
O136   O     0.85908   0.16908   0.32793   0.00000  Uiso   1.00
O137   O     0.77142   0.08578   0.24414   0.00000  Uiso   1.00
O138   O     0.87203   0.09526   0.25367   0.00000  Uiso   1.00
O139   O     0.80758   0.16425   0.17207   0.00000  Uiso   1.00
O140   O     0.90819   0.17373   0.18161   0.00000  Uiso   1.00
O141   O     0.68612   0.19324   0.12182   0.00000  Uiso   1.00
C142   C     0.18180   0.60008   0.25149   0.00000  Uiso   1.00
C143   C     0.11162   0.49747   0.40353   0.00000  Uiso   1.00
C144   C     0.19033   0.65603   0.25220   0.00000  Uiso   1.00
C145   C     0.13292   0.49910   0.34730   0.00000  Uiso   1.00
C146   C     0.14307   0.34396   0.24762   0.00000  Uiso   1.00
C147   C     0.15156   0.39992   0.24845   0.00000  Uiso   1.00
C148   C     0.20113   0.50422   0.15271   0.00000  Uiso   1.00
C149   C     0.29290   0.56157   0.02465   0.00000  Uiso   1.00
C150   C     0.22281   0.51312   0.09706   0.00000  Uiso   1.00
C151   C     0.05068   0.46911   0.42448   0.00000  Uiso   1.00
C152   C     0.03335   0.45743   0.47616   0.00000  Uiso   1.00
C153   C     0.13893   0.50139   0.48777   0.00000  Uiso   1.00
C154   C     0.07714   0.47185   0.00725   0.00000  Uiso   1.00
C155   C     0.00275   0.55957   0.10107   0.00000  Uiso   1.00
C156   C     0.15404   0.51792   0.43621   0.00000  Uiso   1.00
C157   C     0.18629   0.51524   0.01752   0.00000  Uiso   1.00
C158   C     0.24529   0.54842   0.49662   0.00000  Uiso   1.00
C159   C     0.25625   0.56888   0.44800   0.00000  Uiso   1.00
C160   C     0.21100   0.55463   0.41859   0.00000  Uiso   1.00
C161   C     0.17700   0.49715   0.06736   0.00000  Uiso   1.00
C162   C     0.28289   0.54381   0.07449   0.00000  Uiso   1.00
Cu163  Cu    0.10710   0.49439   0.24436   0.00000  Uiso   1.00
Cu164  Cu    0.22623   0.50561   0.25565   0.00000  Uiso   1.00
H165   H     0.00368   0.53934   0.28952   0.00000  Uiso   1.00
H166   H     0.07257   0.61774   0.11802   0.00000  Uiso   1.00
H167   H     0.09753   0.65347   0.24325   0.00000  Uiso   1.00
H168   H     0.30021   0.59603   0.43247   0.00000  Uiso   1.00
H169   H     0.32960   0.46057   0.21058   0.00000  Uiso   1.00
H170   H     0.00500   0.58594   0.00750   0.00000  Uiso   1.00
H171   H     0.13349   0.47118   0.08478   0.00000  Uiso   1.00
H172   H     0.01706   0.45411   0.40048   0.00000  Uiso   1.00
H173   H     0.06057   0.45992   0.04647   0.00000  Uiso   1.00
H174   H     0.31954   0.43531   0.49193   0.00000  Uiso   1.00
H175   H     0.22101   0.57353   0.38211   0.00000  Uiso   1.00
H176   H     0.23587   0.34652   0.25655   0.00000  Uiso   1.00
N177   N     0.31574   0.51407   0.26416   0.00000  Uiso   1.00
N178   N     0.01759   0.48593   0.23584   0.00000  Uiso   1.00
O179   O     0.12797   0.57141   0.24633   0.00000  Uiso   1.00
O180   O     0.03646   0.61190   0.09950   0.00000  Uiso   1.00
O181   O     0.22858   0.58089   0.25587   0.00000  Uiso   1.00
O182   O     0.09181   0.49293   0.31840   0.00000  Uiso   1.00
O183   O     0.19242   0.50241   0.32793   0.00000  Uiso   1.00
O184   O     0.10476   0.41911   0.24414   0.00000  Uiso   1.00
O185   O     0.20536   0.42859   0.25367   0.00000  Uiso   1.00
O186   O     0.14092   0.49759   0.17207   0.00000  Uiso   1.00
O187   O     0.24152   0.50707   0.18161   0.00000  Uiso   1.00
O188   O     0.01945   0.52658   0.12182   0.00000  Uiso   1.00
C189   C     0.51513   0.60008   0.25149   0.00000  Uiso   1.00
C190   C     0.44496   0.49747   0.40353   0.00000  Uiso   1.00
C191   C     0.52366   0.65603   0.25220   0.00000  Uiso   1.00
C192   C     0.46625   0.49910   0.34730   0.00000  Uiso   1.00
C193   C     0.47640   0.34396   0.24762   0.00000  Uiso   1.00
C194   C     0.48489   0.39992   0.24845   0.00000  Uiso   1.00
C195   C     0.53446   0.50422   0.15271   0.00000  Uiso   1.00
C196   C     0.62623   0.56157   0.02465   0.00000  Uiso   1.00
C197   C     0.55614   0.51312   0.09706   0.00000  Uiso   1.00
C198   C     0.38402   0.46911   0.42448   0.00000  Uiso   1.00
C199   C     0.36668   0.45743   0.47616   0.00000  Uiso   1.00
C200   C     0.47227   0.50139   0.48777   0.00000  Uiso   1.00
C201   C     0.41048   0.47185   0.00725   0.00000  Uiso   1.00
C202   C     0.33609   0.55957   0.10107   0.00000  Uiso   1.00
C203   C     0.48737   0.51792   0.43621   0.00000  Uiso   1.00
C204   C     0.51962   0.51524   0.01752   0.00000  Uiso   1.00
C205   C     0.57863   0.54842   0.49662   0.00000  Uiso   1.00
C206   C     0.58958   0.56888   0.44800   0.00000  Uiso   1.00
C207   C     0.54434   0.55463   0.41859   0.00000  Uiso   1.00
C208   C     0.51034   0.49715   0.06736   0.00000  Uiso   1.00
C209   C     0.61623   0.54381   0.07449   0.00000  Uiso   1.00
Cu210  Cu    0.44043   0.49439   0.24436   0.00000  Uiso   1.00
Cu211  Cu    0.55957   0.50561   0.25565   0.00000  Uiso   1.00
H212   H     0.33701   0.53934   0.28952   0.00000  Uiso   1.00
H213   H     0.40591   0.61774   0.11802   0.00000  Uiso   1.00
H214   H     0.43086   0.65347   0.24325   0.00000  Uiso   1.00
H215   H     0.63354   0.59603   0.43247   0.00000  Uiso   1.00
H216   H     0.66293   0.46057   0.21058   0.00000  Uiso   1.00
H217   H     0.33834   0.58594   0.00750   0.00000  Uiso   1.00
H218   H     0.46682   0.47118   0.08478   0.00000  Uiso   1.00
H219   H     0.35040   0.45411   0.40048   0.00000  Uiso   1.00
H220   H     0.39390   0.45992   0.04647   0.00000  Uiso   1.00
H221   H     0.65287   0.43531   0.49193   0.00000  Uiso   1.00
H222   H     0.55435   0.57353   0.38211   0.00000  Uiso   1.00
H223   H     0.56921   0.34652   0.25655   0.00000  Uiso   1.00
N224   N     0.64908   0.51407   0.26416   0.00000  Uiso   1.00
N225   N     0.35092   0.48593   0.23584   0.00000  Uiso   1.00
O226   O     0.46131   0.57141   0.24633   0.00000  Uiso   1.00
O227   O     0.36979   0.61190   0.09950   0.00000  Uiso   1.00
O228   O     0.56191   0.58089   0.25587   0.00000  Uiso   1.00
O229   O     0.42515   0.49293   0.31840   0.00000  Uiso   1.00
O230   O     0.52575   0.50241   0.32793   0.00000  Uiso   1.00
O231   O     0.43809   0.41911   0.24414   0.00000  Uiso   1.00
O232   O     0.53869   0.42859   0.25367   0.00000  Uiso   1.00
O233   O     0.47425   0.49759   0.17207   0.00000  Uiso   1.00
O234   O     0.57485   0.50707   0.18161   0.00000  Uiso   1.00
O235   O     0.35279   0.52658   0.12182   0.00000  Uiso   1.00
C236   C     0.84847   0.60008   0.25149   0.00000  Uiso   1.00
C237   C     0.77829   0.49747   0.40353   0.00000  Uiso   1.00
C238   C     0.85700   0.65603   0.25220   0.00000  Uiso   1.00
C239   C     0.79959   0.49910   0.34730   0.00000  Uiso   1.00
C240   C     0.80973   0.34396   0.24762   0.00000  Uiso   1.00
C241   C     0.81823   0.39992   0.24845   0.00000  Uiso   1.00
C242   C     0.86779   0.50422   0.15271   0.00000  Uiso   1.00
C243   C     0.95957   0.56157   0.02465   0.00000  Uiso   1.00
C244   C     0.88947   0.51312   0.09706   0.00000  Uiso   1.00
C245   C     0.71735   0.46911   0.42448   0.00000  Uiso   1.00
C246   C     0.70001   0.45743   0.47616   0.00000  Uiso   1.00
C247   C     0.80560   0.50139   0.48777   0.00000  Uiso   1.00
C248   C     0.74381   0.47185   0.00725   0.00000  Uiso   1.00
C249   C     0.66942   0.55957   0.10107   0.00000  Uiso   1.00
C250   C     0.82071   0.51792   0.43621   0.00000  Uiso   1.00
C251   C     0.85296   0.51524   0.01752   0.00000  Uiso   1.00
C252   C     0.91196   0.54842   0.49662   0.00000  Uiso   1.00
C253   C     0.92291   0.56888   0.44800   0.00000  Uiso   1.00
C254   C     0.87767   0.55463   0.41859   0.00000  Uiso   1.00
C255   C     0.84367   0.49715   0.06736   0.00000  Uiso   1.00
C256   C     0.94956   0.54381   0.07449   0.00000  Uiso   1.00
Cu257  Cu    0.77377   0.49439   0.24436   0.00000  Uiso   1.00
Cu258  Cu    0.89290   0.50561   0.25565   0.00000  Uiso   1.00
H259   H     0.67034   0.53934   0.28952   0.00000  Uiso   1.00
H260   H     0.73924   0.61774   0.11802   0.00000  Uiso   1.00
H261   H     0.76420   0.65347   0.24325   0.00000  Uiso   1.00
H262   H     0.96688   0.59603   0.43247   0.00000  Uiso   1.00
H263   H     0.99626   0.46057   0.21058   0.00000  Uiso   1.00
H264   H     0.67167   0.58594   0.00750   0.00000  Uiso   1.00
H265   H     0.80016   0.47118   0.08478   0.00000  Uiso   1.00
H266   H     0.68373   0.45411   0.40048   0.00000  Uiso   1.00
H267   H     0.72723   0.45992   0.04647   0.00000  Uiso   1.00
H268   H     0.98620   0.43531   0.49193   0.00000  Uiso   1.00
H269   H     0.88768   0.57353   0.38211   0.00000  Uiso   1.00
H270   H     0.90254   0.34652   0.25655   0.00000  Uiso   1.00
N271   N     0.98241   0.51407   0.26416   0.00000  Uiso   1.00
N272   N     0.68426   0.48593   0.23584   0.00000  Uiso   1.00
O273   O     0.79464   0.57141   0.24633   0.00000  Uiso   1.00
O274   O     0.70312   0.61190   0.09950   0.00000  Uiso   1.00
O275   O     0.89524   0.58089   0.25587   0.00000  Uiso   1.00
O276   O     0.75848   0.49293   0.31840   0.00000  Uiso   1.00
O277   O     0.85908   0.50241   0.32793   0.00000  Uiso   1.00
O278   O     0.77142   0.41911   0.24414   0.00000  Uiso   1.00
O279   O     0.87203   0.42859   0.25367   0.00000  Uiso   1.00
O280   O     0.80758   0.49759   0.17207   0.00000  Uiso   1.00
O281   O     0.90819   0.50707   0.18161   0.00000  Uiso   1.00
O282   O     0.68612   0.52658   0.12182   0.00000  Uiso   1.00
C283   C     0.18180   0.93341   0.25149   0.00000  Uiso   1.00
C284   C     0.11162   0.83080   0.40353   0.00000  Uiso   1.00
C285   C     0.19033   0.98937   0.25220   0.00000  Uiso   1.00
C286   C     0.13292   0.83243   0.34730   0.00000  Uiso   1.00
C287   C     0.14307   0.67729   0.24762   0.00000  Uiso   1.00
C288   C     0.15156   0.73325   0.24845   0.00000  Uiso   1.00
C289   C     0.20113   0.83756   0.15271   0.00000  Uiso   1.00
C290   C     0.29290   0.89490   0.02465   0.00000  Uiso   1.00
C291   C     0.22281   0.84645   0.09706   0.00000  Uiso   1.00
C292   C     0.05068   0.80244   0.42448   0.00000  Uiso   1.00
C293   C     0.03335   0.79077   0.47616   0.00000  Uiso   1.00
C294   C     0.13893   0.83473   0.48777   0.00000  Uiso   1.00
C295   C     0.07714   0.80518   0.00725   0.00000  Uiso   1.00
C296   C     0.00275   0.89290   0.10107   0.00000  Uiso   1.00
C297   C     0.15404   0.85125   0.43621   0.00000  Uiso   1.00
C298   C     0.18629   0.84857   0.01752   0.00000  Uiso   1.00
C299   C     0.24529   0.88175   0.49662   0.00000  Uiso   1.00
C300   C     0.25625   0.90221   0.44800   0.00000  Uiso   1.00
C301   C     0.21100   0.88796   0.41859   0.00000  Uiso   1.00
C302   C     0.17700   0.83048   0.06736   0.00000  Uiso   1.00
C303   C     0.28289   0.87714   0.07449   0.00000  Uiso   1.00
Cu304  Cu    0.10710   0.82772   0.24436   0.00000  Uiso   1.00
Cu305  Cu    0.22623   0.83895   0.25565   0.00000  Uiso   1.00
H306   H     0.00368   0.87267   0.28952   0.00000  Uiso   1.00
H307   H     0.07257   0.95107   0.11802   0.00000  Uiso   1.00
H308   H     0.09753   0.98680   0.24325   0.00000  Uiso   1.00
H309   H     0.30021   0.92936   0.43247   0.00000  Uiso   1.00
H310   H     0.32960   0.79390   0.21058   0.00000  Uiso   1.00
H311   H     0.00500   0.91927   0.00750   0.00000  Uiso   1.00
H312   H     0.13349   0.80451   0.08478   0.00000  Uiso   1.00
H313   H     0.01706   0.78744   0.40048   0.00000  Uiso   1.00
H314   H     0.06057   0.79326   0.04647   0.00000  Uiso   1.00
H315   H     0.31954   0.76865   0.49193   0.00000  Uiso   1.00
H316   H     0.22101   0.90686   0.38211   0.00000  Uiso   1.00
H317   H     0.23587   0.67985   0.25655   0.00000  Uiso   1.00
N318   N     0.31574   0.84741   0.26416   0.00000  Uiso   1.00
N319   N     0.01759   0.81926   0.23584   0.00000  Uiso   1.00
O320   O     0.12797   0.90474   0.24633   0.00000  Uiso   1.00
O321   O     0.03646   0.94523   0.09950   0.00000  Uiso   1.00
O322   O     0.22858   0.91422   0.25587   0.00000  Uiso   1.00
O323   O     0.09181   0.82627   0.31840   0.00000  Uiso   1.00
O324   O     0.19242   0.83575   0.32793   0.00000  Uiso   1.00
O325   O     0.10476   0.75245   0.24414   0.00000  Uiso   1.00
O326   O     0.20536   0.76193   0.25367   0.00000  Uiso   1.00
O327   O     0.14092   0.83092   0.17207   0.00000  Uiso   1.00
O328   O     0.24152   0.84040   0.18161   0.00000  Uiso   1.00
O329   O     0.01945   0.85991   0.12182   0.00000  Uiso   1.00
C330   C     0.51513   0.93341   0.25149   0.00000  Uiso   1.00
C331   C     0.44496   0.83080   0.40353   0.00000  Uiso   1.00
C332   C     0.52366   0.98937   0.25220   0.00000  Uiso   1.00
C333   C     0.46625   0.83243   0.34730   0.00000  Uiso   1.00
C334   C     0.47640   0.67729   0.24762   0.00000  Uiso   1.00
C335   C     0.48489   0.73325   0.24845   0.00000  Uiso   1.00
C336   C     0.53446   0.83756   0.15271   0.00000  Uiso   1.00
C337   C     0.62623   0.89490   0.02465   0.00000  Uiso   1.00
C338   C     0.55614   0.84645   0.09706   0.00000  Uiso   1.00
C339   C     0.38402   0.80244   0.42448   0.00000  Uiso   1.00
C340   C     0.36668   0.79077   0.47616   0.00000  Uiso   1.00
C341   C     0.47227   0.83473   0.48777   0.00000  Uiso   1.00
C342   C     0.41048   0.80518   0.00725   0.00000  Uiso   1.00
C343   C     0.33609   0.89290   0.10107   0.00000  Uiso   1.00
C344   C     0.48737   0.85125   0.43621   0.00000  Uiso   1.00
C345   C     0.51962   0.84857   0.01752   0.00000  Uiso   1.00
C346   C     0.57863   0.88175   0.49662   0.00000  Uiso   1.00
C347   C     0.58958   0.90221   0.44800   0.00000  Uiso   1.00
C348   C     0.54434   0.88796   0.41859   0.00000  Uiso   1.00
C349   C     0.51034   0.83048   0.06736   0.00000  Uiso   1.00
C350   C     0.61623   0.87714   0.07449   0.00000  Uiso   1.00
Cu351  Cu    0.44043   0.82772   0.24436   0.00000  Uiso   1.00
Cu352  Cu    0.55957   0.83895   0.25565   0.00000  Uiso   1.00
H353   H     0.33701   0.87267   0.28952   0.00000  Uiso   1.00
H354   H     0.40591   0.95107   0.11802   0.00000  Uiso   1.00
H355   H     0.43086   0.98680   0.24325   0.00000  Uiso   1.00
H356   H     0.63354   0.92936   0.43247   0.00000  Uiso   1.00
H357   H     0.66293   0.79390   0.21058   0.00000  Uiso   1.00
H358   H     0.33834   0.91927   0.00750   0.00000  Uiso   1.00
H359   H     0.46682   0.80451   0.08478   0.00000  Uiso   1.00
H360   H     0.35040   0.78744   0.40048   0.00000  Uiso   1.00
H361   H     0.39390   0.79326   0.04647   0.00000  Uiso   1.00
H362   H     0.65287   0.76865   0.49193   0.00000  Uiso   1.00
H363   H     0.55435   0.90686   0.38211   0.00000  Uiso   1.00
H364   H     0.56921   0.67985   0.25655   0.00000  Uiso   1.00
N365   N     0.64908   0.84741   0.26416   0.00000  Uiso   1.00
N366   N     0.35092   0.81926   0.23584   0.00000  Uiso   1.00
O367   O     0.46131   0.90474   0.24633   0.00000  Uiso   1.00
O368   O     0.36979   0.94523   0.09950   0.00000  Uiso   1.00
O369   O     0.56191   0.91422   0.25587   0.00000  Uiso   1.00
O370   O     0.42515   0.82627   0.31840   0.00000  Uiso   1.00
O371   O     0.52575   0.83575   0.32793   0.00000  Uiso   1.00
O372   O     0.43809   0.75245   0.24414   0.00000  Uiso   1.00
O373   O     0.53869   0.76193   0.25367   0.00000  Uiso   1.00
O374   O     0.47425   0.83092   0.17207   0.00000  Uiso   1.00
O375   O     0.57485   0.84040   0.18161   0.00000  Uiso   1.00
O376   O     0.35279   0.85991   0.12182   0.00000  Uiso   1.00
C377   C     0.84847   0.93341   0.25149   0.00000  Uiso   1.00
C378   C     0.77829   0.83080   0.40353   0.00000  Uiso   1.00
C379   C     0.85700   0.98937   0.25220   0.00000  Uiso   1.00
C380   C     0.79959   0.83243   0.34730   0.00000  Uiso   1.00
C381   C     0.80973   0.67729   0.24762   0.00000  Uiso   1.00
C382   C     0.81823   0.73325   0.24845   0.00000  Uiso   1.00
C383   C     0.86779   0.83756   0.15271   0.00000  Uiso   1.00
C384   C     0.95957   0.89490   0.02465   0.00000  Uiso   1.00
C385   C     0.88947   0.84645   0.09706   0.00000  Uiso   1.00
C386   C     0.71735   0.80244   0.42448   0.00000  Uiso   1.00
C387   C     0.70001   0.79077   0.47616   0.00000  Uiso   1.00
C388   C     0.80560   0.83473   0.48777   0.00000  Uiso   1.00
C389   C     0.74381   0.80518   0.00725   0.00000  Uiso   1.00
C390   C     0.66942   0.89290   0.10107   0.00000  Uiso   1.00
C391   C     0.82071   0.85125   0.43621   0.00000  Uiso   1.00
C392   C     0.85296   0.84857   0.01752   0.00000  Uiso   1.00
C393   C     0.91196   0.88175   0.49662   0.00000  Uiso   1.00
C394   C     0.92291   0.90221   0.44800   0.00000  Uiso   1.00
C395   C     0.87767   0.88796   0.41859   0.00000  Uiso   1.00
C396   C     0.84367   0.83048   0.06736   0.00000  Uiso   1.00
C397   C     0.94956   0.87714   0.07449   0.00000  Uiso   1.00
Cu398  Cu    0.77377   0.82772   0.24436   0.00000  Uiso   1.00
Cu399  Cu    0.89290   0.83895   0.25565   0.00000  Uiso   1.00
H400   H     0.67034   0.87267   0.28952   0.00000  Uiso   1.00
H401   H     0.73924   0.95107   0.11802   0.00000  Uiso   1.00
H402   H     0.76420   0.98680   0.24325   0.00000  Uiso   1.00
H403   H     0.96688   0.92936   0.43247   0.00000  Uiso   1.00
H404   H     0.99626   0.79390   0.21058   0.00000  Uiso   1.00
H405   H     0.67167   0.91927   0.00750   0.00000  Uiso   1.00
H406   H     0.80016   0.80451   0.08478   0.00000  Uiso   1.00
H407   H     0.68373   0.78744   0.40048   0.00000  Uiso   1.00
H408   H     0.72723   0.79326   0.04647   0.00000  Uiso   1.00
H409   H     0.98620   0.76865   0.49193   0.00000  Uiso   1.00
H410   H     0.88768   0.90686   0.38211   0.00000  Uiso   1.00
H411   H     0.90254   0.67985   0.25655   0.00000  Uiso   1.00
N412   N     0.98241   0.84741   0.26416   0.00000  Uiso   1.00
N413   N     0.68426   0.81926   0.23584   0.00000  Uiso   1.00
O414   O     0.79464   0.90474   0.24633   0.00000  Uiso   1.00
O415   O     0.70312   0.94523   0.09950   0.00000  Uiso   1.00
O416   O     0.89524   0.91422   0.25587   0.00000  Uiso   1.00
O417   O     0.75848   0.82627   0.31840   0.00000  Uiso   1.00
O418   O     0.85908   0.83575   0.32793   0.00000  Uiso   1.00
O419   O     0.77142   0.75245   0.24414   0.00000  Uiso   1.00
O420   O     0.87203   0.76193   0.25367   0.00000  Uiso   1.00
O421   O     0.80758   0.83092   0.17207   0.00000  Uiso   1.00
O422   O     0.90819   0.84040   0.18161   0.00000  Uiso   1.00
O423   O     0.68612   0.85991   0.12182   0.00000  Uiso   1.00
C424   C     0.18180   0.26675   0.75149   0.00000  Uiso   1.00
C425   C     0.11162   0.16414   0.90353   0.00000  Uiso   1.00
C426   C     0.19033   0.32270   0.75220   0.00000  Uiso   1.00
C427   C     0.13292   0.16576   0.84730   0.00000  Uiso   1.00
C428   C     0.14307   0.01062   0.74762   0.00000  Uiso   1.00
C429   C     0.15156   0.06659   0.74845   0.00000  Uiso   1.00
C430   C     0.20113   0.17089   0.65271   0.00000  Uiso   1.00
C431   C     0.29290   0.22824   0.52465   0.00000  Uiso   1.00
C432   C     0.22281   0.17979   0.59706   0.00000  Uiso   1.00
C433   C     0.05068   0.13577   0.92448   0.00000  Uiso   1.00
C434   C     0.03335   0.12410   0.97616   0.00000  Uiso   1.00
C435   C     0.13893   0.16806   0.98777   0.00000  Uiso   1.00
C436   C     0.07714   0.13851   0.50725   0.00000  Uiso   1.00
C437   C     0.00275   0.22623   0.60107   0.00000  Uiso   1.00
C438   C     0.15404   0.18458   0.93621   0.00000  Uiso   1.00
C439   C     0.18629   0.18191   0.51752   0.00000  Uiso   1.00
C440   C     0.24529   0.21508   0.99662   0.00000  Uiso   1.00
C441   C     0.25625   0.23555   0.94800   0.00000  Uiso   1.00
C442   C     0.21100   0.22129   0.91859   0.00000  Uiso   1.00
C443   C     0.17700   0.16382   0.56736   0.00000  Uiso   1.00
C444   C     0.28289   0.21047   0.57449   0.00000  Uiso   1.00
Cu445  Cu    0.10710   0.16105   0.74436   0.00000  Uiso   1.00
Cu446  Cu    0.22623   0.17228   0.75565   0.00000  Uiso   1.00
H447   H     0.00368   0.20600   0.78952   0.00000  Uiso   1.00
H448   H     0.07257   0.28440   0.61802   0.00000  Uiso   1.00
H449   H     0.09753   0.32014   0.74325   0.00000  Uiso   1.00
H450   H     0.30021   0.26270   0.93247   0.00000  Uiso   1.00
H451   H     0.32960   0.12723   0.71058   0.00000  Uiso   1.00
H452   H     0.00500   0.25260   0.50750   0.00000  Uiso   1.00
H453   H     0.13349   0.13785   0.58478   0.00000  Uiso   1.00
H454   H     0.01706   0.12078   0.90048   0.00000  Uiso   1.00
H455   H     0.06057   0.12659   0.54647   0.00000  Uiso   1.00
H456   H     0.31954   0.10198   0.99193   0.00000  Uiso   1.00
H457   H     0.22101   0.24019   0.88211   0.00000  Uiso   1.00
H458   H     0.23587   0.01319   0.75655   0.00000  Uiso   1.00
N459   N     0.31574   0.18074   0.76416   0.00000  Uiso   1.00
N460   N     0.01759   0.15259   0.73584   0.00000  Uiso   1.00
O461   O     0.12797   0.23807   0.74633   0.00000  Uiso   1.00
O462   O     0.03646   0.27856   0.59950   0.00000  Uiso   1.00
O463   O     0.22858   0.24755   0.75587   0.00000  Uiso   1.00
O464   O     0.09181   0.15960   0.81840   0.00000  Uiso   1.00
O465   O     0.19242   0.16908   0.82793   0.00000  Uiso   1.00
O466   O     0.10476   0.08578   0.74414   0.00000  Uiso   1.00
O467   O     0.20536   0.09526   0.75367   0.00000  Uiso   1.00
O468   O     0.14092   0.16425   0.67207   0.00000  Uiso   1.00
O469   O     0.24152   0.17373   0.68161   0.00000  Uiso   1.00
O470   O     0.01945   0.19324   0.62182   0.00000  Uiso   1.00
C471   C     0.51513   0.26675   0.75149   0.00000  Uiso   1.00
C472   C     0.44496   0.16414   0.90353   0.00000  Uiso   1.00
C473   C     0.52366   0.32270   0.75220   0.00000  Uiso   1.00
C474   C     0.46625   0.16576   0.84730   0.00000  Uiso   1.00
C475   C     0.47640   0.01062   0.74762   0.00000  Uiso   1.00
C476   C     0.48489   0.06659   0.74845   0.00000  Uiso   1.00
C477   C     0.53446   0.17089   0.65271   0.00000  Uiso   1.00
C478   C     0.62623   0.22824   0.52465   0.00000  Uiso   1.00
C479   C     0.55614   0.17979   0.59706   0.00000  Uiso   1.00
C480   C     0.38402   0.13577   0.92448   0.00000  Uiso   1.00
C481   C     0.36668   0.12410   0.97616   0.00000  Uiso   1.00
C482   C     0.47227   0.16806   0.98777   0.00000  Uiso   1.00
C483   C     0.41048   0.13851   0.50725   0.00000  Uiso   1.00
C484   C     0.33609   0.22623   0.60107   0.00000  Uiso   1.00
C485   C     0.48737   0.18458   0.93621   0.00000  Uiso   1.00
C486   C     0.51962   0.18191   0.51752   0.00000  Uiso   1.00
C487   C     0.57863   0.21508   0.99662   0.00000  Uiso   1.00
C488   C     0.58958   0.23555   0.94800   0.00000  Uiso   1.00
C489   C     0.54434   0.22129   0.91859   0.00000  Uiso   1.00
C490   C     0.51034   0.16382   0.56736   0.00000  Uiso   1.00
C491   C     0.61623   0.21047   0.57449   0.00000  Uiso   1.00
Cu492  Cu    0.44043   0.16105   0.74436   0.00000  Uiso   1.00
Cu493  Cu    0.55957   0.17228   0.75565   0.00000  Uiso   1.00
H494   H     0.33701   0.20600   0.78952   0.00000  Uiso   1.00
H495   H     0.40591   0.28440   0.61802   0.00000  Uiso   1.00
H496   H     0.43086   0.32014   0.74325   0.00000  Uiso   1.00
H497   H     0.63354   0.26270   0.93247   0.00000  Uiso   1.00
H498   H     0.66293   0.12723   0.71058   0.00000  Uiso   1.00
H499   H     0.33834   0.25260   0.50750   0.00000  Uiso   1.00
H500   H     0.46682   0.13785   0.58478   0.00000  Uiso   1.00
H501   H     0.35040   0.12078   0.90048   0.00000  Uiso   1.00
H502   H     0.39390   0.12659   0.54647   0.00000  Uiso   1.00
H503   H     0.65287   0.10198   0.99193   0.00000  Uiso   1.00
H504   H     0.55435   0.24019   0.88211   0.00000  Uiso   1.00
H505   H     0.56921   0.01319   0.75655   0.00000  Uiso   1.00
N506   N     0.64908   0.18074   0.76416   0.00000  Uiso   1.00
N507   N     0.35092   0.15259   0.73584   0.00000  Uiso   1.00
O508   O     0.46131   0.23807   0.74633   0.00000  Uiso   1.00
O509   O     0.36979   0.27856   0.59950   0.00000  Uiso   1.00
O510   O     0.56191   0.24755   0.75587   0.00000  Uiso   1.00
O511   O     0.42515   0.15960   0.81840   0.00000  Uiso   1.00
O512   O     0.52575   0.16908   0.82793   0.00000  Uiso   1.00
O513   O     0.43809   0.08578   0.74414   0.00000  Uiso   1.00
O514   O     0.53869   0.09526   0.75367   0.00000  Uiso   1.00
O515   O     0.47425   0.16425   0.67207   0.00000  Uiso   1.00
O516   O     0.57485   0.17373   0.68161   0.00000  Uiso   1.00
O517   O     0.35279   0.19324   0.62182   0.00000  Uiso   1.00
C518   C     0.84847   0.26675   0.75149   0.00000  Uiso   1.00
C519   C     0.77829   0.16414   0.90353   0.00000  Uiso   1.00
C520   C     0.85700   0.32270   0.75220   0.00000  Uiso   1.00
C521   C     0.79959   0.16576   0.84730   0.00000  Uiso   1.00
C522   C     0.80973   0.01062   0.74762   0.00000  Uiso   1.00
C523   C     0.81823   0.06659   0.74845   0.00000  Uiso   1.00
C524   C     0.86779   0.17089   0.65271   0.00000  Uiso   1.00
C525   C     0.95957   0.22824   0.52465   0.00000  Uiso   1.00
C526   C     0.88947   0.17979   0.59706   0.00000  Uiso   1.00
C527   C     0.71735   0.13577   0.92448   0.00000  Uiso   1.00
C528   C     0.70001   0.12410   0.97616   0.00000  Uiso   1.00
C529   C     0.80560   0.16806   0.98777   0.00000  Uiso   1.00
C530   C     0.74381   0.13851   0.50725   0.00000  Uiso   1.00
C531   C     0.66942   0.22623   0.60107   0.00000  Uiso   1.00
C532   C     0.82071   0.18458   0.93621   0.00000  Uiso   1.00
C533   C     0.85296   0.18191   0.51752   0.00000  Uiso   1.00
C534   C     0.91196   0.21508   0.99662   0.00000  Uiso   1.00
C535   C     0.92291   0.23555   0.94800   0.00000  Uiso   1.00
C536   C     0.87767   0.22129   0.91859   0.00000  Uiso   1.00
C537   C     0.84367   0.16382   0.56736   0.00000  Uiso   1.00
C538   C     0.94956   0.21047   0.57449   0.00000  Uiso   1.00
Cu539  Cu    0.77377   0.16105   0.74436   0.00000  Uiso   1.00
Cu540  Cu    0.89290   0.17228   0.75565   0.00000  Uiso   1.00
H541   H     0.67034   0.20600   0.78952   0.00000  Uiso   1.00
H542   H     0.73924   0.28440   0.61802   0.00000  Uiso   1.00
H543   H     0.76420   0.32014   0.74325   0.00000  Uiso   1.00
H544   H     0.96688   0.26270   0.93247   0.00000  Uiso   1.00
H545   H     0.99626   0.12723   0.71058   0.00000  Uiso   1.00
H546   H     0.67167   0.25260   0.50750   0.00000  Uiso   1.00
H547   H     0.80016   0.13785   0.58478   0.00000  Uiso   1.00
H548   H     0.68373   0.12078   0.90048   0.00000  Uiso   1.00
H549   H     0.72723   0.12659   0.54647   0.00000  Uiso   1.00
H550   H     0.98620   0.10198   0.99193   0.00000  Uiso   1.00
H551   H     0.88768   0.24019   0.88211   0.00000  Uiso   1.00
H552   H     0.90254   0.01319   0.75655   0.00000  Uiso   1.00
N553   N     0.98241   0.18074   0.76416   0.00000  Uiso   1.00
N554   N     0.68426   0.15259   0.73584   0.00000  Uiso   1.00
O555   O     0.79464   0.23807   0.74633   0.00000  Uiso   1.00
O556   O     0.70312   0.27856   0.59950   0.00000  Uiso   1.00
O557   O     0.89524   0.24755   0.75587   0.00000  Uiso   1.00
O558   O     0.75848   0.15960   0.81840   0.00000  Uiso   1.00
O559   O     0.85908   0.16908   0.82793   0.00000  Uiso   1.00
O560   O     0.77142   0.08578   0.74414   0.00000  Uiso   1.00
O561   O     0.87203   0.09526   0.75367   0.00000  Uiso   1.00
O562   O     0.80758   0.16425   0.67207   0.00000  Uiso   1.00
O563   O     0.90819   0.17373   0.68161   0.00000  Uiso   1.00
O564   O     0.68612   0.19324   0.62182   0.00000  Uiso   1.00
C565   C     0.18180   0.60008   0.75149   0.00000  Uiso   1.00
C566   C     0.11162   0.49747   0.90353   0.00000  Uiso   1.00
C567   C     0.19033   0.65603   0.75220   0.00000  Uiso   1.00
C568   C     0.13292   0.49910   0.84730   0.00000  Uiso   1.00
C569   C     0.14307   0.34396   0.74762   0.00000  Uiso   1.00
C570   C     0.15156   0.39992   0.74845   0.00000  Uiso   1.00
C571   C     0.20113   0.50422   0.65271   0.00000  Uiso   1.00
C572   C     0.29290   0.56157   0.52465   0.00000  Uiso   1.00
C573   C     0.22281   0.51312   0.59706   0.00000  Uiso   1.00
C574   C     0.05068   0.46911   0.92448   0.00000  Uiso   1.00
C575   C     0.03335   0.45743   0.97616   0.00000  Uiso   1.00
C576   C     0.13893   0.50139   0.98777   0.00000  Uiso   1.00
C577   C     0.07714   0.47185   0.50725   0.00000  Uiso   1.00
C578   C     0.00275   0.55957   0.60107   0.00000  Uiso   1.00
C579   C     0.15404   0.51792   0.93621   0.00000  Uiso   1.00
C580   C     0.18629   0.51524   0.51752   0.00000  Uiso   1.00
C581   C     0.24529   0.54842   0.99662   0.00000  Uiso   1.00
C582   C     0.25625   0.56888   0.94800   0.00000  Uiso   1.00
C583   C     0.21100   0.55463   0.91859   0.00000  Uiso   1.00
C584   C     0.17700   0.49715   0.56736   0.00000  Uiso   1.00
C585   C     0.28289   0.54381   0.57449   0.00000  Uiso   1.00
Cu586  Cu    0.10710   0.49439   0.74436   0.00000  Uiso   1.00
Cu587  Cu    0.22623   0.50561   0.75565   0.00000  Uiso   1.00
H588   H     0.00368   0.53934   0.78952   0.00000  Uiso   1.00
H589   H     0.07257   0.61774   0.61802   0.00000  Uiso   1.00
H590   H     0.09753   0.65347   0.74325   0.00000  Uiso   1.00
H591   H     0.30021   0.59603   0.93247   0.00000  Uiso   1.00
H592   H     0.32960   0.46057   0.71058   0.00000  Uiso   1.00
H593   H     0.00500   0.58594   0.50750   0.00000  Uiso   1.00
H594   H     0.13349   0.47118   0.58478   0.00000  Uiso   1.00
H595   H     0.01706   0.45411   0.90048   0.00000  Uiso   1.00
H596   H     0.06057   0.45992   0.54647   0.00000  Uiso   1.00
H597   H     0.31954   0.43531   0.99193   0.00000  Uiso   1.00
H598   H     0.22101   0.57353   0.88211   0.00000  Uiso   1.00
H599   H     0.23587   0.34652   0.75655   0.00000  Uiso   1.00
N600   N     0.31574   0.51407   0.76416   0.00000  Uiso   1.00
N601   N     0.01759   0.48593   0.73584   0.00000  Uiso   1.00
O602   O     0.12797   0.57141   0.74633   0.00000  Uiso   1.00
O603   O     0.03646   0.61190   0.59950   0.00000  Uiso   1.00
O604   O     0.22858   0.58089   0.75587   0.00000  Uiso   1.00
O605   O     0.09181   0.49293   0.81840   0.00000  Uiso   1.00
O606   O     0.19242   0.50241   0.82793   0.00000  Uiso   1.00
O607   O     0.10476   0.41911   0.74414   0.00000  Uiso   1.00
O608   O     0.20536   0.42859   0.75367   0.00000  Uiso   1.00
O609   O     0.14092   0.49759   0.67207   0.00000  Uiso   1.00
O610   O     0.24152   0.50707   0.68161   0.00000  Uiso   1.00
O611   O     0.01945   0.52658   0.62182   0.00000  Uiso   1.00
C612   C     0.51513   0.60008   0.75149   0.00000  Uiso   1.00
C613   C     0.44496   0.49747   0.90353   0.00000  Uiso   1.00
C614   C     0.52366   0.65603   0.75220   0.00000  Uiso   1.00
C615   C     0.46625   0.49910   0.84730   0.00000  Uiso   1.00
C616   C     0.47640   0.34396   0.74762   0.00000  Uiso   1.00
C617   C     0.48489   0.39992   0.74845   0.00000  Uiso   1.00
C618   C     0.53446   0.50422   0.65271   0.00000  Uiso   1.00
C619   C     0.62623   0.56157   0.52465   0.00000  Uiso   1.00
C620   C     0.55614   0.51312   0.59706   0.00000  Uiso   1.00
C621   C     0.38402   0.46911   0.92448   0.00000  Uiso   1.00
C622   C     0.36668   0.45743   0.97616   0.00000  Uiso   1.00
C623   C     0.47227   0.50139   0.98777   0.00000  Uiso   1.00
C624   C     0.41048   0.47185   0.50725   0.00000  Uiso   1.00
C625   C     0.33609   0.55957   0.60107   0.00000  Uiso   1.00
C626   C     0.48737   0.51792   0.93621   0.00000  Uiso   1.00
C627   C     0.51962   0.51524   0.51752   0.00000  Uiso   1.00
C628   C     0.57863   0.54842   0.99662   0.00000  Uiso   1.00
C629   C     0.58958   0.56888   0.94800   0.00000  Uiso   1.00
C630   C     0.54434   0.55463   0.91859   0.00000  Uiso   1.00
C631   C     0.51034   0.49715   0.56736   0.00000  Uiso   1.00
C632   C     0.61623   0.54381   0.57449   0.00000  Uiso   1.00
Cu633  Cu    0.44043   0.49439   0.74436   0.00000  Uiso   1.00
Cu634  Cu    0.55957   0.50561   0.75565   0.00000  Uiso   1.00
H635   H     0.33701   0.53934   0.78952   0.00000  Uiso   1.00
H636   H     0.40591   0.61774   0.61802   0.00000  Uiso   1.00
H637   H     0.43086   0.65347   0.74325   0.00000  Uiso   1.00
H638   H     0.63354   0.59603   0.93247   0.00000  Uiso   1.00
H639   H     0.66293   0.46057   0.71058   0.00000  Uiso   1.00
H640   H     0.33834   0.58594   0.50750   0.00000  Uiso   1.00
H641   H     0.46682   0.47118   0.58478   0.00000  Uiso   1.00
H642   H     0.35040   0.45411   0.90048   0.00000  Uiso   1.00
H643   H     0.39390   0.45992   0.54647   0.00000  Uiso   1.00
H644   H     0.65287   0.43531   0.99193   0.00000  Uiso   1.00
H645   H     0.55435   0.57353   0.88211   0.00000  Uiso   1.00
H646   H     0.56921   0.34652   0.75655   0.00000  Uiso   1.00
N647   N     0.64908   0.51407   0.76416   0.00000  Uiso   1.00
N648   N     0.35092   0.48593   0.73584   0.00000  Uiso   1.00
O649   O     0.46131   0.57141   0.74633   0.00000  Uiso   1.00
O650   O     0.36979   0.61190   0.59950   0.00000  Uiso   1.00
O651   O     0.56191   0.58089   0.75587   0.00000  Uiso   1.00
O652   O     0.42515   0.49293   0.81840   0.00000  Uiso   1.00
O653   O     0.52575   0.50241   0.82793   0.00000  Uiso   1.00
O654   O     0.43809   0.41911   0.74414   0.00000  Uiso   1.00
O655   O     0.53869   0.42859   0.75367   0.00000  Uiso   1.00
O656   O     0.47425   0.49759   0.67207   0.00000  Uiso   1.00
O657   O     0.57485   0.50707   0.68161   0.00000  Uiso   1.00
O658   O     0.35279   0.52658   0.62182   0.00000  Uiso   1.00
C659   C     0.84847   0.60008   0.75149   0.00000  Uiso   1.00
C660   C     0.77829   0.49747   0.90353   0.00000  Uiso   1.00
C661   C     0.85700   0.65603   0.75220   0.00000  Uiso   1.00
C662   C     0.79959   0.49910   0.84730   0.00000  Uiso   1.00
C663   C     0.80973   0.34396   0.74762   0.00000  Uiso   1.00
C664   C     0.81823   0.39992   0.74845   0.00000  Uiso   1.00
C665   C     0.86779   0.50422   0.65271   0.00000  Uiso   1.00
C666   C     0.95957   0.56157   0.52465   0.00000  Uiso   1.00
C667   C     0.88947   0.51312   0.59706   0.00000  Uiso   1.00
C668   C     0.71735   0.46911   0.92448   0.00000  Uiso   1.00
C669   C     0.70001   0.45743   0.97616   0.00000  Uiso   1.00
C670   C     0.80560   0.50139   0.98777   0.00000  Uiso   1.00
C671   C     0.74381   0.47185   0.50725   0.00000  Uiso   1.00
C672   C     0.66942   0.55957   0.60107   0.00000  Uiso   1.00
C673   C     0.82071   0.51792   0.93621   0.00000  Uiso   1.00
C674   C     0.85296   0.51524   0.51752   0.00000  Uiso   1.00
C675   C     0.91196   0.54842   0.99662   0.00000  Uiso   1.00
C676   C     0.92291   0.56888   0.94800   0.00000  Uiso   1.00
C677   C     0.87767   0.55463   0.91859   0.00000  Uiso   1.00
C678   C     0.84367   0.49715   0.56736   0.00000  Uiso   1.00
C679   C     0.94956   0.54381   0.57449   0.00000  Uiso   1.00
Cu680  Cu    0.77377   0.49439   0.74436   0.00000  Uiso   1.00
Cu681  Cu    0.89290   0.50561   0.75565   0.00000  Uiso   1.00
H682   H     0.67034   0.53934   0.78952   0.00000  Uiso   1.00
H683   H     0.73924   0.61774   0.61802   0.00000  Uiso   1.00
H684   H     0.76420   0.65347   0.74325   0.00000  Uiso   1.00
H685   H     0.96688   0.59603   0.93247   0.00000  Uiso   1.00
H686   H     0.99626   0.46057   0.71058   0.00000  Uiso   1.00
H687   H     0.67167   0.58594   0.50750   0.00000  Uiso   1.00
H688   H     0.80016   0.47118   0.58478   0.00000  Uiso   1.00
H689   H     0.68373   0.45411   0.90048   0.00000  Uiso   1.00
H690   H     0.72723   0.45992   0.54647   0.00000  Uiso   1.00
H691   H     0.98620   0.43531   0.99193   0.00000  Uiso   1.00
H692   H     0.88768   0.57353   0.88211   0.00000  Uiso   1.00
H693   H     0.90254   0.34652   0.75655   0.00000  Uiso   1.00
N694   N     0.98241   0.51407   0.76416   0.00000  Uiso   1.00
N695   N     0.68426   0.48593   0.73584   0.00000  Uiso   1.00
O696   O     0.79464   0.57141   0.74633   0.00000  Uiso   1.00
O697   O     0.70312   0.61190   0.59950   0.00000  Uiso   1.00
O698   O     0.89524   0.58089   0.75587   0.00000  Uiso   1.00
O699   O     0.75848   0.49293   0.81840   0.00000  Uiso   1.00
O700   O     0.85908   0.50241   0.82793   0.00000  Uiso   1.00
O701   O     0.77142   0.41911   0.74414   0.00000  Uiso   1.00
O702   O     0.87203   0.42859   0.75367   0.00000  Uiso   1.00
O703   O     0.80758   0.49759   0.67207   0.00000  Uiso   1.00
O704   O     0.90819   0.50707   0.68161   0.00000  Uiso   1.00
O705   O     0.68612   0.52658   0.62182   0.00000  Uiso   1.00
C706   C     0.18180   0.93341   0.75149   0.00000  Uiso   1.00
C707   C     0.11162   0.83080   0.90353   0.00000  Uiso   1.00
C708   C     0.19033   0.98937   0.75220   0.00000  Uiso   1.00
C709   C     0.13292   0.83243   0.84730   0.00000  Uiso   1.00
C710   C     0.14307   0.67729   0.74762   0.00000  Uiso   1.00
C711   C     0.15156   0.73325   0.74845   0.00000  Uiso   1.00
C712   C     0.20113   0.83756   0.65271   0.00000  Uiso   1.00
C713   C     0.29290   0.89490   0.52465   0.00000  Uiso   1.00
C714   C     0.22281   0.84645   0.59706   0.00000  Uiso   1.00
C715   C     0.05068   0.80244   0.92448   0.00000  Uiso   1.00
C716   C     0.03335   0.79077   0.97616   0.00000  Uiso   1.00
C717   C     0.13893   0.83473   0.98777   0.00000  Uiso   1.00
C718   C     0.07714   0.80518   0.50725   0.00000  Uiso   1.00
C719   C     0.00275   0.89290   0.60107   0.00000  Uiso   1.00
C720   C     0.15404   0.85125   0.93621   0.00000  Uiso   1.00
C721   C     0.18629   0.84857   0.51752   0.00000  Uiso   1.00
C722   C     0.24529   0.88175   0.99662   0.00000  Uiso   1.00
C723   C     0.25625   0.90221   0.94800   0.00000  Uiso   1.00
C724   C     0.21100   0.88796   0.91859   0.00000  Uiso   1.00
C725   C     0.17700   0.83048   0.56736   0.00000  Uiso   1.00
C726   C     0.28289   0.87714   0.57449   0.00000  Uiso   1.00
Cu727  Cu    0.10710   0.82772   0.74436   0.00000  Uiso   1.00
Cu728  Cu    0.22623   0.83895   0.75565   0.00000  Uiso   1.00
H729   H     0.00368   0.87267   0.78952   0.00000  Uiso   1.00
H730   H     0.07257   0.95107   0.61802   0.00000  Uiso   1.00
H731   H     0.09753   0.98680   0.74325   0.00000  Uiso   1.00
H732   H     0.30021   0.92936   0.93247   0.00000  Uiso   1.00
H733   H     0.32960   0.79390   0.71058   0.00000  Uiso   1.00
H734   H     0.00500   0.91927   0.50750   0.00000  Uiso   1.00
H735   H     0.13349   0.80451   0.58478   0.00000  Uiso   1.00
H736   H     0.01706   0.78744   0.90048   0.00000  Uiso   1.00
H737   H     0.06057   0.79326   0.54647   0.00000  Uiso   1.00
H738   H     0.31954   0.76865   0.99193   0.00000  Uiso   1.00
H739   H     0.22101   0.90686   0.88211   0.00000  Uiso   1.00
H740   H     0.23587   0.67985   0.75655   0.00000  Uiso   1.00
N741   N     0.31574   0.84741   0.76416   0.00000  Uiso   1.00
N742   N     0.01759   0.81926   0.73584   0.00000  Uiso   1.00
O743   O     0.12797   0.90474   0.74633   0.00000  Uiso   1.00
O744   O     0.03646   0.94523   0.59950   0.00000  Uiso   1.00
O745   O     0.22858   0.91422   0.75587   0.00000  Uiso   1.00
O746   O     0.09181   0.82627   0.81840   0.00000  Uiso   1.00
O747   O     0.19242   0.83575   0.82793   0.00000  Uiso   1.00
O748   O     0.10476   0.75245   0.74414   0.00000  Uiso   1.00
O749   O     0.20536   0.76193   0.75367   0.00000  Uiso   1.00
O750   O     0.14092   0.83092   0.67207   0.00000  Uiso   1.00
O751   O     0.24152   0.84040   0.68161   0.00000  Uiso   1.00
O752   O     0.01945   0.85991   0.62182   0.00000  Uiso   1.00
C753   C     0.51513   0.93341   0.75149   0.00000  Uiso   1.00
C754   C     0.44496   0.83080   0.90353   0.00000  Uiso   1.00
C755   C     0.52366   0.98937   0.75220   0.00000  Uiso   1.00
C756   C     0.46625   0.83243   0.84730   0.00000  Uiso   1.00
C757   C     0.47640   0.67729   0.74762   0.00000  Uiso   1.00
C758   C     0.48489   0.73325   0.74845   0.00000  Uiso   1.00
C759   C     0.53446   0.83756   0.65271   0.00000  Uiso   1.00
C760   C     0.62623   0.89490   0.52465   0.00000  Uiso   1.00
C761   C     0.55614   0.84645   0.59706   0.00000  Uiso   1.00
C762   C     0.38402   0.80244   0.92448   0.00000  Uiso   1.00
C763   C     0.36668   0.79077   0.97616   0.00000  Uiso   1.00
C764   C     0.47227   0.83473   0.98777   0.00000  Uiso   1.00
C765   C     0.41048   0.80518   0.50725   0.00000  Uiso   1.00
C766   C     0.33609   0.89290   0.60107   0.00000  Uiso   1.00
C767   C     0.48737   0.85125   0.93621   0.00000  Uiso   1.00
C768   C     0.51962   0.84857   0.51752   0.00000  Uiso   1.00
C769   C     0.57863   0.88175   0.99662   0.00000  Uiso   1.00
C770   C     0.58958   0.90221   0.94800   0.00000  Uiso   1.00
C771   C     0.54434   0.88796   0.91859   0.00000  Uiso   1.00
C772   C     0.51034   0.83048   0.56736   0.00000  Uiso   1.00
C773   C     0.61623   0.87714   0.57449   0.00000  Uiso   1.00
Cu774  Cu    0.44043   0.82772   0.74436   0.00000  Uiso   1.00
Cu775  Cu    0.55957   0.83895   0.75565   0.00000  Uiso   1.00
H776   H     0.33701   0.87267   0.78952   0.00000  Uiso   1.00
H777   H     0.40591   0.95107   0.61802   0.00000  Uiso   1.00
H778   H     0.43086   0.98680   0.74325   0.00000  Uiso   1.00
H779   H     0.63354   0.92936   0.93247   0.00000  Uiso   1.00
H780   H     0.66293   0.79390   0.71058   0.00000  Uiso   1.00
H781   H     0.33834   0.91927   0.50750   0.00000  Uiso   1.00
H782   H     0.46682   0.80451   0.58478   0.00000  Uiso   1.00
H783   H     0.35040   0.78744   0.90048   0.00000  Uiso   1.00
H784   H     0.39390   0.79326   0.54647   0.00000  Uiso   1.00
H785   H     0.65287   0.76865   0.99193   0.00000  Uiso   1.00
H786   H     0.55435   0.90686   0.88211   0.00000  Uiso   1.00
H787   H     0.56921   0.67985   0.75655   0.00000  Uiso   1.00
N788   N     0.64908   0.84741   0.76416   0.00000  Uiso   1.00
N789   N     0.35092   0.81926   0.73584   0.00000  Uiso   1.00
O790   O     0.46131   0.90474   0.74633   0.00000  Uiso   1.00
O791   O     0.36979   0.94523   0.59950   0.00000  Uiso   1.00
O792   O     0.56191   0.91422   0.75587   0.00000  Uiso   1.00
O793   O     0.42515   0.82627   0.81840   0.00000  Uiso   1.00
O794   O     0.52575   0.83575   0.82793   0.00000  Uiso   1.00
O795   O     0.43809   0.75245   0.74414   0.00000  Uiso   1.00
O796   O     0.53869   0.76193   0.75367   0.00000  Uiso   1.00
O797   O     0.47425   0.83092   0.67207   0.00000  Uiso   1.00
O798   O     0.57485   0.84040   0.68161   0.00000  Uiso   1.00
O799   O     0.35279   0.85991   0.62182   0.00000  Uiso   1.00
C800   C     0.84847   0.93341   0.75149   0.00000  Uiso   1.00
C801   C     0.77829   0.83080   0.90353   0.00000  Uiso   1.00
C802   C     0.85700   0.98937   0.75220   0.00000  Uiso   1.00
C803   C     0.79959   0.83243   0.84730   0.00000  Uiso   1.00
C804   C     0.80973   0.67729   0.74762   0.00000  Uiso   1.00
C805   C     0.81823   0.73325   0.74845   0.00000  Uiso   1.00
C806   C     0.86779   0.83756   0.65271   0.00000  Uiso   1.00
C807   C     0.95957   0.89490   0.52465   0.00000  Uiso   1.00
C808   C     0.88947   0.84645   0.59706   0.00000  Uiso   1.00
C809   C     0.71735   0.80244   0.92448   0.00000  Uiso   1.00
C810   C     0.70001   0.79077   0.97616   0.00000  Uiso   1.00
C811   C     0.80560   0.83473   0.98777   0.00000  Uiso   1.00
C812   C     0.74381   0.80518   0.50725   0.00000  Uiso   1.00
C813   C     0.66942   0.89290   0.60107   0.00000  Uiso   1.00
C814   C     0.82071   0.85125   0.93621   0.00000  Uiso   1.00
C815   C     0.85296   0.84857   0.51752   0.00000  Uiso   1.00
C816   C     0.91196   0.88175   0.99662   0.00000  Uiso   1.00
C817   C     0.92291   0.90221   0.94800   0.00000  Uiso   1.00
C818   C     0.87767   0.88796   0.91859   0.00000  Uiso   1.00
C819   C     0.84367   0.83048   0.56736   0.00000  Uiso   1.00
C820   C     0.94956   0.87714   0.57449   0.00000  Uiso   1.00
Cu821  Cu    0.77377   0.82772   0.74436   0.00000  Uiso   1.00
Cu822  Cu    0.89290   0.83895   0.75565   0.00000  Uiso   1.00
H823   H     0.67034   0.87267   0.78952   0.00000  Uiso   1.00
H824   H     0.73924   0.95107   0.61802   0.00000  Uiso   1.00
H825   H     0.76420   0.98680   0.74325   0.00000  Uiso   1.00
H826   H     0.96688   0.92936   0.93247   0.00000  Uiso   1.00
H827   H     0.99626   0.79390   0.71058   0.00000  Uiso   1.00
H828   H     0.67167   0.91927   0.50750   0.00000  Uiso   1.00
H829   H     0.80016   0.80451   0.58478   0.00000  Uiso   1.00
H830   H     0.68373   0.78744   0.90048   0.00000  Uiso   1.00
H831   H     0.72723   0.79326   0.54647   0.00000  Uiso   1.00
H832   H     0.98620   0.76865   0.99193   0.00000  Uiso   1.00
H833   H     0.88768   0.90686   0.88211   0.00000  Uiso   1.00
H834   H     0.90254   0.67985   0.75655   0.00000  Uiso   1.00
N835   N     0.98241   0.84741   0.76416   0.00000  Uiso   1.00
N836   N     0.68426   0.81926   0.73584   0.00000  Uiso   1.00
O837   O     0.79464   0.90474   0.74633   0.00000  Uiso   1.00
O838   O     0.70312   0.94523   0.59950   0.00000  Uiso   1.00
O839   O     0.89524   0.91422   0.75587   0.00000  Uiso   1.00
O840   O     0.75848   0.82627   0.81840   0.00000  Uiso   1.00
O841   O     0.85908   0.83575   0.82793   0.00000  Uiso   1.00
O842   O     0.77142   0.75245   0.74414   0.00000  Uiso   1.00
O843   O     0.87203   0.76193   0.75367   0.00000  Uiso   1.00
O844   O     0.80758   0.83092   0.67207   0.00000  Uiso   1.00
O845   O     0.90819   0.84040   0.68161   0.00000  Uiso   1.00
O846   O     0.68612   0.85991   0.62182   0.00000  Uiso   1.00
loop_
_geom_bond_atom_site_label_1
_geom_bond_atom_site_label_2
_geom_bond_distance
_geom_bond_site_symmetry_2
_ccdc_geom_bond_type
C1     O38     1.290   .     A
C1     O40     1.285   .     A
C1     C3      1.428   .     S
C2     C4      1.475   .     S
C2     C15     1.421   .     A
C2     C10     1.401   .     A
C3     C146    1.328   .     S
C3     H176    1.088   .     S
C4     O42     1.295   .     A
C4     O41     1.303   .     A
C5     C6      1.428   .     S
C5     C285    1.328   1_545 S
C5     H308    1.088   1_545 S
C6     O44     1.291   .     A
C6     O43     1.285   .     A
C7     O45     1.301   .     A
C7     O46     1.299   .     A
C7     C9      1.479   .     S
C8     C21     1.398   .     A
C8     C440    1.400   1_554 S
C8     H76     1.085   .     S
C9     C21     1.419   .     A
C9     C20     1.403   .     A
C10    C11     1.388   .     A
C10    H31     1.083   .     S
C11    C436    1.392   .     S
C11    H127    1.083   1_455 S
C12    C15     1.420   .     A
C12    C436    1.418   .     S
C12    C439    1.428   .     S
C13    H32     1.076   .     S
C13    C435    1.418   1_554 S
C13    C434    1.392   1_554 S
C14    O47     1.222   .     D
C14    O39     1.398   .     S
C14    C115    1.481   1_455 S
C15    C19     1.411   .     A
C16    C20     1.403   .     A
C16    C435    1.428   1_554 S
C16    C440    1.417   1_554 S
C17    C18     1.392   .     A
C17    C439    1.417   .     S
C17    C431    1.400   .     S
C18    C19     1.385   .     A
C18    H27     1.084   .     S
C19    H34     1.081   .     S
C20    H30     1.076   .     S
C21    C61     1.481   .     S
Cu22   O41     1.938   .     S
Cu22   O38     1.956   .     S
Cu22   O45     1.915   .     S
Cu22   Cu23    2.684   .     S
Cu22   N37     2.017   .     S
Cu22   O43     1.952   .     S
Cu23   N36     2.017   .     S
Cu23   O46     1.938   .     S
Cu23   O42     1.915   .     S
Cu23   O44     1.956   .     S
Cu23   O40     1.952   .     S
H24    N130    1.029   1_455 S
H25    O39     1.014   .     S
H26    C146    1.088   .     S
H28    N84     1.029   .     S
H29    C102    1.085   1_455 S
H33    C58     1.083   .     S
H35    C285    1.088   1_545 S
N36    H71     1.029   .     S
N36    N84     1.283   .     S
N37    N130    1.283   1_455 S
N37    H122    1.029   1_455 S
C48    O85     1.290   .     A
C48    O87     1.285   .     A
C48    C50     1.428   .     S
C49    C51     1.475   .     S
C49    C62     1.421   .     A
C49    C57     1.401   .     A
C50    C193    1.328   .     S
C50    H223    1.088   .     S
C51    O89     1.295   .     A
C51    O88     1.303   .     A
C52    C53     1.428   .     S
C52    C332    1.328   1_545 S
C52    H355    1.088   1_545 S
C53    O91     1.291   .     A
C53    O90     1.285   .     A
C54    O92     1.301   .     A
C54    O93     1.299   .     A
C54    C56     1.479   .     S
C55    C68     1.398   .     A
C55    C487    1.400   1_554 S
C55    H123    1.085   .     S
C56    C68     1.419   .     A
C56    C67     1.403   .     A
C57    C58     1.388   .     A
C57    H78     1.083   .     S
C58    C483    1.392   .     S
C59    C62     1.420   .     A
C59    C483    1.418   .     S
C59    C486    1.428   .     S
C60    H79     1.076   .     S
C60    C482    1.418   1_554 S
C60    C481    1.392   1_554 S
C61    O94     1.222   .     D
C61    O86     1.398   .     S
C62    C66     1.411   .     A
C63    C67     1.403   .     A
C63    C482    1.428   1_554 S
C63    C487    1.417   1_554 S
C64    C65     1.392   .     A
C64    C486    1.417   .     S
C64    C478    1.400   .     S
C65    C66     1.385   .     A
C65    H74     1.084   .     S
C66    H81     1.081   .     S
C67    H77     1.076   .     S
C68    C108    1.481   .     S
Cu69   O88     1.938   .     S
Cu69   O85     1.956   .     S
Cu69   O92     1.915   .     S
Cu69   Cu70    2.684   .     S
Cu69   N84     2.017   .     S
Cu69   O90     1.952   .     S
Cu70   N83     2.017   .     S
Cu70   O93     1.938   .     S
Cu70   O89     1.915   .     S
Cu70   O91     1.956   .     S
Cu70   O87     1.952   .     S
H72    O86     1.014   .     S
H73    C193    1.088   .     S
H75    N131    1.029   .     S
H80    C105    1.083   .     S
H82    C332    1.088   1_545 S
N83    H118    1.029   .     S
N83    N131    1.283   .     S
C95    O132    1.290   .     A
C95    O134    1.285   .     A
C95    C97     1.428   .     S
C96    C98     1.475   .     S
C96    C109    1.421   .     A
C96    C104    1.401   .     A
C97    C240    1.328   .     S
C97    H270    1.088   .     S
C98    O136    1.295   .     A
C98    O135    1.303   .     A
C99    C100    1.428   .     S
C99    C379    1.328   1_545 S
C99    H402    1.088   1_545 S
C100   O138    1.291   .     A
C100   O137    1.285   .     A
C101   O139    1.301   .     A
C101   O140    1.299   .     A
C101   C103    1.479   .     S
C102   C115    1.398   .     A
C102   C534    1.400   1_554 S
C102   H29     1.085   1_655 S
C103   C115    1.419   .     A
C103   C114    1.403   .     A
C104   C105    1.388   .     A
C104   H125    1.083   .     S
C105   C530    1.392   .     S
C106   C109    1.420   .     A
C106   C530    1.418   .     S
C106   C533    1.428   .     S
C107   H126    1.076   .     S
C107   C529    1.418   1_554 S
C107   C528    1.392   1_554 S
C108   O141    1.222   .     D
C108   O133    1.398   .     S
C109   C113    1.411   .     A
C110   C114    1.403   .     A
C110   C529    1.428   1_554 S
C110   C534    1.417   1_554 S
C111   C112    1.392   .     A
C111   C533    1.417   .     S
C111   C525    1.400   .     S
C112   C113    1.385   .     A
C112   H121    1.084   .     S
C113   H128    1.081   .     S
C114   H124    1.076   .     S
C115   C14     1.481   1_655 S
Cu116  O135    1.938   .     S
Cu116  O132    1.956   .     S
Cu116  O139    1.915   .     S
Cu116  Cu117   2.684   .     S
Cu116  N131    2.017   .     S
Cu116  O137    1.952   .     S
Cu117  N130    2.017   .     S
Cu117  O140    1.938   .     S
Cu117  O136    1.915   .     S
Cu117  O138    1.956   .     S
Cu117  O134    1.952   .     S
H119   O133    1.014   .     S
H120   C240    1.088   .     S
H122   N37     1.029   1_655 S
H127   C11     1.083   1_655 S
H129   C379    1.088   1_545 S
N130   H24     1.029   1_655 S
N130   N37     1.283   1_655 S
C142   O179    1.290   .     A
C142   O181    1.285   .     A
C142   C144    1.428   .     S
C143   C145    1.475   .     S
C143   C156    1.421   .     A
C143   C151    1.401   .     A
C144   C287    1.328   .     S
C144   H317    1.088   .     S
C145   O183    1.295   .     A
C145   O182    1.303   .     A
C146   C147    1.428   .     S
C147   O185    1.291   .     A
C147   O184    1.285   .     A
C148   O186    1.301   .     A
C148   O187    1.299   .     A
C148   C150    1.479   .     S
C149   C162    1.398   .     A
C149   C581    1.400   1_554 S
C149   H217    1.085   .     S
C150   C162    1.419   .     A
C150   C161    1.403   .     A
C151   C152    1.388   .     A
C151   H172    1.083   .     S
C152   C577    1.392   .     S
C152   H268    1.083   1_455 S
C153   C156    1.420   .     A
C153   C577    1.418   .     S
C153   C580    1.428   .     S
C154   H173    1.076   .     S
C154   C576    1.418   1_554 S
C154   C575    1.392   1_554 S
C155   O188    1.222   .     D
C155   O180    1.398   .     S
C155   C256    1.481   1_455 S
C156   C160    1.411   .     A
C157   C161    1.403   .     A
C157   C576    1.428   1_554 S
C157   C581    1.417   1_554 S
C158   C159    1.392   .     A
C158   C580    1.417   .     S
C158   C572    1.400   .     S
C159   C160    1.385   .     A
C159   H168    1.084   .     S
C160   H175    1.081   .     S
C161   H171    1.076   .     S
C162   C202    1.481   .     S
Cu163  O182    1.938   .     S
Cu163  O179    1.956   .     S
Cu163  O186    1.915   .     S
Cu163  Cu164   2.684   .     S
Cu163  N178    2.017   .     S
Cu163  O184    1.952   .     S
Cu164  N177    2.017   .     S
Cu164  O187    1.938   .     S
Cu164  O183    1.915   .     S
Cu164  O185    1.956   .     S
Cu164  O181    1.952   .     S
H165   N271    1.029   1_455 S
H166   O180    1.014   .     S
H167   C287    1.088   .     S
H169   N225    1.029   .     S
H170   C243    1.085   1_455 S
H174   C199    1.083   .     S
N177   H212    1.029   .     S
N177   N225    1.283   .     S
N178   N271    1.283   1_455 S
N178   H263    1.029   1_455 S
C189   O226    1.290   .     A
C189   O228    1.285   .     A
C189   C191    1.428   .     S
C190   C192    1.475   .     S
C190   C203    1.421   .     A
C190   C198    1.401   .     A
C191   C334    1.328   .     S
C191   H364    1.088   .     S
C192   O230    1.295   .     A
C192   O229    1.303   .     A
C193   C194    1.428   .     S
C194   O232    1.291   .     A
C194   O231    1.285   .     A
C195   O233    1.301   .     A
C195   O234    1.299   .     A
C195   C197    1.479   .     S
C196   C209    1.398   .     A
C196   C628    1.400   1_554 S
C196   H264    1.085   .     S
C197   C209    1.419   .     A
C197   C208    1.403   .     A
C198   C199    1.388   .     A
C198   H219    1.083   .     S
C199   C624    1.392   .     S
C200   C203    1.420   .     A
C200   C624    1.418   .     S
C200   C627    1.428   .     S
C201   H220    1.076   .     S
C201   C623    1.418   1_554 S
C201   C622    1.392   1_554 S
C202   O235    1.222   .     D
C202   O227    1.398   .     S
C203   C207    1.411   .     A
C204   C208    1.403   .     A
C204   C623    1.428   1_554 S
C204   C628    1.417   1_554 S
C205   C206    1.392   .     A
C205   C627    1.417   .     S
C205   C619    1.400   .     S
C206   C207    1.385   .     A
C206   H215    1.084   .     S
C207   H222    1.081   .     S
C208   H218    1.076   .     S
C209   C249    1.481   .     S
Cu210  O229    1.938   .     S
Cu210  O226    1.956   .     S
Cu210  O233    1.915   .     S
Cu210  Cu211   2.684   .     S
Cu210  N225    2.017   .     S
Cu210  O231    1.952   .     S
Cu211  N224    2.017   .     S
Cu211  O234    1.938   .     S
Cu211  O230    1.915   .     S
Cu211  O232    1.956   .     S
Cu211  O228    1.952   .     S
H213   O227    1.014   .     S
H214   C334    1.088   .     S
H216   N272    1.029   .     S
H221   C246    1.083   .     S
N224   H259    1.029   .     S
N224   N272    1.283   .     S
C236   O273    1.290   .     A
C236   O275    1.285   .     A
C236   C238    1.428   .     S
C237   C239    1.475   .     S
C237   C250    1.421   .     A
C237   C245    1.401   .     A
C238   C381    1.328   .     S
C238   H411    1.088   .     S
C239   O277    1.295   .     A
C239   O276    1.303   .     A
C240   C241    1.428   .     S
C241   O279    1.291   .     A
C241   O278    1.285   .     A
C242   O280    1.301   .     A
C242   O281    1.299   .     A
C242   C244    1.479   .     S
C243   C256    1.398   .     A
C243   C675    1.400   1_554 S
C243   H170    1.085   1_655 S
C244   C256    1.419   .     A
C244   C255    1.403   .     A
C245   C246    1.388   .     A
C245   H266    1.083   .     S
C246   C671    1.392   .     S
C247   C250    1.420   .     A
C247   C671    1.418   .     S
C247   C674    1.428   .     S
C248   H267    1.076   .     S
C248   C670    1.418   1_554 S
C248   C669    1.392   1_554 S
C249   O282    1.222   .     D
C249   O274    1.398   .     S
C250   C254    1.411   .     A
C251   C255    1.403   .     A
C251   C670    1.428   1_554 S
C251   C675    1.417   1_554 S
C252   C253    1.392   .     A
C252   C674    1.417   .     S
C252   C666    1.400   .     S
C253   C254    1.385   .     A
C253   H262    1.084   .     S
C254   H269    1.081   .     S
C255   H265    1.076   .     S
C256   C155    1.481   1_655 S
Cu257  O276    1.938   .     S
Cu257  O273    1.956   .     S
Cu257  O280    1.915   .     S
Cu257  Cu258   2.684   .     S
Cu257  N272    2.017   .     S
Cu257  O278    1.952   .     S
Cu258  N271    2.017   .     S
Cu258  O281    1.938   .     S
Cu258  O277    1.915   .     S
Cu258  O279    1.956   .     S
Cu258  O275    1.952   .     S
H260   O274    1.014   .     S
H261   C381    1.088   .     S
H263   N178    1.029   1_655 S
H268   C152    1.083   1_655 S
N271   H165    1.029   1_655 S
N271   N178    1.283   1_655 S
C283   O320    1.290   .     A
C283   O322    1.285   .     A
C283   C285    1.428   .     S
C284   C286    1.475   .     S
C284   C297    1.421   .     A
C284   C292    1.401   .     A
C285   C5      1.328   1_565 S
C285   H35     1.088   1_565 S
C286   O324    1.295   .     A
C286   O323    1.303   .     A
C287   C288    1.428   .     S
C288   O326    1.291   .     A
C288   O325    1.285   .     A
C289   O327    1.301   .     A
C289   O328    1.299   .     A
C289   C291    1.479   .     S
C290   C303    1.398   .     A
C290   C722    1.400   1_554 S
C290   H358    1.085   .     S
C291   C303    1.419   .     A
C291   C302    1.403   .     A
C292   C293    1.388   .     A
C292   H313    1.083   .     S
C293   C718    1.392   .     S
C293   H409    1.083   1_455 S
C294   C297    1.420   .     A
C294   C718    1.418   .     S
C294   C721    1.428   .     S
C295   H314    1.076   .     S
C295   C717    1.418   1_554 S
C295   C716    1.392   1_554 S
C296   O329    1.222   .     D
C296   O321    1.398   .     S
C296   C397    1.481   1_455 S
C297   C301    1.411   .     A
C298   C302    1.403   .     A
C298   C717    1.428   1_554 S
C298   C722    1.417   1_554 S
C299   C300    1.392   .     A
C299   C721    1.417   .     S
C299   C713    1.400   .     S
C300   C301    1.385   .     A
C300   H309    1.084   .     S
C301   H316    1.081   .     S
C302   H312    1.076   .     S
C303   C343    1.481   .     S
Cu304  O323    1.938   .     S
Cu304  O320    1.956   .     S
Cu304  O327    1.915   .     S
Cu304  Cu305   2.684   .     S
Cu304  N319    2.017   .     S
Cu304  O325    1.952   .     S
Cu305  N318    2.017   .     S
Cu305  O328    1.938   .     S
Cu305  O324    1.915   .     S
Cu305  O326    1.956   .     S
Cu305  O322    1.952   .     S
H306   N412    1.029   1_455 S
H307   O321    1.014   .     S
H308   C5      1.088   1_565 S
H310   N366    1.029   .     S
H311   C384    1.085   1_455 S
H315   C340    1.083   .     S
N318   H353    1.029   .     S
N318   N366    1.283   .     S
N319   N412    1.283   1_455 S
N319   H404    1.029   1_455 S
C330   O367    1.290   .     A
C330   O369    1.285   .     A
C330   C332    1.428   .     S
C331   C333    1.475   .     S
C331   C344    1.421   .     A
C331   C339    1.401   .     A
C332   C52     1.328   1_565 S
C332   H82     1.088   1_565 S
C333   O371    1.295   .     A
C333   O370    1.303   .     A
C334   C335    1.428   .     S
C335   O373    1.291   .     A
C335   O372    1.285   .     A
C336   O374    1.301   .     A
C336   O375    1.299   .     A
C336   C338    1.479   .     S
C337   C350    1.398   .     A
C337   C769    1.400   1_554 S
C337   H405    1.085   .     S
C338   C350    1.419   .     A
C338   C349    1.403   .     A
C339   C340    1.388   .     A
C339   H360    1.083   .     S
C340   C765    1.392   .     S
C341   C344    1.420   .     A
C341   C765    1.418   .     S
C341   C768    1.428   .     S
C342   H361    1.076   .     S
C342   C764    1.418   1_554 S
C342   C763    1.392   1_554 S
C343   O376    1.222   .     D
C343   O368    1.398   .     S
C344   C348    1.411   .     A
C345   C349    1.403   .     A
C345   C764    1.428   1_554 S
C345   C769    1.417   1_554 S
C346   C347    1.392   .     A
C346   C768    1.417   .     S
C346   C760    1.400   .     S
C347   C348    1.385   .     A
C347   H356    1.084   .     S
C348   H363    1.081   .     S
C349   H359    1.076   .     S
C350   C390    1.481   .     S
Cu351  O370    1.938   .     S
Cu351  O367    1.956   .     S
Cu351  O374    1.915   .     S
Cu351  Cu352   2.684   .     S
Cu351  N366    2.017   .     S
Cu351  O372    1.952   .     S
Cu352  N365    2.017   .     S
Cu352  O375    1.938   .     S
Cu352  O371    1.915   .     S
Cu352  O373    1.956   .     S
Cu352  O369    1.952   .     S
H354   O368    1.014   .     S
H355   C52     1.088   1_565 S
H357   N413    1.029   .     S
H362   C387    1.083   .     S
N365   H400    1.029   .     S
N365   N413    1.283   .     S
C377   O414    1.290   .     A
C377   O416    1.285   .     A
C377   C379    1.428   .     S
C378   C380    1.475   .     S
C378   C391    1.421   .     A
C378   C386    1.401   .     A
C379   C99     1.328   1_565 S
C379   H129    1.088   1_565 S
C380   O418    1.295   .     A
C380   O417    1.303   .     A
C381   C382    1.428   .     S
C382   O420    1.291   .     A
C382   O419    1.285   .     A
C383   O421    1.301   .     A
C383   O422    1.299   .     A
C383   C385    1.479   .     S
C384   C397    1.398   .     A
C384   C816    1.400   1_554 S
C384   H311    1.085   1_655 S
C385   C397    1.419   .     A
C385   C396    1.403   .     A
C386   C387    1.388   .     A
C386   H407    1.083   .     S
C387   C812    1.392   .     S
C388   C391    1.420   .     A
C388   C812    1.418   .     S
C388   C815    1.428   .     S
C389   H408    1.076   .     S
C389   C811    1.418   1_554 S
C389   C810    1.392   1_554 S
C390   O423    1.222   .     D
C390   O415    1.398   .     S
C391   C395    1.411   .     A
C392   C396    1.403   .     A
C392   C811    1.428   1_554 S
C392   C816    1.417   1_554 S
C393   C394    1.392   .     A
C393   C815    1.417   .     S
C393   C807    1.400   .     S
C394   C395    1.385   .     A
C394   H403    1.084   .     S
C395   H410    1.081   .     S
C396   H406    1.076   .     S
C397   C296    1.481   1_655 S
Cu398  O417    1.938   .     S
Cu398  O414    1.956   .     S
Cu398  O421    1.915   .     S
Cu398  Cu399   2.684   .     S
Cu398  N413    2.017   .     S
Cu398  O419    1.952   .     S
Cu399  N412    2.017   .     S
Cu399  O422    1.938   .     S
Cu399  O418    1.915   .     S
Cu399  O420    1.956   .     S
Cu399  O416    1.952   .     S
H401   O415    1.014   .     S
H402   C99     1.088   1_565 S
H404   N319    1.029   1_655 S
H409   C293    1.083   1_655 S
N412   H306    1.029   1_655 S
N412   N319    1.283   1_655 S
C424   O461    1.290   .     A
C424   O463    1.285   .     A
C424   C426    1.428   .     S
C425   C427    1.475   .     S
C425   C438    1.421   .     A
C425   C433    1.401   .     A
C426   C569    1.328   .     S
C426   H599    1.088   .     S
C427   O465    1.295   .     A
C427   O464    1.303   .     A
C428   C429    1.428   .     S
C428   C708    1.328   1_545 S
C428   H731    1.088   1_545 S
C429   O467    1.291   .     A
C429   O466    1.285   .     A
C430   O468    1.301   .     A
C430   O469    1.299   .     A
C430   C432    1.479   .     S
C431   C444    1.398   .     A
C431   H499    1.085   .     S
C432   C444    1.419   .     A
C432   C443    1.403   .     A
C433   C434    1.388   .     A
C433   H454    1.083   .     S
C434   C13     1.392   1_556 S
C434   H550    1.083   1_455 S
C435   C438    1.420   .     A
C435   C13     1.418   1_556 S
C435   C16     1.428   1_556 S
C436   H455    1.076   .     S
C437   O470    1.222   .     D
C437   O462    1.398   .     S
C437   C538    1.481   1_455 S
C438   C442    1.411   .     A
C439   C443    1.403   .     A
C440   C441    1.392   .     A
C440   C16     1.417   1_556 S
C440   C8      1.400   1_556 S
C441   C442    1.385   .     A
C441   H450    1.084   .     S
C442   H457    1.081   .     S
C443   H453    1.076   .     S
C444   C484    1.481   .     S
Cu445  O464    1.938   .     S
Cu445  O461    1.956   .     S
Cu445  O468    1.915   .     S
Cu445  Cu446   2.684   .     S
Cu445  N460    2.017   .     S
Cu445  O466    1.952   .     S
Cu446  N459    2.017   .     S
Cu446  O469    1.938   .     S
Cu446  O465    1.915   .     S
Cu446  O467    1.956   .     S
Cu446  O463    1.952   .     S
H447   N553    1.029   1_455 S
H448   O462    1.014   .     S
H449   C569    1.088   .     S
H451   N507    1.029   .     S
H452   C525    1.085   1_455 S
H456   C481    1.083   .     S
H458   C708    1.088   1_545 S
N459   H494    1.029   .     S
N459   N507    1.283   .     S
N460   N553    1.283   1_455 S
N460   H545    1.029   1_455 S
C471   O508    1.290   .     A
C471   O510    1.285   .     A
C471   C473    1.428   .     S
C472   C474    1.475   .     S
C472   C485    1.421   .     A
C472   C480    1.401   .     A
C473   C616    1.328   .     S
C473   H646    1.088   .     S
C474   O512    1.295   .     A
C474   O511    1.303   .     A
C475   C476    1.428   .     S
C475   C755    1.328   1_545 S
C475   H778    1.088   1_545 S
C476   O514    1.291   .     A
C476   O513    1.285   .     A
C477   O515    1.301   .     A
C477   O516    1.299   .     A
C477   C479    1.479   .     S
C478   C491    1.398   .     A
C478   H546    1.085   .     S
C479   C491    1.419   .     A
C479   C490    1.403   .     A
C480   C481    1.388   .     A
C480   H501    1.083   .     S
C481   C60     1.392   1_556 S
C482   C485    1.420   .     A
C482   C60     1.418   1_556 S
C482   C63     1.428   1_556 S
C483   H502    1.076   .     S
C484   O517    1.222   .     D
C484   O509    1.398   .     S
C485   C489    1.411   .     A
C486   C490    1.403   .     A
C487   C488    1.392   .     A
C487   C63     1.417   1_556 S
C487   C55     1.400   1_556 S
C488   C489    1.385   .     A
C488   H497    1.084   .     S
C489   H504    1.081   .     S
C490   H500    1.076   .     S
C491   C531    1.481   .     S
Cu492  O511    1.938   .     S
Cu492  O508    1.956   .     S
Cu492  O515    1.915   .     S
Cu492  Cu493   2.684   .     S
Cu492  N507    2.017   .     S
Cu492  O513    1.952   .     S
Cu493  N506    2.017   .     S
Cu493  O516    1.938   .     S
Cu493  O512    1.915   .     S
Cu493  O514    1.956   .     S
Cu493  O510    1.952   .     S
H495   O509    1.014   .     S
H496   C616    1.088   .     S
H498   N554    1.029   .     S
H503   C528    1.083   .     S
H505   C755    1.088   1_545 S
N506   H541    1.029   .     S
N506   N554    1.283   .     S
C518   O555    1.290   .     A
C518   O557    1.285   .     A
C518   C520    1.428   .     S
C519   C521    1.475   .     S
C519   C532    1.421   .     A
C519   C527    1.401   .     A
C520   C663    1.328   .     S
C520   H693    1.088   .     S
C521   O559    1.295   .     A
C521   O558    1.303   .     A
C522   C523    1.428   .     S
C522   C802    1.328   1_545 S
C522   H825    1.088   1_545 S
C523   O561    1.291   .     A
C523   O560    1.285   .     A
C524   O562    1.301   .     A
C524   O563    1.299   .     A
C524   C526    1.479   .     S
C525   C538    1.398   .     A
C525   H452    1.085   1_655 S
C526   C538    1.419   .     A
C526   C537    1.403   .     A
C527   C528    1.388   .     A
C527   H548    1.083   .     S
C528   C107    1.392   1_556 S
C529   C532    1.420   .     A
C529   C107    1.418   1_556 S
C529   C110    1.428   1_556 S
C530   H549    1.076   .     S
C531   O564    1.222   .     D
C531   O556    1.398   .     S
C532   C536    1.411   .     A
C533   C537    1.403   .     A
C534   C535    1.392   .     A
C534   C110    1.417   1_556 S
C534   C102    1.400   1_556 S
C535   C536    1.385   .     A
C535   H544    1.084   .     S
C536   H551    1.081   .     S
C537   H547    1.076   .     S
C538   C437    1.481   1_655 S
Cu539  O558    1.938   .     S
Cu539  O555    1.956   .     S
Cu539  O562    1.915   .     S
Cu539  Cu540   2.684   .     S
Cu539  N554    2.017   .     S
Cu539  O560    1.952   .     S
Cu540  N553    2.017   .     S
Cu540  O563    1.938   .     S
Cu540  O559    1.915   .     S
Cu540  O561    1.956   .     S
Cu540  O557    1.952   .     S
H542   O556    1.014   .     S
H543   C663    1.088   .     S
H545   N460    1.029   1_655 S
H550   C434    1.083   1_655 S
H552   C802    1.088   1_545 S
N553   H447    1.029   1_655 S
N553   N460    1.283   1_655 S
C565   O602    1.290   .     A
C565   O604    1.285   .     A
C565   C567    1.428   .     S
C566   C568    1.475   .     S
C566   C579    1.421   .     A
C566   C574    1.401   .     A
C567   C710    1.328   .     S
C567   H740    1.088   .     S
C568   O606    1.295   .     A
C568   O605    1.303   .     A
C569   C570    1.428   .     S
C570   O608    1.291   .     A
C570   O607    1.285   .     A
C571   O609    1.301   .     A
C571   O610    1.299   .     A
C571   C573    1.479   .     S
C572   C585    1.398   .     A
C572   H640    1.085   .     S
C573   C585    1.419   .     A
C573   C584    1.403   .     A
C574   C575    1.388   .     A
C574   H595    1.083   .     S
C575   C154    1.392   1_556 S
C575   H691    1.083   1_455 S
C576   C579    1.420   .     A
C576   C154    1.418   1_556 S
C576   C157    1.428   1_556 S
C577   H596    1.076   .     S
C578   O611    1.222   .     D
C578   O603    1.398   .     S
C578   C679    1.481   1_455 S
C579   C583    1.411   .     A
C580   C584    1.403   .     A
C581   C582    1.392   .     A
C581   C157    1.417   1_556 S
C581   C149    1.400   1_556 S
C582   C583    1.385   .     A
C582   H591    1.084   .     S
C583   H598    1.081   .     S
C584   H594    1.076   .     S
C585   C625    1.481   .     S
Cu586  O605    1.938   .     S
Cu586  O602    1.956   .     S
Cu586  O609    1.915   .     S
Cu586  Cu587   2.684   .     S
Cu586  N601    2.017   .     S
Cu586  O607    1.952   .     S
Cu587  N600    2.017   .     S
Cu587  O610    1.938   .     S
Cu587  O606    1.915   .     S
Cu587  O608    1.956   .     S
Cu587  O604    1.952   .     S
H588   N694    1.029   1_455 S
H589   O603    1.014   .     S
H590   C710    1.088   .     S
H592   N648    1.029   .     S
H593   C666    1.085   1_455 S
H597   C622    1.083   .     S
N600   H635    1.029   .     S
N600   N648    1.283   .     S
N601   N694    1.283   1_455 S
N601   H686    1.029   1_455 S
C612   O649    1.290   .     A
C612   O651    1.285   .     A
C612   C614    1.428   .     S
C613   C615    1.475   .     S
C613   C626    1.421   .     A
C613   C621    1.401   .     A
C614   C757    1.328   .     S
C614   H787    1.088   .     S
C615   O653    1.295   .     A
C615   O652    1.303   .     A
C616   C617    1.428   .     S
C617   O655    1.291   .     A
C617   O654    1.285   .     A
C618   O656    1.301   .     A
C618   O657    1.299   .     A
C618   C620    1.479   .     S
C619   C632    1.398   .     A
C619   H687    1.085   .     S
C620   C632    1.419   .     A
C620   C631    1.403   .     A
C621   C622    1.388   .     A
C621   H642    1.083   .     S
C622   C201    1.392   1_556 S
C623   C626    1.420   .     A
C623   C201    1.418   1_556 S
C623   C204    1.428   1_556 S
C624   H643    1.076   .     S
C625   O658    1.222   .     D
C625   O650    1.398   .     S
C626   C630    1.411   .     A
C627   C631    1.403   .     A
C628   C629    1.392   .     A
C628   C204    1.417   1_556 S
C628   C196    1.400   1_556 S
C629   C630    1.385   .     A
C629   H638    1.084   .     S
C630   H645    1.081   .     S
C631   H641    1.076   .     S
C632   C672    1.481   .     S
Cu633  O652    1.938   .     S
Cu633  O649    1.956   .     S
Cu633  O656    1.915   .     S
Cu633  Cu634   2.684   .     S
Cu633  N648    2.017   .     S
Cu633  O654    1.952   .     S
Cu634  N647    2.017   .     S
Cu634  O657    1.938   .     S
Cu634  O653    1.915   .     S
Cu634  O655    1.956   .     S
Cu634  O651    1.952   .     S
H636   O650    1.014   .     S
H637   C757    1.088   .     S
H639   N695    1.029   .     S
H644   C669    1.083   .     S
N647   H682    1.029   .     S
N647   N695    1.283   .     S
C659   O696    1.290   .     A
C659   O698    1.285   .     A
C659   C661    1.428   .     S
C660   C662    1.475   .     S
C660   C673    1.421   .     A
C660   C668    1.401   .     A
C661   C804    1.328   .     S
C661   H834    1.088   .     S
C662   O700    1.295   .     A
C662   O699    1.303   .     A
C663   C664    1.428   .     S
C664   O702    1.291   .     A
C664   O701    1.285   .     A
C665   O703    1.301   .     A
C665   O704    1.299   .     A
C665   C667    1.479   .     S
C666   C679    1.398   .     A
C666   H593    1.085   1_655 S
C667   C679    1.419   .     A
C667   C678    1.403   .     A
C668   C669    1.388   .     A
C668   H689    1.083   .     S
C669   C248    1.392   1_556 S
C670   C673    1.420   .     A
C670   C248    1.418   1_556 S
C670   C251    1.428   1_556 S
C671   H690    1.076   .     S
C672   O705    1.222   .     D
C672   O697    1.398   .     S
C673   C677    1.411   .     A
C674   C678    1.403   .     A
C675   C676    1.392   .     A
C675   C251    1.417   1_556 S
C675   C243    1.400   1_556 S
C676   C677    1.385   .     A
C676   H685    1.084   .     S
C677   H692    1.081   .     S
C678   H688    1.076   .     S
C679   C578    1.481   1_655 S
Cu680  O699    1.938   .     S
Cu680  O696    1.956   .     S
Cu680  O703    1.915   .     S
Cu680  Cu681   2.684   .     S
Cu680  N695    2.017   .     S
Cu680  O701    1.952   .     S
Cu681  N694    2.017   .     S
Cu681  O704    1.938   .     S
Cu681  O700    1.915   .     S
Cu681  O702    1.956   .     S
Cu681  O698    1.952   .     S
H683   O697    1.014   .     S
H684   C804    1.088   .     S
H686   N601    1.029   1_655 S
H691   C575    1.083   1_655 S
N694   H588    1.029   1_655 S
N694   N601    1.283   1_655 S
C706   O743    1.290   .     A
C706   O745    1.285   .     A
C706   C708    1.428   .     S
C707   C709    1.475   .     S
C707   C720    1.421   .     A
C707   C715    1.401   .     A
C708   C428    1.328   1_565 S
C708   H458    1.088   1_565 S
C709   O747    1.295   .     A
C709   O746    1.303   .     A
C710   C711    1.428   .     S
C711   O749    1.291   .     A
C711   O748    1.285   .     A
C712   O750    1.301   .     A
C712   O751    1.299   .     A
C712   C714    1.479   .     S
C713   C726    1.398   .     A
C713   H781    1.085   .     S
C714   C726    1.419   .     A
C714   C725    1.403   .     A
C715   C716    1.388   .     A
C715   H736    1.083   .     S
C716   C295    1.392   1_556 S
C716   H832    1.083   1_455 S
C717   C720    1.420   .     A
C717   C295    1.418   1_556 S
C717   C298    1.428   1_556 S
C718   H737    1.076   .     S
C719   O752    1.222   .     D
C719   O744    1.398   .     S
C719   C820    1.481   1_455 S
C720   C724    1.411   .     A
C721   C725    1.403   .     A
C722   C723    1.392   .     A
C722   C298    1.417   1_556 S
C722   C290    1.400   1_556 S
C723   C724    1.385   .     A
C723   H732    1.084   .     S
C724   H739    1.081   .     S
C725   H735    1.076   .     S
C726   C766    1.481   .     S
Cu727  O746    1.938   .     S
Cu727  O743    1.956   .     S
Cu727  O750    1.915   .     S
Cu727  Cu728   2.684   .     S
Cu727  N742    2.017   .     S
Cu727  O748    1.952   .     S
Cu728  N741    2.017   .     S
Cu728  O751    1.938   .     S
Cu728  O747    1.915   .     S
Cu728  O749    1.956   .     S
Cu728  O745    1.952   .     S
H729   N835    1.029   1_455 S
H730   O744    1.014   .     S
H731   C428    1.088   1_565 S
H733   N789    1.029   .     S
H734   C807    1.085   1_455 S
H738   C763    1.083   .     S
N741   H776    1.029   .     S
N741   N789    1.283   .     S
N742   N835    1.283   1_455 S
N742   H827    1.029   1_455 S
C753   O790    1.290   .     A
C753   O792    1.285   .     A
C753   C755    1.428   .     S
C754   C756    1.475   .     S
C754   C767    1.421   .     A
C754   C762    1.401   .     A
C755   C475    1.328   1_565 S
C755   H505    1.088   1_565 S
C756   O794    1.295   .     A
C756   O793    1.303   .     A
C757   C758    1.428   .     S
C758   O796    1.291   .     A
C758   O795    1.285   .     A
C759   O797    1.301   .     A
C759   O798    1.299   .     A
C759   C761    1.479   .     S
C760   C773    1.398   .     A
C760   H828    1.085   .     S
C761   C773    1.419   .     A
C761   C772    1.403   .     A
C762   C763    1.388   .     A
C762   H783    1.083   .     S
C763   C342    1.392   1_556 S
C764   C767    1.420   .     A
C764   C342    1.418   1_556 S
C764   C345    1.428   1_556 S
C765   H784    1.076   .     S
C766   O799    1.222   .     D
C766   O791    1.398   .     S
C767   C771    1.411   .     A
C768   C772    1.403   .     A
C769   C770    1.392   .     A
C769   C345    1.417   1_556 S
C769   C337    1.400   1_556 S
C770   C771    1.385   .     A
C770   H779    1.084   .     S
C771   H786    1.081   .     S
C772   H782    1.076   .     S
C773   C813    1.481   .     S
Cu774  O793    1.938   .     S
Cu774  O790    1.956   .     S
Cu774  O797    1.915   .     S
Cu774  Cu775   2.684   .     S
Cu774  N789    2.017   .     S
Cu774  O795    1.952   .     S
Cu775  N788    2.017   .     S
Cu775  O798    1.938   .     S
Cu775  O794    1.915   .     S
Cu775  O796    1.956   .     S
Cu775  O792    1.952   .     S
H777   O791    1.014   .     S
H778   C475    1.088   1_565 S
H780   N836    1.029   .     S
H785   C810    1.083   .     S
N788   H823    1.029   .     S
N788   N836    1.283   .     S
C800   O837    1.290   .     A
C800   O839    1.285   .     A
C800   C802    1.428   .     S
C801   C803    1.475   .     S
C801   C814    1.421   .     A
C801   C809    1.401   .     A
C802   C522    1.328   1_565 S
C802   H552    1.088   1_565 S
C803   O841    1.295   .     A
C803   O840    1.303   .     A
C804   C805    1.428   .     S
C805   O843    1.291   .     A
C805   O842    1.285   .     A
C806   O844    1.301   .     A
C806   O845    1.299   .     A
C806   C808    1.479   .     S
C807   C820    1.398   .     A
C807   H734    1.085   1_655 S
C808   C820    1.419   .     A
C808   C819    1.403   .     A
C809   C810    1.388   .     A
C809   H830    1.083   .     S
C810   C389    1.392   1_556 S
C811   C814    1.420   .     A
C811   C389    1.418   1_556 S
C811   C392    1.428   1_556 S
C812   H831    1.076   .     S
C813   O846    1.222   .     D
C813   O838    1.398   .     S
C814   C818    1.411   .     A
C815   C819    1.403   .     A
C816   C817    1.392   .     A
C816   C392    1.417   1_556 S
C816   C384    1.400   1_556 S
C817   C818    1.385   .     A
C817   H826    1.084   .     S
C818   H833    1.081   .     S
C819   H829    1.076   .     S
C820   C719    1.481   1_655 S
Cu821  O840    1.938   .     S
Cu821  O837    1.956   .     S
Cu821  O844    1.915   .     S
Cu821  Cu822   2.684   .     S
Cu821  N836    2.017   .     S
Cu821  O842    1.952   .     S
Cu822  N835    2.017   .     S
Cu822  O845    1.938   .     S
Cu822  O841    1.915   .     S
Cu822  O843    1.956   .     S
Cu822  O839    1.952   .     S
H824   O838    1.014   .     S
H825   C522    1.088   1_565 S
H827   N742    1.029   1_655 S
H832   C716    1.083   1_655 S
N835   H729    1.029   1_655 S
N835   N742    1.283   1_655 S
