data_str_m2_o10_o16_pcu_sym.63
_audit_creation_date              2020-01-03
_audit_creation_method            'Materials Studio'
_symmetry_space_group_name_H-M    'P1'
_symmetry_Int_Tables_number       1
_symmetry_cell_setting            triclinic
loop_
_symmetry_equiv_pos_as_xyz
  x,y,z
_cell_length_a                    22.6067
_cell_length_b                    26.1003
_cell_length_c                    26.7691
_cell_angle_alpha                 94.6576
_cell_angle_beta                  79.6208
_cell_angle_gamma                 102.7712
loop_
_atom_site_label
_atom_site_type_symbol
_atom_site_fract_x
_atom_site_fract_y
_atom_site_fract_z
_atom_site_U_iso_or_equiv
_atom_site_adp_type
_atom_site_occupancy
C1     C     0.18148   0.26649   0.25074   0.00000  Uiso   1.00
C2     C     0.11795   0.13300   0.39654   0.00000  Uiso   1.00
C3     C     0.18706   0.32213   0.25364   0.00000  Uiso   1.00
C4     C     0.13404   0.15405   0.34475   0.00000  Uiso   1.00
C5     C     0.14650   0.01134   0.23753   0.00000  Uiso   1.00
C6     C     0.15255   0.06689   0.24590   0.00000  Uiso   1.00
C7     C     0.19924   0.17238   0.15340   0.00000  Uiso   1.00
C8     C     0.29583   0.18242   0.02366   0.00000  Uiso   1.00
C9     C     0.21673   0.17686   0.09802   0.00000  Uiso   1.00
C10    C     0.06337   0.09691   0.41260   0.00000  Uiso   1.00
C11    C     0.04482   0.08864   0.46464   0.00000  Uiso   1.00
C12    C     0.14288   0.14204   0.48176   0.00000  Uiso   1.00
C13    C     0.08239   0.11422   0.49945   0.00000  Uiso   1.00
C14    C     0.32519   0.10389   0.21090   0.00000  Uiso   1.00
C15    C     0.11343   0.19355   0.08603   0.00000  Uiso   1.00
C16    C     0.23929   0.09850   0.36920   0.00000  Uiso   1.00
C17    C     0.16253   0.14169   0.42885   0.00000  Uiso   1.00
C18    C     0.18742   0.16155   0.01396   0.00000  Uiso   1.00
C19    C     0.25081   0.16898   0.49261   0.00000  Uiso   1.00
C20    C     0.26853   0.15767   0.44114   0.00000  Uiso   1.00
C21    C     0.22422   0.13842   0.41069   0.00000  Uiso   1.00
C22    C     0.17169   0.17345   0.06640   0.00000  Uiso   1.00
C23    C     0.27880   0.18327   0.07606   0.00000  Uiso   1.00
Cu24   Cu    0.10710   0.16105   0.24435   0.00000  Uiso   1.00
Cu25   Cu    0.22623   0.17228   0.25564   0.00000  Uiso   1.00
H26    H     0.31425   0.18915   0.09947   0.00000  Uiso   1.00
H27    H     0.29236   0.10821   0.18673   0.00000  Uiso   1.00
H28    H     0.12364   0.22871   0.11173   0.00000  Uiso   1.00
H29    H     0.09522   0.20697   0.05475   0.00000  Uiso   1.00
H30    H     0.07746   0.16291   0.10674   0.00000  Uiso   1.00
H31    H     0.20075   0.08129   0.34863   0.00000  Uiso   1.00
H32    H     0.28069   0.11558   0.34195   0.00000  Uiso   1.00
H33    H     0.24701   0.06473   0.38764   0.00000  Uiso   1.00
H34    H     0.00557   0.21171   0.28420   0.00000  Uiso   1.00
H35    H     0.31635   0.15860   0.42577   0.00000  Uiso   1.00
H36    H     0.01080   0.18869   0.00740   0.00000  Uiso   1.00
H37    H     0.06685   0.10589   0.03905   0.00000  Uiso   1.00
H38    H     0.00290   0.06069   0.47789   0.00000  Uiso   1.00
H39    H     0.22350   0.01165   0.27266   0.00000  Uiso   1.00
H40    H     0.02947   0.09022   0.18445   0.00000  Uiso   1.00
H41    H     0.30633   0.07338   0.23925   0.00000  Uiso   1.00
I42    I     0.07495   0.30725   0.19507   0.00000  Uiso   1.00
I43    I     0.02854   0.03760   0.36023   0.00000  Uiso   1.00
N44    N     0.31574   0.18074   0.26416   0.00000  Uiso   1.00
N45    N     0.01759   0.15259   0.23584   0.00000  Uiso   1.00
O46    O     0.12797   0.23807   0.24633   0.00000  Uiso   1.00
O47    O     0.22858   0.24755   0.25586   0.00000  Uiso   1.00
O48    O     0.09181   0.15960   0.31839   0.00000  Uiso   1.00
O49    O     0.19242   0.16908   0.32793   0.00000  Uiso   1.00
O50    O     0.10476   0.08578   0.24413   0.00000  Uiso   1.00
O51    O     0.20536   0.09526   0.25367   0.00000  Uiso   1.00
O52    O     0.14092   0.16425   0.17207   0.00000  Uiso   1.00
O53    O     0.24152   0.17373   0.18160   0.00000  Uiso   1.00
C54    C     0.51481   0.26649   0.25074   0.00000  Uiso   1.00
C55    C     0.45128   0.13300   0.39654   0.00000  Uiso   1.00
C56    C     0.52040   0.32213   0.25364   0.00000  Uiso   1.00
C57    C     0.46737   0.15405   0.34475   0.00000  Uiso   1.00
C58    C     0.47983   0.01134   0.23753   0.00000  Uiso   1.00
C59    C     0.48588   0.06689   0.24590   0.00000  Uiso   1.00
C60    C     0.53257   0.17238   0.15340   0.00000  Uiso   1.00
C61    C     0.62916   0.18242   0.02366   0.00000  Uiso   1.00
C62    C     0.55006   0.17686   0.09802   0.00000  Uiso   1.00
C63    C     0.39670   0.09691   0.41260   0.00000  Uiso   1.00
C64    C     0.37815   0.08864   0.46464   0.00000  Uiso   1.00
C65    C     0.47622   0.14204   0.48176   0.00000  Uiso   1.00
C66    C     0.41572   0.11422   0.49945   0.00000  Uiso   1.00
C67    C     0.65852   0.10389   0.21090   0.00000  Uiso   1.00
C68    C     0.44677   0.19355   0.08603   0.00000  Uiso   1.00
C69    C     0.57262   0.09850   0.36920   0.00000  Uiso   1.00
C70    C     0.49586   0.14169   0.42885   0.00000  Uiso   1.00
C71    C     0.52076   0.16155   0.01396   0.00000  Uiso   1.00
C72    C     0.58415   0.16898   0.49261   0.00000  Uiso   1.00
C73    C     0.60186   0.15767   0.44114   0.00000  Uiso   1.00
C74    C     0.55755   0.13842   0.41069   0.00000  Uiso   1.00
C75    C     0.50502   0.17345   0.06640   0.00000  Uiso   1.00
C76    C     0.61214   0.18327   0.07606   0.00000  Uiso   1.00
Cu77   Cu    0.44043   0.16105   0.24435   0.00000  Uiso   1.00
Cu78   Cu    0.55957   0.17228   0.25564   0.00000  Uiso   1.00
H79    H     0.64759   0.18915   0.09947   0.00000  Uiso   1.00
H80    H     0.62569   0.10821   0.18673   0.00000  Uiso   1.00
H81    H     0.45698   0.22871   0.11173   0.00000  Uiso   1.00
H82    H     0.42855   0.20697   0.05475   0.00000  Uiso   1.00
H83    H     0.41079   0.16291   0.10674   0.00000  Uiso   1.00
H84    H     0.53408   0.08129   0.34863   0.00000  Uiso   1.00
H85    H     0.61402   0.11558   0.34195   0.00000  Uiso   1.00
H86    H     0.58034   0.06473   0.38764   0.00000  Uiso   1.00
H87    H     0.33891   0.21171   0.28420   0.00000  Uiso   1.00
H88    H     0.64968   0.15860   0.42577   0.00000  Uiso   1.00
H89    H     0.34413   0.18869   0.00740   0.00000  Uiso   1.00
H90    H     0.40019   0.10589   0.03905   0.00000  Uiso   1.00
H91    H     0.33623   0.06069   0.47789   0.00000  Uiso   1.00
H92    H     0.55683   0.01165   0.27266   0.00000  Uiso   1.00
H93    H     0.36280   0.09022   0.18445   0.00000  Uiso   1.00
H94    H     0.63966   0.07338   0.23925   0.00000  Uiso   1.00
I95    I     0.40829   0.30725   0.19507   0.00000  Uiso   1.00
I96    I     0.36187   0.03760   0.36023   0.00000  Uiso   1.00
N97    N     0.64908   0.18074   0.26416   0.00000  Uiso   1.00
N98    N     0.35092   0.15259   0.23584   0.00000  Uiso   1.00
O99    O     0.46131   0.23807   0.24633   0.00000  Uiso   1.00
O100   O     0.56191   0.24755   0.25586   0.00000  Uiso   1.00
O101   O     0.42515   0.15960   0.31839   0.00000  Uiso   1.00
O102   O     0.52575   0.16908   0.32793   0.00000  Uiso   1.00
O103   O     0.43809   0.08578   0.24413   0.00000  Uiso   1.00
O104   O     0.53869   0.09526   0.25367   0.00000  Uiso   1.00
O105   O     0.47425   0.16425   0.17207   0.00000  Uiso   1.00
O106   O     0.57485   0.17373   0.18160   0.00000  Uiso   1.00
C107   C     0.84814   0.26649   0.25074   0.00000  Uiso   1.00
C108   C     0.78461   0.13300   0.39654   0.00000  Uiso   1.00
C109   C     0.85373   0.32213   0.25364   0.00000  Uiso   1.00
C110   C     0.80070   0.15405   0.34475   0.00000  Uiso   1.00
C111   C     0.81316   0.01134   0.23753   0.00000  Uiso   1.00
C112   C     0.81922   0.06689   0.24590   0.00000  Uiso   1.00
C113   C     0.86590   0.17238   0.15340   0.00000  Uiso   1.00
C114   C     0.96250   0.18242   0.02366   0.00000  Uiso   1.00
C115   C     0.88340   0.17686   0.09802   0.00000  Uiso   1.00
C116   C     0.73003   0.09691   0.41260   0.00000  Uiso   1.00
C117   C     0.71149   0.08864   0.46464   0.00000  Uiso   1.00
C118   C     0.80955   0.14204   0.48176   0.00000  Uiso   1.00
C119   C     0.74906   0.11422   0.49945   0.00000  Uiso   1.00
C120   C     0.99185   0.10389   0.21090   0.00000  Uiso   1.00
C121   C     0.78010   0.19355   0.08603   0.00000  Uiso   1.00
C122   C     0.90595   0.09850   0.36920   0.00000  Uiso   1.00
C123   C     0.82919   0.14169   0.42885   0.00000  Uiso   1.00
C124   C     0.85409   0.16155   0.01396   0.00000  Uiso   1.00
C125   C     0.91748   0.16898   0.49261   0.00000  Uiso   1.00
C126   C     0.93519   0.15767   0.44114   0.00000  Uiso   1.00
C127   C     0.89088   0.13842   0.41069   0.00000  Uiso   1.00
C128   C     0.83836   0.17345   0.06640   0.00000  Uiso   1.00
C129   C     0.94547   0.18327   0.07606   0.00000  Uiso   1.00
Cu130  Cu    0.77377   0.16105   0.24435   0.00000  Uiso   1.00
Cu131  Cu    0.89290   0.17228   0.25564   0.00000  Uiso   1.00
H132   H     0.98092   0.18915   0.09947   0.00000  Uiso   1.00
H133   H     0.95903   0.10821   0.18673   0.00000  Uiso   1.00
H134   H     0.79031   0.22871   0.11173   0.00000  Uiso   1.00
H135   H     0.76189   0.20697   0.05475   0.00000  Uiso   1.00
H136   H     0.74412   0.16291   0.10674   0.00000  Uiso   1.00
H137   H     0.86741   0.08129   0.34863   0.00000  Uiso   1.00
H138   H     0.94735   0.11558   0.34195   0.00000  Uiso   1.00
H139   H     0.91367   0.06473   0.38764   0.00000  Uiso   1.00
H140   H     0.67224   0.21171   0.28420   0.00000  Uiso   1.00
H141   H     0.98301   0.15860   0.42577   0.00000  Uiso   1.00
H142   H     0.67747   0.18869   0.00740   0.00000  Uiso   1.00
H143   H     0.73352   0.10589   0.03905   0.00000  Uiso   1.00
H144   H     0.66956   0.06069   0.47789   0.00000  Uiso   1.00
H145   H     0.89016   0.01165   0.27266   0.00000  Uiso   1.00
H146   H     0.69614   0.09022   0.18445   0.00000  Uiso   1.00
H147   H     0.97299   0.07338   0.23925   0.00000  Uiso   1.00
I148   I     0.74162   0.30725   0.19507   0.00000  Uiso   1.00
I149   I     0.69520   0.03760   0.36023   0.00000  Uiso   1.00
N150   N     0.98241   0.18074   0.26416   0.00000  Uiso   1.00
N151   N     0.68426   0.15259   0.23584   0.00000  Uiso   1.00
O152   O     0.79464   0.23807   0.24633   0.00000  Uiso   1.00
O153   O     0.89524   0.24755   0.25586   0.00000  Uiso   1.00
O154   O     0.75848   0.15960   0.31839   0.00000  Uiso   1.00
O155   O     0.85908   0.16908   0.32793   0.00000  Uiso   1.00
O156   O     0.77142   0.08578   0.24413   0.00000  Uiso   1.00
O157   O     0.87203   0.09526   0.25367   0.00000  Uiso   1.00
O158   O     0.80758   0.16425   0.17207   0.00000  Uiso   1.00
O159   O     0.90819   0.17373   0.18160   0.00000  Uiso   1.00
C160   C     0.18148   0.59982   0.25074   0.00000  Uiso   1.00
C161   C     0.11795   0.46633   0.39654   0.00000  Uiso   1.00
C162   C     0.18706   0.65546   0.25364   0.00000  Uiso   1.00
C163   C     0.13404   0.48738   0.34475   0.00000  Uiso   1.00
C164   C     0.14650   0.34467   0.23753   0.00000  Uiso   1.00
C165   C     0.15255   0.40022   0.24590   0.00000  Uiso   1.00
C166   C     0.19924   0.50571   0.15340   0.00000  Uiso   1.00
C167   C     0.29583   0.51575   0.02366   0.00000  Uiso   1.00
C168   C     0.21673   0.51019   0.09802   0.00000  Uiso   1.00
C169   C     0.06337   0.43025   0.41260   0.00000  Uiso   1.00
C170   C     0.04482   0.42197   0.46464   0.00000  Uiso   1.00
C171   C     0.14288   0.47537   0.48176   0.00000  Uiso   1.00
C172   C     0.08239   0.44755   0.49945   0.00000  Uiso   1.00
C173   C     0.32519   0.43722   0.21090   0.00000  Uiso   1.00
C174   C     0.11343   0.52688   0.08603   0.00000  Uiso   1.00
C175   C     0.23929   0.43184   0.36920   0.00000  Uiso   1.00
C176   C     0.16253   0.47503   0.42885   0.00000  Uiso   1.00
C177   C     0.18742   0.49489   0.01396   0.00000  Uiso   1.00
C178   C     0.25081   0.50231   0.49261   0.00000  Uiso   1.00
C179   C     0.26853   0.49101   0.44114   0.00000  Uiso   1.00
C180   C     0.22422   0.47175   0.41069   0.00000  Uiso   1.00
C181   C     0.17169   0.50678   0.06640   0.00000  Uiso   1.00
C182   C     0.27880   0.51660   0.07606   0.00000  Uiso   1.00
Cu183  Cu    0.10710   0.49439   0.24435   0.00000  Uiso   1.00
Cu184  Cu    0.22623   0.50561   0.25564   0.00000  Uiso   1.00
H185   H     0.31425   0.52249   0.09947   0.00000  Uiso   1.00
H186   H     0.29236   0.44154   0.18673   0.00000  Uiso   1.00
H187   H     0.12364   0.56204   0.11173   0.00000  Uiso   1.00
H188   H     0.09522   0.54030   0.05475   0.00000  Uiso   1.00
H189   H     0.07746   0.49625   0.10674   0.00000  Uiso   1.00
H190   H     0.20075   0.41463   0.34863   0.00000  Uiso   1.00
H191   H     0.28069   0.44891   0.34195   0.00000  Uiso   1.00
H192   H     0.24701   0.39806   0.38764   0.00000  Uiso   1.00
H193   H     0.00557   0.54504   0.28420   0.00000  Uiso   1.00
H194   H     0.31635   0.49193   0.42577   0.00000  Uiso   1.00
H195   H     0.01080   0.52202   0.00740   0.00000  Uiso   1.00
H196   H     0.06685   0.43922   0.03905   0.00000  Uiso   1.00
H197   H     0.00290   0.39402   0.47789   0.00000  Uiso   1.00
H198   H     0.22350   0.34498   0.27266   0.00000  Uiso   1.00
H199   H     0.02947   0.42355   0.18445   0.00000  Uiso   1.00
H200   H     0.30633   0.40672   0.23925   0.00000  Uiso   1.00
I201   I     0.07495   0.64058   0.19507   0.00000  Uiso   1.00
I202   I     0.02854   0.37094   0.36023   0.00000  Uiso   1.00
N203   N     0.31574   0.51407   0.26416   0.00000  Uiso   1.00
N204   N     0.01759   0.48593   0.23584   0.00000  Uiso   1.00
O205   O     0.12797   0.57141   0.24633   0.00000  Uiso   1.00
O206   O     0.22858   0.58089   0.25586   0.00000  Uiso   1.00
O207   O     0.09181   0.49293   0.31839   0.00000  Uiso   1.00
O208   O     0.19242   0.50241   0.32793   0.00000  Uiso   1.00
O209   O     0.10476   0.41911   0.24413   0.00000  Uiso   1.00
O210   O     0.20536   0.42859   0.25367   0.00000  Uiso   1.00
O211   O     0.14092   0.49759   0.17207   0.00000  Uiso   1.00
O212   O     0.24152   0.50707   0.18160   0.00000  Uiso   1.00
C213   C     0.51481   0.59982   0.25074   0.00000  Uiso   1.00
C214   C     0.45128   0.46633   0.39654   0.00000  Uiso   1.00
C215   C     0.52040   0.65546   0.25364   0.00000  Uiso   1.00
C216   C     0.46737   0.48738   0.34475   0.00000  Uiso   1.00
C217   C     0.47983   0.34467   0.23753   0.00000  Uiso   1.00
C218   C     0.48588   0.40022   0.24590   0.00000  Uiso   1.00
C219   C     0.53257   0.50571   0.15340   0.00000  Uiso   1.00
C220   C     0.62916   0.51575   0.02366   0.00000  Uiso   1.00
C221   C     0.55006   0.51019   0.09802   0.00000  Uiso   1.00
C222   C     0.39670   0.43025   0.41260   0.00000  Uiso   1.00
C223   C     0.37815   0.42197   0.46464   0.00000  Uiso   1.00
C224   C     0.47622   0.47537   0.48176   0.00000  Uiso   1.00
C225   C     0.41572   0.44755   0.49945   0.00000  Uiso   1.00
C226   C     0.65852   0.43722   0.21090   0.00000  Uiso   1.00
C227   C     0.44677   0.52688   0.08603   0.00000  Uiso   1.00
C228   C     0.57262   0.43184   0.36920   0.00000  Uiso   1.00
C229   C     0.49586   0.47503   0.42885   0.00000  Uiso   1.00
C230   C     0.52076   0.49489   0.01396   0.00000  Uiso   1.00
C231   C     0.58415   0.50231   0.49261   0.00000  Uiso   1.00
C232   C     0.60186   0.49101   0.44114   0.00000  Uiso   1.00
C233   C     0.55755   0.47175   0.41069   0.00000  Uiso   1.00
C234   C     0.50502   0.50678   0.06640   0.00000  Uiso   1.00
C235   C     0.61214   0.51660   0.07606   0.00000  Uiso   1.00
Cu236  Cu    0.44043   0.49439   0.24435   0.00000  Uiso   1.00
Cu237  Cu    0.55957   0.50561   0.25564   0.00000  Uiso   1.00
H238   H     0.64759   0.52249   0.09947   0.00000  Uiso   1.00
H239   H     0.62569   0.44154   0.18673   0.00000  Uiso   1.00
H240   H     0.45698   0.56204   0.11173   0.00000  Uiso   1.00
H241   H     0.42855   0.54030   0.05475   0.00000  Uiso   1.00
H242   H     0.41079   0.49625   0.10674   0.00000  Uiso   1.00
H243   H     0.53408   0.41463   0.34863   0.00000  Uiso   1.00
H244   H     0.61402   0.44891   0.34195   0.00000  Uiso   1.00
H245   H     0.58034   0.39806   0.38764   0.00000  Uiso   1.00
H246   H     0.33891   0.54504   0.28420   0.00000  Uiso   1.00
H247   H     0.64968   0.49193   0.42577   0.00000  Uiso   1.00
H248   H     0.34413   0.52202   0.00740   0.00000  Uiso   1.00
H249   H     0.40019   0.43922   0.03905   0.00000  Uiso   1.00
H250   H     0.33623   0.39402   0.47789   0.00000  Uiso   1.00
H251   H     0.55683   0.34498   0.27266   0.00000  Uiso   1.00
H252   H     0.36280   0.42355   0.18445   0.00000  Uiso   1.00
H253   H     0.63966   0.40672   0.23925   0.00000  Uiso   1.00
I254   I     0.40829   0.64058   0.19507   0.00000  Uiso   1.00
I255   I     0.36187   0.37094   0.36023   0.00000  Uiso   1.00
N256   N     0.64908   0.51407   0.26416   0.00000  Uiso   1.00
N257   N     0.35092   0.48593   0.23584   0.00000  Uiso   1.00
O258   O     0.46131   0.57141   0.24633   0.00000  Uiso   1.00
O259   O     0.56191   0.58089   0.25586   0.00000  Uiso   1.00
O260   O     0.42515   0.49293   0.31839   0.00000  Uiso   1.00
O261   O     0.52575   0.50241   0.32793   0.00000  Uiso   1.00
O262   O     0.43809   0.41911   0.24413   0.00000  Uiso   1.00
O263   O     0.53869   0.42859   0.25367   0.00000  Uiso   1.00
O264   O     0.47425   0.49759   0.17207   0.00000  Uiso   1.00
O265   O     0.57485   0.50707   0.18160   0.00000  Uiso   1.00
C266   C     0.84814   0.59982   0.25074   0.00000  Uiso   1.00
C267   C     0.78461   0.46633   0.39654   0.00000  Uiso   1.00
C268   C     0.85373   0.65546   0.25364   0.00000  Uiso   1.00
C269   C     0.80070   0.48738   0.34475   0.00000  Uiso   1.00
C270   C     0.81316   0.34467   0.23753   0.00000  Uiso   1.00
C271   C     0.81922   0.40022   0.24590   0.00000  Uiso   1.00
C272   C     0.86590   0.50571   0.15340   0.00000  Uiso   1.00
C273   C     0.96250   0.51575   0.02366   0.00000  Uiso   1.00
C274   C     0.88340   0.51019   0.09802   0.00000  Uiso   1.00
C275   C     0.73003   0.43025   0.41260   0.00000  Uiso   1.00
C276   C     0.71149   0.42197   0.46464   0.00000  Uiso   1.00
C277   C     0.80955   0.47537   0.48176   0.00000  Uiso   1.00
C278   C     0.74906   0.44755   0.49945   0.00000  Uiso   1.00
C279   C     0.99185   0.43722   0.21090   0.00000  Uiso   1.00
C280   C     0.78010   0.52688   0.08603   0.00000  Uiso   1.00
C281   C     0.90595   0.43184   0.36920   0.00000  Uiso   1.00
C282   C     0.82919   0.47503   0.42885   0.00000  Uiso   1.00
C283   C     0.85409   0.49489   0.01396   0.00000  Uiso   1.00
C284   C     0.91748   0.50231   0.49261   0.00000  Uiso   1.00
C285   C     0.93519   0.49101   0.44114   0.00000  Uiso   1.00
C286   C     0.89088   0.47175   0.41069   0.00000  Uiso   1.00
C287   C     0.83836   0.50678   0.06640   0.00000  Uiso   1.00
C288   C     0.94547   0.51660   0.07606   0.00000  Uiso   1.00
Cu289  Cu    0.77377   0.49439   0.24435   0.00000  Uiso   1.00
Cu290  Cu    0.89290   0.50561   0.25564   0.00000  Uiso   1.00
H291   H     0.98092   0.52249   0.09947   0.00000  Uiso   1.00
H292   H     0.95903   0.44154   0.18673   0.00000  Uiso   1.00
H293   H     0.79031   0.56204   0.11173   0.00000  Uiso   1.00
H294   H     0.76189   0.54030   0.05475   0.00000  Uiso   1.00
H295   H     0.74412   0.49625   0.10674   0.00000  Uiso   1.00
H296   H     0.86741   0.41463   0.34863   0.00000  Uiso   1.00
H297   H     0.94735   0.44891   0.34195   0.00000  Uiso   1.00
H298   H     0.91367   0.39806   0.38764   0.00000  Uiso   1.00
H299   H     0.67224   0.54504   0.28420   0.00000  Uiso   1.00
H300   H     0.98301   0.49193   0.42577   0.00000  Uiso   1.00
H301   H     0.67747   0.52202   0.00740   0.00000  Uiso   1.00
H302   H     0.73352   0.43922   0.03905   0.00000  Uiso   1.00
H303   H     0.66956   0.39402   0.47789   0.00000  Uiso   1.00
H304   H     0.89016   0.34498   0.27266   0.00000  Uiso   1.00
H305   H     0.69614   0.42355   0.18445   0.00000  Uiso   1.00
H306   H     0.97299   0.40672   0.23925   0.00000  Uiso   1.00
I307   I     0.74162   0.64058   0.19507   0.00000  Uiso   1.00
I308   I     0.69520   0.37094   0.36023   0.00000  Uiso   1.00
N309   N     0.98241   0.51407   0.26416   0.00000  Uiso   1.00
N310   N     0.68426   0.48593   0.23584   0.00000  Uiso   1.00
O311   O     0.79464   0.57141   0.24633   0.00000  Uiso   1.00
O312   O     0.89524   0.58089   0.25586   0.00000  Uiso   1.00
O313   O     0.75848   0.49293   0.31839   0.00000  Uiso   1.00
O314   O     0.85908   0.50241   0.32793   0.00000  Uiso   1.00
O315   O     0.77142   0.41911   0.24413   0.00000  Uiso   1.00
O316   O     0.87203   0.42859   0.25367   0.00000  Uiso   1.00
O317   O     0.80758   0.49759   0.17207   0.00000  Uiso   1.00
O318   O     0.90819   0.50707   0.18160   0.00000  Uiso   1.00
C319   C     0.18148   0.93316   0.25074   0.00000  Uiso   1.00
C320   C     0.11795   0.79966   0.39654   0.00000  Uiso   1.00
C321   C     0.18706   0.98880   0.25364   0.00000  Uiso   1.00
C322   C     0.13404   0.82071   0.34475   0.00000  Uiso   1.00
C323   C     0.14650   0.67800   0.23753   0.00000  Uiso   1.00
C324   C     0.15255   0.73356   0.24590   0.00000  Uiso   1.00
C325   C     0.19924   0.83905   0.15340   0.00000  Uiso   1.00
C326   C     0.29583   0.84909   0.02366   0.00000  Uiso   1.00
C327   C     0.21673   0.84353   0.09802   0.00000  Uiso   1.00
C328   C     0.06337   0.76358   0.41260   0.00000  Uiso   1.00
C329   C     0.04482   0.75531   0.46464   0.00000  Uiso   1.00
C330   C     0.14288   0.80871   0.48176   0.00000  Uiso   1.00
C331   C     0.08239   0.78088   0.49945   0.00000  Uiso   1.00
C332   C     0.32519   0.77055   0.21090   0.00000  Uiso   1.00
C333   C     0.11343   0.86021   0.08603   0.00000  Uiso   1.00
C334   C     0.23929   0.76517   0.36920   0.00000  Uiso   1.00
C335   C     0.16253   0.80836   0.42885   0.00000  Uiso   1.00
C336   C     0.18742   0.82822   0.01396   0.00000  Uiso   1.00
C337   C     0.25081   0.83565   0.49261   0.00000  Uiso   1.00
C338   C     0.26853   0.82434   0.44114   0.00000  Uiso   1.00
C339   C     0.22422   0.80508   0.41069   0.00000  Uiso   1.00
C340   C     0.17169   0.84011   0.06640   0.00000  Uiso   1.00
C341   C     0.27880   0.84993   0.07606   0.00000  Uiso   1.00
Cu342  Cu    0.10710   0.82772   0.24435   0.00000  Uiso   1.00
Cu343  Cu    0.22623   0.83895   0.25564   0.00000  Uiso   1.00
H344   H     0.31425   0.85582   0.09947   0.00000  Uiso   1.00
H345   H     0.29236   0.77488   0.18673   0.00000  Uiso   1.00
H346   H     0.12364   0.89538   0.11173   0.00000  Uiso   1.00
H347   H     0.09522   0.87364   0.05475   0.00000  Uiso   1.00
H348   H     0.07746   0.82958   0.10674   0.00000  Uiso   1.00
H349   H     0.20075   0.74796   0.34863   0.00000  Uiso   1.00
H350   H     0.28069   0.78224   0.34195   0.00000  Uiso   1.00
H351   H     0.24701   0.73139   0.38764   0.00000  Uiso   1.00
H352   H     0.00557   0.87838   0.28420   0.00000  Uiso   1.00
H353   H     0.31635   0.82526   0.42577   0.00000  Uiso   1.00
H354   H     0.01080   0.85535   0.00740   0.00000  Uiso   1.00
H355   H     0.06685   0.77256   0.03905   0.00000  Uiso   1.00
H356   H     0.00290   0.72735   0.47789   0.00000  Uiso   1.00
H357   H     0.22350   0.67832   0.27266   0.00000  Uiso   1.00
H358   H     0.02947   0.75688   0.18445   0.00000  Uiso   1.00
H359   H     0.30633   0.74005   0.23925   0.00000  Uiso   1.00
I360   I     0.07495   0.97392   0.19507   0.00000  Uiso   1.00
I361   I     0.02854   0.70427   0.36023   0.00000  Uiso   1.00
N362   N     0.31574   0.84741   0.26416   0.00000  Uiso   1.00
N363   N     0.01759   0.81926   0.23584   0.00000  Uiso   1.00
O364   O     0.12797   0.90474   0.24633   0.00000  Uiso   1.00
O365   O     0.22858   0.91422   0.25586   0.00000  Uiso   1.00
O366   O     0.09181   0.82627   0.31839   0.00000  Uiso   1.00
O367   O     0.19242   0.83575   0.32793   0.00000  Uiso   1.00
O368   O     0.10476   0.75245   0.24413   0.00000  Uiso   1.00
O369   O     0.20536   0.76193   0.25367   0.00000  Uiso   1.00
O370   O     0.14092   0.83092   0.17207   0.00000  Uiso   1.00
O371   O     0.24152   0.84040   0.18160   0.00000  Uiso   1.00
C372   C     0.51481   0.93316   0.25074   0.00000  Uiso   1.00
C373   C     0.45128   0.79966   0.39654   0.00000  Uiso   1.00
C374   C     0.52040   0.98880   0.25364   0.00000  Uiso   1.00
C375   C     0.46737   0.82071   0.34475   0.00000  Uiso   1.00
C376   C     0.47983   0.67800   0.23753   0.00000  Uiso   1.00
C377   C     0.48588   0.73356   0.24590   0.00000  Uiso   1.00
C378   C     0.53257   0.83905   0.15340   0.00000  Uiso   1.00
C379   C     0.62916   0.84909   0.02366   0.00000  Uiso   1.00
C380   C     0.55006   0.84353   0.09802   0.00000  Uiso   1.00
C381   C     0.39670   0.76358   0.41260   0.00000  Uiso   1.00
C382   C     0.37815   0.75531   0.46464   0.00000  Uiso   1.00
C383   C     0.47622   0.80871   0.48176   0.00000  Uiso   1.00
C384   C     0.41572   0.78088   0.49945   0.00000  Uiso   1.00
C385   C     0.65852   0.77055   0.21090   0.00000  Uiso   1.00
C386   C     0.44677   0.86021   0.08603   0.00000  Uiso   1.00
C387   C     0.57262   0.76517   0.36920   0.00000  Uiso   1.00
C388   C     0.49586   0.80836   0.42885   0.00000  Uiso   1.00
C389   C     0.52076   0.82822   0.01396   0.00000  Uiso   1.00
C390   C     0.58415   0.83565   0.49261   0.00000  Uiso   1.00
C391   C     0.60186   0.82434   0.44114   0.00000  Uiso   1.00
C392   C     0.55755   0.80508   0.41069   0.00000  Uiso   1.00
C393   C     0.50502   0.84011   0.06640   0.00000  Uiso   1.00
C394   C     0.61214   0.84993   0.07606   0.00000  Uiso   1.00
Cu395  Cu    0.44043   0.82772   0.24435   0.00000  Uiso   1.00
Cu396  Cu    0.55957   0.83895   0.25564   0.00000  Uiso   1.00
H397   H     0.64759   0.85582   0.09947   0.00000  Uiso   1.00
H398   H     0.62569   0.77488   0.18673   0.00000  Uiso   1.00
H399   H     0.45698   0.89538   0.11173   0.00000  Uiso   1.00
H400   H     0.42855   0.87364   0.05475   0.00000  Uiso   1.00
H401   H     0.41079   0.82958   0.10674   0.00000  Uiso   1.00
H402   H     0.53408   0.74796   0.34863   0.00000  Uiso   1.00
H403   H     0.61402   0.78224   0.34195   0.00000  Uiso   1.00
H404   H     0.58034   0.73139   0.38764   0.00000  Uiso   1.00
H405   H     0.33891   0.87838   0.28420   0.00000  Uiso   1.00
H406   H     0.64968   0.82526   0.42577   0.00000  Uiso   1.00
H407   H     0.34413   0.85535   0.00740   0.00000  Uiso   1.00
H408   H     0.40019   0.77256   0.03905   0.00000  Uiso   1.00
H409   H     0.33623   0.72735   0.47789   0.00000  Uiso   1.00
H410   H     0.55683   0.67832   0.27266   0.00000  Uiso   1.00
H411   H     0.36280   0.75688   0.18445   0.00000  Uiso   1.00
H412   H     0.63966   0.74005   0.23925   0.00000  Uiso   1.00
I413   I     0.40829   0.97392   0.19507   0.00000  Uiso   1.00
I414   I     0.36187   0.70427   0.36023   0.00000  Uiso   1.00
N415   N     0.64908   0.84741   0.26416   0.00000  Uiso   1.00
N416   N     0.35092   0.81926   0.23584   0.00000  Uiso   1.00
O417   O     0.46131   0.90474   0.24633   0.00000  Uiso   1.00
O418   O     0.56191   0.91422   0.25586   0.00000  Uiso   1.00
O419   O     0.42515   0.82627   0.31839   0.00000  Uiso   1.00
O420   O     0.52575   0.83575   0.32793   0.00000  Uiso   1.00
O421   O     0.43809   0.75245   0.24413   0.00000  Uiso   1.00
O422   O     0.53869   0.76193   0.25367   0.00000  Uiso   1.00
O423   O     0.47425   0.83092   0.17207   0.00000  Uiso   1.00
O424   O     0.57485   0.84040   0.18160   0.00000  Uiso   1.00
C425   C     0.84814   0.93316   0.25074   0.00000  Uiso   1.00
C426   C     0.78461   0.79966   0.39654   0.00000  Uiso   1.00
C427   C     0.85373   0.98880   0.25364   0.00000  Uiso   1.00
C428   C     0.80070   0.82071   0.34475   0.00000  Uiso   1.00
C429   C     0.81316   0.67800   0.23753   0.00000  Uiso   1.00
C430   C     0.81922   0.73356   0.24590   0.00000  Uiso   1.00
C431   C     0.86590   0.83905   0.15340   0.00000  Uiso   1.00
C432   C     0.96250   0.84909   0.02366   0.00000  Uiso   1.00
C433   C     0.88340   0.84353   0.09802   0.00000  Uiso   1.00
C434   C     0.73003   0.76358   0.41260   0.00000  Uiso   1.00
C435   C     0.71149   0.75531   0.46464   0.00000  Uiso   1.00
C436   C     0.80955   0.80871   0.48176   0.00000  Uiso   1.00
C437   C     0.74906   0.78088   0.49945   0.00000  Uiso   1.00
C438   C     0.99185   0.77055   0.21090   0.00000  Uiso   1.00
C439   C     0.78010   0.86021   0.08603   0.00000  Uiso   1.00
C440   C     0.90595   0.76517   0.36920   0.00000  Uiso   1.00
C441   C     0.82919   0.80836   0.42885   0.00000  Uiso   1.00
C442   C     0.85409   0.82822   0.01396   0.00000  Uiso   1.00
C443   C     0.91748   0.83565   0.49261   0.00000  Uiso   1.00
C444   C     0.93519   0.82434   0.44114   0.00000  Uiso   1.00
C445   C     0.89088   0.80508   0.41069   0.00000  Uiso   1.00
C446   C     0.83836   0.84011   0.06640   0.00000  Uiso   1.00
C447   C     0.94547   0.84993   0.07606   0.00000  Uiso   1.00
Cu448  Cu    0.77377   0.82772   0.24435   0.00000  Uiso   1.00
Cu449  Cu    0.89290   0.83895   0.25564   0.00000  Uiso   1.00
H450   H     0.98092   0.85582   0.09947   0.00000  Uiso   1.00
H451   H     0.95903   0.77488   0.18673   0.00000  Uiso   1.00
H452   H     0.79031   0.89538   0.11173   0.00000  Uiso   1.00
H453   H     0.76189   0.87364   0.05475   0.00000  Uiso   1.00
H454   H     0.74412   0.82958   0.10674   0.00000  Uiso   1.00
H455   H     0.86741   0.74796   0.34863   0.00000  Uiso   1.00
H456   H     0.94735   0.78224   0.34195   0.00000  Uiso   1.00
H457   H     0.91367   0.73139   0.38764   0.00000  Uiso   1.00
H458   H     0.67224   0.87838   0.28420   0.00000  Uiso   1.00
H459   H     0.98301   0.82526   0.42577   0.00000  Uiso   1.00
H460   H     0.67747   0.85535   0.00740   0.00000  Uiso   1.00
H461   H     0.73352   0.77256   0.03905   0.00000  Uiso   1.00
H462   H     0.66956   0.72735   0.47789   0.00000  Uiso   1.00
H463   H     0.89016   0.67832   0.27266   0.00000  Uiso   1.00
H464   H     0.69614   0.75688   0.18445   0.00000  Uiso   1.00
H465   H     0.97299   0.74005   0.23925   0.00000  Uiso   1.00
I466   I     0.74162   0.97392   0.19507   0.00000  Uiso   1.00
I467   I     0.69520   0.70427   0.36023   0.00000  Uiso   1.00
N468   N     0.98241   0.84741   0.26416   0.00000  Uiso   1.00
N469   N     0.68426   0.81926   0.23584   0.00000  Uiso   1.00
O470   O     0.79464   0.90474   0.24633   0.00000  Uiso   1.00
O471   O     0.89524   0.91422   0.25586   0.00000  Uiso   1.00
O472   O     0.75848   0.82627   0.31839   0.00000  Uiso   1.00
O473   O     0.85908   0.83575   0.32793   0.00000  Uiso   1.00
O474   O     0.77142   0.75245   0.24413   0.00000  Uiso   1.00
O475   O     0.87203   0.76193   0.25367   0.00000  Uiso   1.00
O476   O     0.80758   0.83092   0.17207   0.00000  Uiso   1.00
O477   O     0.90819   0.84040   0.18160   0.00000  Uiso   1.00
C478   C     0.18148   0.26649   0.75074   0.00000  Uiso   1.00
C479   C     0.11795   0.13300   0.89654   0.00000  Uiso   1.00
C480   C     0.18706   0.32213   0.75364   0.00000  Uiso   1.00
C481   C     0.13404   0.15405   0.84475   0.00000  Uiso   1.00
C482   C     0.14650   0.01134   0.73753   0.00000  Uiso   1.00
C483   C     0.15255   0.06689   0.74590   0.00000  Uiso   1.00
C484   C     0.19924   0.17238   0.65340   0.00000  Uiso   1.00
C485   C     0.29583   0.18242   0.52366   0.00000  Uiso   1.00
C486   C     0.21673   0.17686   0.59802   0.00000  Uiso   1.00
C487   C     0.06337   0.09691   0.91260   0.00000  Uiso   1.00
C488   C     0.04482   0.08864   0.96464   0.00000  Uiso   1.00
C489   C     0.14288   0.14204   0.98176   0.00000  Uiso   1.00
C490   C     0.08239   0.11422   0.99945   0.00000  Uiso   1.00
C491   C     0.32519   0.10389   0.71090   0.00000  Uiso   1.00
C492   C     0.11343   0.19355   0.58603   0.00000  Uiso   1.00
C493   C     0.23929   0.09850   0.86920   0.00000  Uiso   1.00
C494   C     0.16253   0.14169   0.92885   0.00000  Uiso   1.00
C495   C     0.18742   0.16155   0.51396   0.00000  Uiso   1.00
C496   C     0.25081   0.16898   0.99261   0.00000  Uiso   1.00
C497   C     0.26853   0.15767   0.94114   0.00000  Uiso   1.00
C498   C     0.22422   0.13842   0.91069   0.00000  Uiso   1.00
C499   C     0.17169   0.17345   0.56640   0.00000  Uiso   1.00
C500   C     0.27880   0.18327   0.57606   0.00000  Uiso   1.00
Cu501  Cu    0.10710   0.16105   0.74435   0.00000  Uiso   1.00
Cu502  Cu    0.22623   0.17228   0.75564   0.00000  Uiso   1.00
H503   H     0.31425   0.18915   0.59947   0.00000  Uiso   1.00
H504   H     0.29236   0.10821   0.68673   0.00000  Uiso   1.00
H505   H     0.12364   0.22871   0.61173   0.00000  Uiso   1.00
H506   H     0.09522   0.20697   0.55475   0.00000  Uiso   1.00
H507   H     0.07746   0.16291   0.60674   0.00000  Uiso   1.00
H508   H     0.20075   0.08129   0.84863   0.00000  Uiso   1.00
H509   H     0.28069   0.11558   0.84195   0.00000  Uiso   1.00
H510   H     0.24701   0.06473   0.88764   0.00000  Uiso   1.00
H511   H     0.00557   0.21171   0.78420   0.00000  Uiso   1.00
H512   H     0.31635   0.15860   0.92577   0.00000  Uiso   1.00
H513   H     0.01080   0.18869   0.50740   0.00000  Uiso   1.00
H514   H     0.06685   0.10589   0.53905   0.00000  Uiso   1.00
H515   H     0.00290   0.06069   0.97789   0.00000  Uiso   1.00
H516   H     0.22350   0.01165   0.77266   0.00000  Uiso   1.00
H517   H     0.02947   0.09022   0.68445   0.00000  Uiso   1.00
H518   H     0.30633   0.07338   0.73925   0.00000  Uiso   1.00
I519   I     0.07495   0.30725   0.69507   0.00000  Uiso   1.00
I520   I     0.02854   0.03760   0.86023   0.00000  Uiso   1.00
N521   N     0.31574   0.18074   0.76416   0.00000  Uiso   1.00
N522   N     0.01759   0.15259   0.73584   0.00000  Uiso   1.00
O523   O     0.12797   0.23807   0.74633   0.00000  Uiso   1.00
O524   O     0.22858   0.24755   0.75586   0.00000  Uiso   1.00
O525   O     0.09181   0.15960   0.81839   0.00000  Uiso   1.00
O526   O     0.19242   0.16908   0.82793   0.00000  Uiso   1.00
O527   O     0.10476   0.08578   0.74413   0.00000  Uiso   1.00
O528   O     0.20536   0.09526   0.75367   0.00000  Uiso   1.00
O529   O     0.14092   0.16425   0.67207   0.00000  Uiso   1.00
O530   O     0.24152   0.17373   0.68160   0.00000  Uiso   1.00
C531   C     0.51481   0.26649   0.75074   0.00000  Uiso   1.00
C532   C     0.45128   0.13300   0.89654   0.00000  Uiso   1.00
C533   C     0.52040   0.32213   0.75364   0.00000  Uiso   1.00
C534   C     0.46737   0.15405   0.84475   0.00000  Uiso   1.00
C535   C     0.47983   0.01134   0.73753   0.00000  Uiso   1.00
C536   C     0.48588   0.06689   0.74590   0.00000  Uiso   1.00
C537   C     0.53257   0.17238   0.65340   0.00000  Uiso   1.00
C538   C     0.62916   0.18242   0.52366   0.00000  Uiso   1.00
C539   C     0.55006   0.17686   0.59802   0.00000  Uiso   1.00
C540   C     0.39670   0.09691   0.91260   0.00000  Uiso   1.00
C541   C     0.37815   0.08864   0.96464   0.00000  Uiso   1.00
C542   C     0.47622   0.14204   0.98176   0.00000  Uiso   1.00
C543   C     0.41572   0.11422   0.99945   0.00000  Uiso   1.00
C544   C     0.65852   0.10389   0.71090   0.00000  Uiso   1.00
C545   C     0.44677   0.19355   0.58603   0.00000  Uiso   1.00
C546   C     0.57262   0.09850   0.86920   0.00000  Uiso   1.00
C547   C     0.49586   0.14169   0.92885   0.00000  Uiso   1.00
C548   C     0.52076   0.16155   0.51396   0.00000  Uiso   1.00
C549   C     0.58415   0.16898   0.99261   0.00000  Uiso   1.00
C550   C     0.60186   0.15767   0.94114   0.00000  Uiso   1.00
C551   C     0.55755   0.13842   0.91069   0.00000  Uiso   1.00
C552   C     0.50502   0.17345   0.56640   0.00000  Uiso   1.00
C553   C     0.61214   0.18327   0.57606   0.00000  Uiso   1.00
Cu554  Cu    0.44043   0.16105   0.74435   0.00000  Uiso   1.00
Cu555  Cu    0.55957   0.17228   0.75564   0.00000  Uiso   1.00
H556   H     0.64759   0.18915   0.59947   0.00000  Uiso   1.00
H557   H     0.62569   0.10821   0.68673   0.00000  Uiso   1.00
H558   H     0.45698   0.22871   0.61173   0.00000  Uiso   1.00
H559   H     0.42855   0.20697   0.55475   0.00000  Uiso   1.00
H560   H     0.41079   0.16291   0.60674   0.00000  Uiso   1.00
H561   H     0.53408   0.08129   0.84863   0.00000  Uiso   1.00
H562   H     0.61402   0.11558   0.84195   0.00000  Uiso   1.00
H563   H     0.58034   0.06473   0.88764   0.00000  Uiso   1.00
H564   H     0.33891   0.21171   0.78420   0.00000  Uiso   1.00
H565   H     0.64968   0.15860   0.92577   0.00000  Uiso   1.00
H566   H     0.34413   0.18869   0.50740   0.00000  Uiso   1.00
H567   H     0.40019   0.10589   0.53905   0.00000  Uiso   1.00
H568   H     0.33623   0.06069   0.97789   0.00000  Uiso   1.00
H569   H     0.55683   0.01165   0.77266   0.00000  Uiso   1.00
H570   H     0.36280   0.09022   0.68445   0.00000  Uiso   1.00
H571   H     0.63966   0.07338   0.73925   0.00000  Uiso   1.00
I572   I     0.40829   0.30725   0.69507   0.00000  Uiso   1.00
I573   I     0.36187   0.03760   0.86023   0.00000  Uiso   1.00
N574   N     0.64908   0.18074   0.76416   0.00000  Uiso   1.00
N575   N     0.35092   0.15259   0.73584   0.00000  Uiso   1.00
O576   O     0.46131   0.23807   0.74633   0.00000  Uiso   1.00
O577   O     0.56191   0.24755   0.75586   0.00000  Uiso   1.00
O578   O     0.42515   0.15960   0.81839   0.00000  Uiso   1.00
O579   O     0.52575   0.16908   0.82793   0.00000  Uiso   1.00
O580   O     0.43809   0.08578   0.74413   0.00000  Uiso   1.00
O581   O     0.53869   0.09526   0.75367   0.00000  Uiso   1.00
O582   O     0.47425   0.16425   0.67207   0.00000  Uiso   1.00
O583   O     0.57485   0.17373   0.68160   0.00000  Uiso   1.00
C584   C     0.84814   0.26649   0.75074   0.00000  Uiso   1.00
C585   C     0.78461   0.13300   0.89654   0.00000  Uiso   1.00
C586   C     0.85373   0.32213   0.75364   0.00000  Uiso   1.00
C587   C     0.80070   0.15405   0.84475   0.00000  Uiso   1.00
C588   C     0.81316   0.01134   0.73753   0.00000  Uiso   1.00
C589   C     0.81922   0.06689   0.74590   0.00000  Uiso   1.00
C590   C     0.86590   0.17238   0.65340   0.00000  Uiso   1.00
C591   C     0.96250   0.18242   0.52366   0.00000  Uiso   1.00
C592   C     0.88340   0.17686   0.59802   0.00000  Uiso   1.00
C593   C     0.73003   0.09691   0.91260   0.00000  Uiso   1.00
C594   C     0.71149   0.08864   0.96464   0.00000  Uiso   1.00
C595   C     0.80955   0.14204   0.98176   0.00000  Uiso   1.00
C596   C     0.74906   0.11422   0.99945   0.00000  Uiso   1.00
C597   C     0.99185   0.10389   0.71090   0.00000  Uiso   1.00
C598   C     0.78010   0.19355   0.58603   0.00000  Uiso   1.00
C599   C     0.90595   0.09850   0.86920   0.00000  Uiso   1.00
C600   C     0.82919   0.14169   0.92885   0.00000  Uiso   1.00
C601   C     0.85409   0.16155   0.51396   0.00000  Uiso   1.00
C602   C     0.91748   0.16898   0.99261   0.00000  Uiso   1.00
C603   C     0.93519   0.15767   0.94114   0.00000  Uiso   1.00
C604   C     0.89088   0.13842   0.91069   0.00000  Uiso   1.00
C605   C     0.83836   0.17345   0.56640   0.00000  Uiso   1.00
C606   C     0.94547   0.18327   0.57606   0.00000  Uiso   1.00
Cu607  Cu    0.77377   0.16105   0.74435   0.00000  Uiso   1.00
Cu608  Cu    0.89290   0.17228   0.75564   0.00000  Uiso   1.00
H609   H     0.98092   0.18915   0.59947   0.00000  Uiso   1.00
H610   H     0.95903   0.10821   0.68673   0.00000  Uiso   1.00
H611   H     0.79031   0.22871   0.61173   0.00000  Uiso   1.00
H612   H     0.76189   0.20697   0.55475   0.00000  Uiso   1.00
H613   H     0.74412   0.16291   0.60674   0.00000  Uiso   1.00
H614   H     0.86741   0.08129   0.84863   0.00000  Uiso   1.00
H615   H     0.94735   0.11558   0.84195   0.00000  Uiso   1.00
H616   H     0.91367   0.06473   0.88764   0.00000  Uiso   1.00
H617   H     0.67224   0.21171   0.78420   0.00000  Uiso   1.00
H618   H     0.98301   0.15860   0.92577   0.00000  Uiso   1.00
H619   H     0.67747   0.18869   0.50740   0.00000  Uiso   1.00
H620   H     0.73352   0.10589   0.53905   0.00000  Uiso   1.00
H621   H     0.66956   0.06069   0.97789   0.00000  Uiso   1.00
H622   H     0.89016   0.01165   0.77266   0.00000  Uiso   1.00
H623   H     0.69614   0.09022   0.68445   0.00000  Uiso   1.00
H624   H     0.97299   0.07338   0.73925   0.00000  Uiso   1.00
I625   I     0.74162   0.30725   0.69507   0.00000  Uiso   1.00
I626   I     0.69520   0.03760   0.86023   0.00000  Uiso   1.00
N627   N     0.98241   0.18074   0.76416   0.00000  Uiso   1.00
N628   N     0.68426   0.15259   0.73584   0.00000  Uiso   1.00
O629   O     0.79464   0.23807   0.74633   0.00000  Uiso   1.00
O630   O     0.89524   0.24755   0.75586   0.00000  Uiso   1.00
O631   O     0.75848   0.15960   0.81839   0.00000  Uiso   1.00
O632   O     0.85908   0.16908   0.82793   0.00000  Uiso   1.00
O633   O     0.77142   0.08578   0.74413   0.00000  Uiso   1.00
O634   O     0.87203   0.09526   0.75367   0.00000  Uiso   1.00
O635   O     0.80758   0.16425   0.67207   0.00000  Uiso   1.00
O636   O     0.90819   0.17373   0.68160   0.00000  Uiso   1.00
C637   C     0.18148   0.59982   0.75074   0.00000  Uiso   1.00
C638   C     0.11795   0.46633   0.89654   0.00000  Uiso   1.00
C639   C     0.18706   0.65546   0.75364   0.00000  Uiso   1.00
C640   C     0.13404   0.48738   0.84475   0.00000  Uiso   1.00
C641   C     0.14650   0.34467   0.73753   0.00000  Uiso   1.00
C642   C     0.15255   0.40022   0.74590   0.00000  Uiso   1.00
C643   C     0.19924   0.50571   0.65340   0.00000  Uiso   1.00
C644   C     0.29583   0.51575   0.52366   0.00000  Uiso   1.00
C645   C     0.21673   0.51019   0.59802   0.00000  Uiso   1.00
C646   C     0.06337   0.43025   0.91260   0.00000  Uiso   1.00
C647   C     0.04482   0.42197   0.96464   0.00000  Uiso   1.00
C648   C     0.14288   0.47537   0.98176   0.00000  Uiso   1.00
C649   C     0.08239   0.44755   0.99945   0.00000  Uiso   1.00
C650   C     0.32519   0.43722   0.71090   0.00000  Uiso   1.00
C651   C     0.11343   0.52688   0.58603   0.00000  Uiso   1.00
C652   C     0.23929   0.43184   0.86920   0.00000  Uiso   1.00
C653   C     0.16253   0.47503   0.92885   0.00000  Uiso   1.00
C654   C     0.18742   0.49489   0.51396   0.00000  Uiso   1.00
C655   C     0.25081   0.50231   0.99261   0.00000  Uiso   1.00
C656   C     0.26853   0.49101   0.94114   0.00000  Uiso   1.00
C657   C     0.22422   0.47175   0.91069   0.00000  Uiso   1.00
C658   C     0.17169   0.50678   0.56640   0.00000  Uiso   1.00
C659   C     0.27880   0.51660   0.57606   0.00000  Uiso   1.00
Cu660  Cu    0.10710   0.49439   0.74435   0.00000  Uiso   1.00
Cu661  Cu    0.22623   0.50561   0.75564   0.00000  Uiso   1.00
H662   H     0.31425   0.52249   0.59947   0.00000  Uiso   1.00
H663   H     0.29236   0.44154   0.68673   0.00000  Uiso   1.00
H664   H     0.12364   0.56204   0.61173   0.00000  Uiso   1.00
H665   H     0.09522   0.54030   0.55475   0.00000  Uiso   1.00
H666   H     0.07746   0.49625   0.60674   0.00000  Uiso   1.00
H667   H     0.20075   0.41463   0.84863   0.00000  Uiso   1.00
H668   H     0.28069   0.44891   0.84195   0.00000  Uiso   1.00
H669   H     0.24701   0.39806   0.88764   0.00000  Uiso   1.00
H670   H     0.00557   0.54504   0.78420   0.00000  Uiso   1.00
H671   H     0.31635   0.49193   0.92577   0.00000  Uiso   1.00
H672   H     0.01080   0.52202   0.50740   0.00000  Uiso   1.00
H673   H     0.06685   0.43922   0.53905   0.00000  Uiso   1.00
H674   H     0.00290   0.39402   0.97789   0.00000  Uiso   1.00
H675   H     0.22350   0.34498   0.77266   0.00000  Uiso   1.00
H676   H     0.02947   0.42355   0.68445   0.00000  Uiso   1.00
H677   H     0.30633   0.40672   0.73925   0.00000  Uiso   1.00
I678   I     0.07495   0.64058   0.69507   0.00000  Uiso   1.00
I679   I     0.02854   0.37094   0.86023   0.00000  Uiso   1.00
N680   N     0.31574   0.51407   0.76416   0.00000  Uiso   1.00
N681   N     0.01759   0.48593   0.73584   0.00000  Uiso   1.00
O682   O     0.12797   0.57141   0.74633   0.00000  Uiso   1.00
O683   O     0.22858   0.58089   0.75586   0.00000  Uiso   1.00
O684   O     0.09181   0.49293   0.81839   0.00000  Uiso   1.00
O685   O     0.19242   0.50241   0.82793   0.00000  Uiso   1.00
O686   O     0.10476   0.41911   0.74413   0.00000  Uiso   1.00
O687   O     0.20536   0.42859   0.75367   0.00000  Uiso   1.00
O688   O     0.14092   0.49759   0.67207   0.00000  Uiso   1.00
O689   O     0.24152   0.50707   0.68160   0.00000  Uiso   1.00
C690   C     0.51481   0.59982   0.75074   0.00000  Uiso   1.00
C691   C     0.45128   0.46633   0.89654   0.00000  Uiso   1.00
C692   C     0.52040   0.65546   0.75364   0.00000  Uiso   1.00
C693   C     0.46737   0.48738   0.84475   0.00000  Uiso   1.00
C694   C     0.47983   0.34467   0.73753   0.00000  Uiso   1.00
C695   C     0.48588   0.40022   0.74590   0.00000  Uiso   1.00
C696   C     0.53257   0.50571   0.65340   0.00000  Uiso   1.00
C697   C     0.62916   0.51575   0.52366   0.00000  Uiso   1.00
C698   C     0.55006   0.51019   0.59802   0.00000  Uiso   1.00
C699   C     0.39670   0.43025   0.91260   0.00000  Uiso   1.00
C700   C     0.37815   0.42197   0.96464   0.00000  Uiso   1.00
C701   C     0.47622   0.47537   0.98176   0.00000  Uiso   1.00
C702   C     0.41572   0.44755   0.99945   0.00000  Uiso   1.00
C703   C     0.65852   0.43722   0.71090   0.00000  Uiso   1.00
C704   C     0.44677   0.52688   0.58603   0.00000  Uiso   1.00
C705   C     0.57262   0.43184   0.86920   0.00000  Uiso   1.00
C706   C     0.49586   0.47503   0.92885   0.00000  Uiso   1.00
C707   C     0.52076   0.49489   0.51396   0.00000  Uiso   1.00
C708   C     0.58415   0.50231   0.99261   0.00000  Uiso   1.00
C709   C     0.60186   0.49101   0.94114   0.00000  Uiso   1.00
C710   C     0.55755   0.47175   0.91069   0.00000  Uiso   1.00
C711   C     0.50502   0.50678   0.56640   0.00000  Uiso   1.00
C712   C     0.61214   0.51660   0.57606   0.00000  Uiso   1.00
Cu713  Cu    0.44043   0.49439   0.74435   0.00000  Uiso   1.00
Cu714  Cu    0.55957   0.50561   0.75564   0.00000  Uiso   1.00
H715   H     0.64759   0.52249   0.59947   0.00000  Uiso   1.00
H716   H     0.62569   0.44154   0.68673   0.00000  Uiso   1.00
H717   H     0.45698   0.56204   0.61173   0.00000  Uiso   1.00
H718   H     0.42855   0.54030   0.55475   0.00000  Uiso   1.00
H719   H     0.41079   0.49625   0.60674   0.00000  Uiso   1.00
H720   H     0.53408   0.41463   0.84863   0.00000  Uiso   1.00
H721   H     0.61402   0.44891   0.84195   0.00000  Uiso   1.00
H722   H     0.58034   0.39806   0.88764   0.00000  Uiso   1.00
H723   H     0.33891   0.54504   0.78420   0.00000  Uiso   1.00
H724   H     0.64968   0.49193   0.92577   0.00000  Uiso   1.00
H725   H     0.34413   0.52202   0.50740   0.00000  Uiso   1.00
H726   H     0.40019   0.43922   0.53905   0.00000  Uiso   1.00
H727   H     0.33623   0.39402   0.97789   0.00000  Uiso   1.00
H728   H     0.55683   0.34498   0.77266   0.00000  Uiso   1.00
H729   H     0.36280   0.42355   0.68445   0.00000  Uiso   1.00
H730   H     0.63966   0.40672   0.73925   0.00000  Uiso   1.00
I731   I     0.40829   0.64058   0.69507   0.00000  Uiso   1.00
I732   I     0.36187   0.37094   0.86023   0.00000  Uiso   1.00
N733   N     0.64908   0.51407   0.76416   0.00000  Uiso   1.00
N734   N     0.35092   0.48593   0.73584   0.00000  Uiso   1.00
O735   O     0.46131   0.57141   0.74633   0.00000  Uiso   1.00
O736   O     0.56191   0.58089   0.75586   0.00000  Uiso   1.00
O737   O     0.42515   0.49293   0.81839   0.00000  Uiso   1.00
O738   O     0.52575   0.50241   0.82793   0.00000  Uiso   1.00
O739   O     0.43809   0.41911   0.74413   0.00000  Uiso   1.00
O740   O     0.53869   0.42859   0.75367   0.00000  Uiso   1.00
O741   O     0.47425   0.49759   0.67207   0.00000  Uiso   1.00
O742   O     0.57485   0.50707   0.68160   0.00000  Uiso   1.00
C743   C     0.84814   0.59982   0.75074   0.00000  Uiso   1.00
C744   C     0.78461   0.46633   0.89654   0.00000  Uiso   1.00
C745   C     0.85373   0.65546   0.75364   0.00000  Uiso   1.00
C746   C     0.80070   0.48738   0.84475   0.00000  Uiso   1.00
C747   C     0.81316   0.34467   0.73753   0.00000  Uiso   1.00
C748   C     0.81922   0.40022   0.74590   0.00000  Uiso   1.00
C749   C     0.86590   0.50571   0.65340   0.00000  Uiso   1.00
C750   C     0.96250   0.51575   0.52366   0.00000  Uiso   1.00
C751   C     0.88340   0.51019   0.59802   0.00000  Uiso   1.00
C752   C     0.73003   0.43025   0.91260   0.00000  Uiso   1.00
C753   C     0.71149   0.42197   0.96464   0.00000  Uiso   1.00
C754   C     0.80955   0.47537   0.98176   0.00000  Uiso   1.00
C755   C     0.74906   0.44755   0.99945   0.00000  Uiso   1.00
C756   C     0.99185   0.43722   0.71090   0.00000  Uiso   1.00
C757   C     0.78010   0.52688   0.58603   0.00000  Uiso   1.00
C758   C     0.90595   0.43184   0.86920   0.00000  Uiso   1.00
C759   C     0.82919   0.47503   0.92885   0.00000  Uiso   1.00
C760   C     0.85409   0.49489   0.51396   0.00000  Uiso   1.00
C761   C     0.91748   0.50231   0.99261   0.00000  Uiso   1.00
C762   C     0.93519   0.49101   0.94114   0.00000  Uiso   1.00
C763   C     0.89088   0.47175   0.91069   0.00000  Uiso   1.00
C764   C     0.83836   0.50678   0.56640   0.00000  Uiso   1.00
C765   C     0.94547   0.51660   0.57606   0.00000  Uiso   1.00
Cu766  Cu    0.77377   0.49439   0.74435   0.00000  Uiso   1.00
Cu767  Cu    0.89290   0.50561   0.75564   0.00000  Uiso   1.00
H768   H     0.98092   0.52249   0.59947   0.00000  Uiso   1.00
H769   H     0.95903   0.44154   0.68673   0.00000  Uiso   1.00
H770   H     0.79031   0.56204   0.61173   0.00000  Uiso   1.00
H771   H     0.76189   0.54030   0.55475   0.00000  Uiso   1.00
H772   H     0.74412   0.49625   0.60674   0.00000  Uiso   1.00
H773   H     0.86741   0.41463   0.84863   0.00000  Uiso   1.00
H774   H     0.94735   0.44891   0.84195   0.00000  Uiso   1.00
H775   H     0.91367   0.39806   0.88764   0.00000  Uiso   1.00
H776   H     0.67224   0.54504   0.78420   0.00000  Uiso   1.00
H777   H     0.98301   0.49193   0.92577   0.00000  Uiso   1.00
H778   H     0.67747   0.52202   0.50740   0.00000  Uiso   1.00
H779   H     0.73352   0.43922   0.53905   0.00000  Uiso   1.00
H780   H     0.66956   0.39402   0.97789   0.00000  Uiso   1.00
H781   H     0.89016   0.34498   0.77266   0.00000  Uiso   1.00
H782   H     0.69614   0.42355   0.68445   0.00000  Uiso   1.00
H783   H     0.97299   0.40672   0.73925   0.00000  Uiso   1.00
I784   I     0.74162   0.64058   0.69507   0.00000  Uiso   1.00
I785   I     0.69520   0.37094   0.86023   0.00000  Uiso   1.00
N786   N     0.98241   0.51407   0.76416   0.00000  Uiso   1.00
N787   N     0.68426   0.48593   0.73584   0.00000  Uiso   1.00
O788   O     0.79464   0.57141   0.74633   0.00000  Uiso   1.00
O789   O     0.89524   0.58089   0.75586   0.00000  Uiso   1.00
O790   O     0.75848   0.49293   0.81839   0.00000  Uiso   1.00
O791   O     0.85908   0.50241   0.82793   0.00000  Uiso   1.00
O792   O     0.77142   0.41911   0.74413   0.00000  Uiso   1.00
O793   O     0.87203   0.42859   0.75367   0.00000  Uiso   1.00
O794   O     0.80758   0.49759   0.67207   0.00000  Uiso   1.00
O795   O     0.90819   0.50707   0.68160   0.00000  Uiso   1.00
C796   C     0.18148   0.93316   0.75074   0.00000  Uiso   1.00
C797   C     0.11795   0.79966   0.89654   0.00000  Uiso   1.00
C798   C     0.18706   0.98880   0.75364   0.00000  Uiso   1.00
C799   C     0.13404   0.82071   0.84475   0.00000  Uiso   1.00
C800   C     0.14650   0.67800   0.73753   0.00000  Uiso   1.00
C801   C     0.15255   0.73356   0.74590   0.00000  Uiso   1.00
C802   C     0.19924   0.83905   0.65340   0.00000  Uiso   1.00
C803   C     0.29583   0.84909   0.52366   0.00000  Uiso   1.00
C804   C     0.21673   0.84353   0.59802   0.00000  Uiso   1.00
C805   C     0.06337   0.76358   0.91260   0.00000  Uiso   1.00
C806   C     0.04482   0.75531   0.96464   0.00000  Uiso   1.00
C807   C     0.14288   0.80871   0.98176   0.00000  Uiso   1.00
C808   C     0.08239   0.78088   0.99945   0.00000  Uiso   1.00
C809   C     0.32519   0.77055   0.71090   0.00000  Uiso   1.00
C810   C     0.11343   0.86021   0.58603   0.00000  Uiso   1.00
C811   C     0.23929   0.76517   0.86920   0.00000  Uiso   1.00
C812   C     0.16253   0.80836   0.92885   0.00000  Uiso   1.00
C813   C     0.18742   0.82822   0.51396   0.00000  Uiso   1.00
C814   C     0.25081   0.83565   0.99261   0.00000  Uiso   1.00
C815   C     0.26853   0.82434   0.94114   0.00000  Uiso   1.00
C816   C     0.22422   0.80508   0.91069   0.00000  Uiso   1.00
C817   C     0.17169   0.84011   0.56640   0.00000  Uiso   1.00
C818   C     0.27880   0.84993   0.57606   0.00000  Uiso   1.00
Cu819  Cu    0.10710   0.82772   0.74435   0.00000  Uiso   1.00
Cu820  Cu    0.22623   0.83895   0.75564   0.00000  Uiso   1.00
H821   H     0.31425   0.85582   0.59947   0.00000  Uiso   1.00
H822   H     0.29236   0.77488   0.68673   0.00000  Uiso   1.00
H823   H     0.12364   0.89538   0.61173   0.00000  Uiso   1.00
H824   H     0.09522   0.87364   0.55475   0.00000  Uiso   1.00
H825   H     0.07746   0.82958   0.60674   0.00000  Uiso   1.00
H826   H     0.20075   0.74796   0.84863   0.00000  Uiso   1.00
H827   H     0.28069   0.78224   0.84195   0.00000  Uiso   1.00
H828   H     0.24701   0.73139   0.88764   0.00000  Uiso   1.00
H829   H     0.00557   0.87838   0.78420   0.00000  Uiso   1.00
H830   H     0.31635   0.82526   0.92577   0.00000  Uiso   1.00
H831   H     0.01080   0.85535   0.50740   0.00000  Uiso   1.00
H832   H     0.06685   0.77256   0.53905   0.00000  Uiso   1.00
H833   H     0.00290   0.72735   0.97789   0.00000  Uiso   1.00
H834   H     0.22350   0.67832   0.77266   0.00000  Uiso   1.00
H835   H     0.02947   0.75688   0.68445   0.00000  Uiso   1.00
H836   H     0.30633   0.74005   0.73925   0.00000  Uiso   1.00
I837   I     0.07495   0.97392   0.69507   0.00000  Uiso   1.00
I838   I     0.02854   0.70427   0.86023   0.00000  Uiso   1.00
N839   N     0.31574   0.84741   0.76416   0.00000  Uiso   1.00
N840   N     0.01759   0.81926   0.73584   0.00000  Uiso   1.00
O841   O     0.12797   0.90474   0.74633   0.00000  Uiso   1.00
O842   O     0.22858   0.91422   0.75586   0.00000  Uiso   1.00
O843   O     0.09181   0.82627   0.81839   0.00000  Uiso   1.00
O844   O     0.19242   0.83575   0.82793   0.00000  Uiso   1.00
O845   O     0.10476   0.75245   0.74413   0.00000  Uiso   1.00
O846   O     0.20536   0.76193   0.75367   0.00000  Uiso   1.00
O847   O     0.14092   0.83092   0.67207   0.00000  Uiso   1.00
O848   O     0.24152   0.84040   0.68160   0.00000  Uiso   1.00
C849   C     0.51481   0.93316   0.75074   0.00000  Uiso   1.00
C850   C     0.45128   0.79966   0.89654   0.00000  Uiso   1.00
C851   C     0.52040   0.98880   0.75364   0.00000  Uiso   1.00
C852   C     0.46737   0.82071   0.84475   0.00000  Uiso   1.00
C853   C     0.47983   0.67800   0.73753   0.00000  Uiso   1.00
C854   C     0.48588   0.73356   0.74590   0.00000  Uiso   1.00
C855   C     0.53257   0.83905   0.65340   0.00000  Uiso   1.00
C856   C     0.62916   0.84909   0.52366   0.00000  Uiso   1.00
C857   C     0.55006   0.84353   0.59802   0.00000  Uiso   1.00
C858   C     0.39670   0.76358   0.91260   0.00000  Uiso   1.00
C859   C     0.37815   0.75531   0.96464   0.00000  Uiso   1.00
C860   C     0.47622   0.80871   0.98176   0.00000  Uiso   1.00
C861   C     0.41572   0.78088   0.99945   0.00000  Uiso   1.00
C862   C     0.65852   0.77055   0.71090   0.00000  Uiso   1.00
C863   C     0.44677   0.86021   0.58603   0.00000  Uiso   1.00
C864   C     0.57262   0.76517   0.86920   0.00000  Uiso   1.00
C865   C     0.49586   0.80836   0.92885   0.00000  Uiso   1.00
C866   C     0.52076   0.82822   0.51396   0.00000  Uiso   1.00
C867   C     0.58415   0.83565   0.99261   0.00000  Uiso   1.00
C868   C     0.60186   0.82434   0.94114   0.00000  Uiso   1.00
C869   C     0.55755   0.80508   0.91069   0.00000  Uiso   1.00
C870   C     0.50502   0.84011   0.56640   0.00000  Uiso   1.00
C871   C     0.61214   0.84993   0.57606   0.00000  Uiso   1.00
Cu872  Cu    0.44043   0.82772   0.74435   0.00000  Uiso   1.00
Cu873  Cu    0.55957   0.83895   0.75564   0.00000  Uiso   1.00
H874   H     0.64759   0.85582   0.59947   0.00000  Uiso   1.00
H875   H     0.62569   0.77488   0.68673   0.00000  Uiso   1.00
H876   H     0.45698   0.89538   0.61173   0.00000  Uiso   1.00
H877   H     0.42855   0.87364   0.55475   0.00000  Uiso   1.00
H878   H     0.41079   0.82958   0.60674   0.00000  Uiso   1.00
H879   H     0.53408   0.74796   0.84863   0.00000  Uiso   1.00
H880   H     0.61402   0.78224   0.84195   0.00000  Uiso   1.00
H881   H     0.58034   0.73139   0.88764   0.00000  Uiso   1.00
H882   H     0.33891   0.87838   0.78420   0.00000  Uiso   1.00
H883   H     0.64968   0.82526   0.92577   0.00000  Uiso   1.00
H884   H     0.34413   0.85535   0.50740   0.00000  Uiso   1.00
H885   H     0.40019   0.77256   0.53905   0.00000  Uiso   1.00
H886   H     0.33623   0.72735   0.97789   0.00000  Uiso   1.00
H887   H     0.55683   0.67832   0.77266   0.00000  Uiso   1.00
H888   H     0.36280   0.75688   0.68445   0.00000  Uiso   1.00
H889   H     0.63966   0.74005   0.73925   0.00000  Uiso   1.00
I890   I     0.40829   0.97392   0.69507   0.00000  Uiso   1.00
I891   I     0.36187   0.70427   0.86023   0.00000  Uiso   1.00
N892   N     0.64908   0.84741   0.76416   0.00000  Uiso   1.00
N893   N     0.35092   0.81926   0.73584   0.00000  Uiso   1.00
O894   O     0.46131   0.90474   0.74633   0.00000  Uiso   1.00
O895   O     0.56191   0.91422   0.75586   0.00000  Uiso   1.00
O896   O     0.42515   0.82627   0.81839   0.00000  Uiso   1.00
O897   O     0.52575   0.83575   0.82793   0.00000  Uiso   1.00
O898   O     0.43809   0.75245   0.74413   0.00000  Uiso   1.00
O899   O     0.53869   0.76193   0.75367   0.00000  Uiso   1.00
O900   O     0.47425   0.83092   0.67207   0.00000  Uiso   1.00
O901   O     0.57485   0.84040   0.68160   0.00000  Uiso   1.00
C902   C     0.84814   0.93316   0.75074   0.00000  Uiso   1.00
C903   C     0.78461   0.79966   0.89654   0.00000  Uiso   1.00
C904   C     0.85373   0.98880   0.75364   0.00000  Uiso   1.00
C905   C     0.80070   0.82071   0.84475   0.00000  Uiso   1.00
C906   C     0.81316   0.67800   0.73753   0.00000  Uiso   1.00
C907   C     0.81922   0.73356   0.74590   0.00000  Uiso   1.00
C908   C     0.86590   0.83905   0.65340   0.00000  Uiso   1.00
C909   C     0.96250   0.84909   0.52366   0.00000  Uiso   1.00
C910   C     0.88340   0.84353   0.59802   0.00000  Uiso   1.00
C911   C     0.73003   0.76358   0.91260   0.00000  Uiso   1.00
C912   C     0.71149   0.75531   0.96464   0.00000  Uiso   1.00
C913   C     0.80955   0.80871   0.98176   0.00000  Uiso   1.00
C914   C     0.74906   0.78088   0.99945   0.00000  Uiso   1.00
C915   C     0.99185   0.77055   0.71090   0.00000  Uiso   1.00
C916   C     0.78010   0.86021   0.58603   0.00000  Uiso   1.00
C917   C     0.90595   0.76517   0.86920   0.00000  Uiso   1.00
C918   C     0.82919   0.80836   0.92885   0.00000  Uiso   1.00
C919   C     0.85409   0.82822   0.51396   0.00000  Uiso   1.00
C920   C     0.91748   0.83565   0.99261   0.00000  Uiso   1.00
C921   C     0.93519   0.82434   0.94114   0.00000  Uiso   1.00
C922   C     0.89088   0.80508   0.91069   0.00000  Uiso   1.00
C923   C     0.83836   0.84011   0.56640   0.00000  Uiso   1.00
C924   C     0.94547   0.84993   0.57606   0.00000  Uiso   1.00
Cu925  Cu    0.77377   0.82772   0.74435   0.00000  Uiso   1.00
Cu926  Cu    0.89290   0.83895   0.75564   0.00000  Uiso   1.00
H927   H     0.98092   0.85582   0.59947   0.00000  Uiso   1.00
H928   H     0.95903   0.77488   0.68673   0.00000  Uiso   1.00
H929   H     0.79031   0.89538   0.61173   0.00000  Uiso   1.00
H930   H     0.76189   0.87364   0.55475   0.00000  Uiso   1.00
H931   H     0.74412   0.82958   0.60674   0.00000  Uiso   1.00
H932   H     0.86741   0.74796   0.84863   0.00000  Uiso   1.00
H933   H     0.94735   0.78224   0.84195   0.00000  Uiso   1.00
H934   H     0.91367   0.73139   0.88764   0.00000  Uiso   1.00
H935   H     0.67224   0.87838   0.78420   0.00000  Uiso   1.00
H936   H     0.98301   0.82526   0.92577   0.00000  Uiso   1.00
H937   H     0.67747   0.85535   0.50740   0.00000  Uiso   1.00
H938   H     0.73352   0.77256   0.53905   0.00000  Uiso   1.00
H939   H     0.66956   0.72735   0.97789   0.00000  Uiso   1.00
H940   H     0.89016   0.67832   0.77266   0.00000  Uiso   1.00
H941   H     0.69614   0.75688   0.68445   0.00000  Uiso   1.00
H942   H     0.97299   0.74005   0.73925   0.00000  Uiso   1.00
I943   I     0.74162   0.97392   0.69507   0.00000  Uiso   1.00
I944   I     0.69520   0.70427   0.86023   0.00000  Uiso   1.00
N945   N     0.98241   0.84741   0.76416   0.00000  Uiso   1.00
N946   N     0.68426   0.81926   0.73584   0.00000  Uiso   1.00
O947   O     0.79464   0.90474   0.74633   0.00000  Uiso   1.00
O948   O     0.89524   0.91422   0.75586   0.00000  Uiso   1.00
O949   O     0.75848   0.82627   0.81839   0.00000  Uiso   1.00
O950   O     0.85908   0.83575   0.82793   0.00000  Uiso   1.00
O951   O     0.77142   0.75245   0.74413   0.00000  Uiso   1.00
O952   O     0.87203   0.76193   0.75367   0.00000  Uiso   1.00
O953   O     0.80758   0.83092   0.67207   0.00000  Uiso   1.00
O954   O     0.90819   0.84040   0.68160   0.00000  Uiso   1.00
loop_
_geom_bond_atom_site_label_1
_geom_bond_atom_site_label_2
_geom_bond_distance
_geom_bond_site_symmetry_2
_ccdc_geom_bond_type
C1     O46     1.291   .     A
C1     O47     1.301   .     A
C1     C3      1.427   .     S
C2     C4      1.487   .     S
C2     C17     1.413   .     A
C2     C10     1.398   .     A
C3     C164    1.340   .     S
C3     H198    1.085   .     S
C4     O49     1.298   .     A
C4     O48     1.323   .     A
C5     C6      1.429   .     S
C5     C321    1.340   1_545 S
C5     I360    2.155   1_545 S
C6     O50     1.292   .     A
C6     O51     1.300   .     A
C7     O52     1.300   .     A
C7     O53     1.314   .     A
C7     C9      1.471   .     S
C8     C23     1.386   .     A
C8     C496    1.396   1_554 S
C8     H89     1.082   .     S
C9     C22     1.421   .     A
C9     C23     1.399   .     A
C10    C11     1.400   .     A
C10    I43     2.119   .     S
C11    H38     1.082   .     S
C11    C13     1.403   .     A
C12    C17     1.406   .     A
C12    C13     1.416   .     A
C12    C495    1.425   .     S
C13    H514    1.079   .     S
C14    H27     1.097   .     S
C14    H41     1.106   .     S
C14    H93     1.108   .     S
C14    N98     1.441   .     S
C15    H28     1.109   .     S
C15    H29     1.109   .     S
C15    H30     1.109   .     S
C15    C22     1.516   .     S
C16    C21     1.506   .     S
C16    H32     1.109   .     S
C16    H33     1.105   .     S
C16    H31     1.106   .     S
C17    C21     1.411   .     A
C18    C22     1.411   .     A
C18    C489    1.425   1_554 S
C18    C496    1.421   1_554 S
C19    C20     1.391   .     A
C19    C495    1.421   .     S
C19    C485    1.396   .     S
C20    C21     1.388   .     A
C20    H35     1.081   .     S
C23    H26     1.081   .     S
Cu24   O52     1.950   .     S
Cu24   Cu25    2.713   .     S
Cu24   O46     1.959   .     S
Cu24   N45     2.039   .     S
Cu24   O50     1.953   .     S
Cu24   O48     1.952   .     S
Cu25   O51     1.959   .     S
Cu25   O47     1.953   .     S
Cu25   N44     2.039   .     S
Cu25   O53     1.952   .     S
Cu25   O49     1.950   .     S
H34    N150    1.029   1_455 S
H36    C114    1.082   1_455 S
H37    C490    1.079   1_554 S
H39    C321    1.085   1_545 S
H40    C120    1.108   1_455 S
I42    C164    2.155   .     S
N44    H87     1.029   .     S
N44    N98     1.303   .     S
N45    C120    1.441   1_455 S
N45    N150    1.303   1_455 S
C54    O99     1.291   .     A
C54    O100    1.301   .     A
C54    C56     1.427   .     S
C55    C57     1.487   .     S
C55    C70     1.413   .     A
C55    C63     1.398   .     A
C56    C217    1.340   .     S
C56    H251    1.085   .     S
C57    O102    1.298   .     A
C57    O101    1.323   .     A
C58    C59     1.429   .     S
C58    C374    1.340   1_545 S
C58    I413    2.155   1_545 S
C59    O103    1.292   .     A
C59    O104    1.300   .     A
C60    O105    1.300   .     A
C60    O106    1.314   .     A
C60    C62     1.471   .     S
C61    C76     1.386   .     A
C61    C549    1.396   1_554 S
C61    H142    1.082   .     S
C62    C75     1.421   .     A
C62    C76     1.399   .     A
C63    C64     1.400   .     A
C63    I96     2.119   .     S
C64    H91     1.082   .     S
C64    C66     1.403   .     A
C65    C70     1.406   .     A
C65    C66     1.416   .     A
C65    C548    1.425   .     S
C66    H567    1.079   .     S
C67    H80     1.097   .     S
C67    H94     1.106   .     S
C67    H146    1.108   .     S
C67    N151    1.441   .     S
C68    H81     1.109   .     S
C68    H82     1.109   .     S
C68    H83     1.109   .     S
C68    C75     1.516   .     S
C69    C74     1.506   .     S
C69    H85     1.109   .     S
C69    H86     1.105   .     S
C69    H84     1.106   .     S
C70    C74     1.411   .     A
C71    C75     1.411   .     A
C71    C542    1.425   1_554 S
C71    C549    1.421   1_554 S
C72    C73     1.391   .     A
C72    C548    1.421   .     S
C72    C538    1.396   .     S
C73    C74     1.388   .     A
C73    H88     1.081   .     S
C76    H79     1.081   .     S
Cu77   O105    1.950   .     S
Cu77   Cu78    2.713   .     S
Cu77   O99     1.959   .     S
Cu77   N98     2.039   .     S
Cu77   O103    1.953   .     S
Cu77   O101    1.952   .     S
Cu78   O104    1.959   .     S
Cu78   O100    1.953   .     S
Cu78   N97     2.039   .     S
Cu78   O106    1.952   .     S
Cu78   O102    1.950   .     S
H90    C543    1.079   1_554 S
H92    C374    1.085   1_545 S
I95    C217    2.155   .     S
N97    H140    1.029   .     S
N97    N151    1.303   .     S
C107   O152    1.291   .     A
C107   O153    1.301   .     A
C107   C109    1.427   .     S
C108   C110    1.487   .     S
C108   C123    1.413   .     A
C108   C116    1.398   .     A
C109   C270    1.340   .     S
C109   H304    1.085   .     S
C110   O155    1.298   .     A
C110   O154    1.323   .     A
C111   C112    1.429   .     S
C111   C427    1.340   1_545 S
C111   I466    2.155   1_545 S
C112   O156    1.292   .     A
C112   O157    1.300   .     A
C113   O158    1.300   .     A
C113   O159    1.314   .     A
C113   C115    1.471   .     S
C114   C129    1.386   .     A
C114   C602    1.396   1_554 S
C114   H36     1.082   1_655 S
C115   C128    1.421   .     A
C115   C129    1.399   .     A
C116   C117    1.400   .     A
C116   I149    2.119   .     S
C117   H144    1.082   .     S
C117   C119    1.403   .     A
C118   C123    1.406   .     A
C118   C119    1.416   .     A
C118   C601    1.425   .     S
C119   H620    1.079   .     S
C120   H133    1.097   .     S
C120   H147    1.106   .     S
C120   H40     1.108   1_655 S
C120   N45     1.441   1_655 S
C121   H134    1.109   .     S
C121   H135    1.109   .     S
C121   H136    1.109   .     S
C121   C128    1.516   .     S
C122   C127    1.506   .     S
C122   H138    1.109   .     S
C122   H139    1.105   .     S
C122   H137    1.106   .     S
C123   C127    1.411   .     A
C124   C128    1.411   .     A
C124   C595    1.425   1_554 S
C124   C602    1.421   1_554 S
C125   C126    1.391   .     A
C125   C601    1.421   .     S
C125   C591    1.396   .     S
C126   C127    1.388   .     A
C126   H141    1.081   .     S
C129   H132    1.081   .     S
Cu130  O158    1.950   .     S
Cu130  Cu131   2.713   .     S
Cu130  O152    1.959   .     S
Cu130  N151    2.039   .     S
Cu130  O156    1.953   .     S
Cu130  O154    1.952   .     S
Cu131  O157    1.959   .     S
Cu131  O153    1.953   .     S
Cu131  N150    2.039   .     S
Cu131  O159    1.952   .     S
Cu131  O155    1.950   .     S
H143   C596    1.079   1_554 S
H145   C427    1.085   1_545 S
I148   C270    2.155   .     S
N150   H34     1.029   1_655 S
N150   N45     1.303   1_655 S
C160   O205    1.291   .     A
C160   O206    1.301   .     A
C160   C162    1.427   .     S
C161   C163    1.487   .     S
C161   C176    1.413   .     A
C161   C169    1.398   .     A
C162   C323    1.340   .     S
C162   H357    1.085   .     S
C163   O208    1.298   .     A
C163   O207    1.323   .     A
C164   C165    1.429   .     S
C165   O209    1.292   .     A
C165   O210    1.300   .     A
C166   O211    1.300   .     A
C166   O212    1.314   .     A
C166   C168    1.471   .     S
C167   C182    1.386   .     A
C167   C655    1.396   1_554 S
C167   H248    1.082   .     S
C168   C181    1.421   .     A
C168   C182    1.399   .     A
C169   C170    1.400   .     A
C169   I202    2.119   .     S
C170   H197    1.082   .     S
C170   C172    1.403   .     A
C171   C176    1.406   .     A
C171   C172    1.416   .     A
C171   C654    1.425   .     S
C172   H673    1.079   .     S
C173   H186    1.097   .     S
C173   H200    1.106   .     S
C173   H252    1.108   .     S
C173   N257    1.441   .     S
C174   H187    1.109   .     S
C174   H188    1.109   .     S
C174   H189    1.109   .     S
C174   C181    1.516   .     S
C175   C180    1.506   .     S
C175   H191    1.109   .     S
C175   H192    1.105   .     S
C175   H190    1.106   .     S
C176   C180    1.411   .     A
C177   C181    1.411   .     A
C177   C648    1.425   1_554 S
C177   C655    1.421   1_554 S
C178   C179    1.391   .     A
C178   C654    1.421   .     S
C178   C644    1.396   .     S
C179   C180    1.388   .     A
C179   H194    1.081   .     S
C182   H185    1.081   .     S
Cu183  O211    1.950   .     S
Cu183  Cu184   2.713   .     S
Cu183  O205    1.959   .     S
Cu183  N204    2.039   .     S
Cu183  O209    1.953   .     S
Cu183  O207    1.952   .     S
Cu184  O210    1.959   .     S
Cu184  O206    1.953   .     S
Cu184  N203    2.039   .     S
Cu184  O212    1.952   .     S
Cu184  O208    1.950   .     S
H193   N309    1.029   1_455 S
H195   C273    1.082   1_455 S
H196   C649    1.079   1_554 S
H199   C279    1.108   1_455 S
I201   C323    2.155   .     S
N203   H246    1.029   .     S
N203   N257    1.303   .     S
N204   C279    1.441   1_455 S
N204   N309    1.303   1_455 S
C213   O258    1.291   .     A
C213   O259    1.301   .     A
C213   C215    1.427   .     S
C214   C216    1.487   .     S
C214   C229    1.413   .     A
C214   C222    1.398   .     A
C215   C376    1.340   .     S
C215   H410    1.085   .     S
C216   O261    1.298   .     A
C216   O260    1.323   .     A
C217   C218    1.429   .     S
C218   O262    1.292   .     A
C218   O263    1.300   .     A
C219   O264    1.300   .     A
C219   O265    1.314   .     A
C219   C221    1.471   .     S
C220   C235    1.386   .     A
C220   C708    1.396   1_554 S
C220   H301    1.082   .     S
C221   C234    1.421   .     A
C221   C235    1.399   .     A
C222   C223    1.400   .     A
C222   I255    2.119   .     S
C223   H250    1.082   .     S
C223   C225    1.403   .     A
C224   C229    1.406   .     A
C224   C225    1.416   .     A
C224   C707    1.425   .     S
C225   H726    1.079   .     S
C226   H239    1.097   .     S
C226   H253    1.106   .     S
C226   H305    1.108   .     S
C226   N310    1.441   .     S
C227   H240    1.109   .     S
C227   H241    1.109   .     S
C227   H242    1.109   .     S
C227   C234    1.516   .     S
C228   C233    1.506   .     S
C228   H244    1.109   .     S
C228   H245    1.105   .     S
C228   H243    1.106   .     S
C229   C233    1.411   .     A
C230   C234    1.411   .     A
C230   C701    1.425   1_554 S
C230   C708    1.421   1_554 S
C231   C232    1.391   .     A
C231   C707    1.421   .     S
C231   C697    1.396   .     S
C232   C233    1.388   .     A
C232   H247    1.081   .     S
C235   H238    1.081   .     S
Cu236  O264    1.950   .     S
Cu236  Cu237   2.713   .     S
Cu236  O258    1.959   .     S
Cu236  N257    2.039   .     S
Cu236  O262    1.953   .     S
Cu236  O260    1.952   .     S
Cu237  O263    1.959   .     S
Cu237  O259    1.953   .     S
Cu237  N256    2.039   .     S
Cu237  O265    1.952   .     S
Cu237  O261    1.950   .     S
H249   C702    1.079   1_554 S
I254   C376    2.155   .     S
N256   H299    1.029   .     S
N256   N310    1.303   .     S
C266   O311    1.291   .     A
C266   O312    1.301   .     A
C266   C268    1.427   .     S
C267   C269    1.487   .     S
C267   C282    1.413   .     A
C267   C275    1.398   .     A
C268   C429    1.340   .     S
C268   H463    1.085   .     S
C269   O314    1.298   .     A
C269   O313    1.323   .     A
C270   C271    1.429   .     S
C271   O315    1.292   .     A
C271   O316    1.300   .     A
C272   O317    1.300   .     A
C272   O318    1.314   .     A
C272   C274    1.471   .     S
C273   C288    1.386   .     A
C273   C761    1.396   1_554 S
C273   H195    1.082   1_655 S
C274   C287    1.421   .     A
C274   C288    1.399   .     A
C275   C276    1.400   .     A
C275   I308    2.119   .     S
C276   H303    1.082   .     S
C276   C278    1.403   .     A
C277   C282    1.406   .     A
C277   C278    1.416   .     A
C277   C760    1.425   .     S
C278   H779    1.079   .     S
C279   H292    1.097   .     S
C279   H306    1.106   .     S
C279   H199    1.108   1_655 S
C279   N204    1.441   1_655 S
C280   H293    1.109   .     S
C280   H294    1.109   .     S
C280   H295    1.109   .     S
C280   C287    1.516   .     S
C281   C286    1.506   .     S
C281   H297    1.109   .     S
C281   H298    1.105   .     S
C281   H296    1.106   .     S
C282   C286    1.411   .     A
C283   C287    1.411   .     A
C283   C754    1.425   1_554 S
C283   C761    1.421   1_554 S
C284   C285    1.391   .     A
C284   C760    1.421   .     S
C284   C750    1.396   .     S
C285   C286    1.388   .     A
C285   H300    1.081   .     S
C288   H291    1.081   .     S
Cu289  O317    1.950   .     S
Cu289  Cu290   2.713   .     S
Cu289  O311    1.959   .     S
Cu289  N310    2.039   .     S
Cu289  O315    1.953   .     S
Cu289  O313    1.952   .     S
Cu290  O316    1.959   .     S
Cu290  O312    1.953   .     S
Cu290  N309    2.039   .     S
Cu290  O318    1.952   .     S
Cu290  O314    1.950   .     S
H302   C755    1.079   1_554 S
I307   C429    2.155   .     S
N309   H193    1.029   1_655 S
N309   N204    1.303   1_655 S
C319   O364    1.291   .     A
C319   O365    1.301   .     A
C319   C321    1.427   .     S
C320   C322    1.487   .     S
C320   C335    1.413   .     A
C320   C328    1.398   .     A
C321   C5      1.340   1_565 S
C321   H39     1.085   1_565 S
C322   O367    1.298   .     A
C322   O366    1.323   .     A
C323   C324    1.429   .     S
C324   O368    1.292   .     A
C324   O369    1.300   .     A
C325   O370    1.300   .     A
C325   O371    1.314   .     A
C325   C327    1.471   .     S
C326   C341    1.386   .     A
C326   C814    1.396   1_554 S
C326   H407    1.082   .     S
C327   C340    1.421   .     A
C327   C341    1.399   .     A
C328   C329    1.400   .     A
C328   I361    2.119   .     S
C329   H356    1.082   .     S
C329   C331    1.403   .     A
C330   C335    1.406   .     A
C330   C331    1.416   .     A
C330   C813    1.425   .     S
C331   H832    1.079   .     S
C332   H345    1.097   .     S
C332   H359    1.106   .     S
C332   H411    1.108   .     S
C332   N416    1.441   .     S
C333   H346    1.109   .     S
C333   H347    1.109   .     S
C333   H348    1.109   .     S
C333   C340    1.516   .     S
C334   C339    1.506   .     S
C334   H350    1.109   .     S
C334   H351    1.105   .     S
C334   H349    1.106   .     S
C335   C339    1.411   .     A
C336   C340    1.411   .     A
C336   C807    1.425   1_554 S
C336   C814    1.421   1_554 S
C337   C338    1.391   .     A
C337   C813    1.421   .     S
C337   C803    1.396   .     S
C338   C339    1.388   .     A
C338   H353    1.081   .     S
C341   H344    1.081   .     S
Cu342  O370    1.950   .     S
Cu342  Cu343   2.713   .     S
Cu342  O364    1.959   .     S
Cu342  N363    2.039   .     S
Cu342  O368    1.953   .     S
Cu342  O366    1.952   .     S
Cu343  O369    1.959   .     S
Cu343  O365    1.953   .     S
Cu343  N362    2.039   .     S
Cu343  O371    1.952   .     S
Cu343  O367    1.950   .     S
H352   N468    1.029   1_455 S
H354   C432    1.082   1_455 S
H355   C808    1.079   1_554 S
H358   C438    1.108   1_455 S
I360   C5      2.155   1_565 S
N362   H405    1.029   .     S
N362   N416    1.303   .     S
N363   C438    1.441   1_455 S
N363   N468    1.303   1_455 S
C372   O417    1.291   .     A
C372   O418    1.301   .     A
C372   C374    1.427   .     S
C373   C375    1.487   .     S
C373   C388    1.413   .     A
C373   C381    1.398   .     A
C374   C58     1.340   1_565 S
C374   H92     1.085   1_565 S
C375   O420    1.298   .     A
C375   O419    1.323   .     A
C376   C377    1.429   .     S
C377   O421    1.292   .     A
C377   O422    1.300   .     A
C378   O423    1.300   .     A
C378   O424    1.314   .     A
C378   C380    1.471   .     S
C379   C394    1.386   .     A
C379   C867    1.396   1_554 S
C379   H460    1.082   .     S
C380   C393    1.421   .     A
C380   C394    1.399   .     A
C381   C382    1.400   .     A
C381   I414    2.119   .     S
C382   H409    1.082   .     S
C382   C384    1.403   .     A
C383   C388    1.406   .     A
C383   C384    1.416   .     A
C383   C866    1.425   .     S
C384   H885    1.079   .     S
C385   H398    1.097   .     S
C385   H412    1.106   .     S
C385   H464    1.108   .     S
C385   N469    1.441   .     S
C386   H399    1.109   .     S
C386   H400    1.109   .     S
C386   H401    1.109   .     S
C386   C393    1.516   .     S
C387   C392    1.506   .     S
C387   H403    1.109   .     S
C387   H404    1.105   .     S
C387   H402    1.106   .     S
C388   C392    1.411   .     A
C389   C393    1.411   .     A
C389   C860    1.425   1_554 S
C389   C867    1.421   1_554 S
C390   C391    1.391   .     A
C390   C866    1.421   .     S
C390   C856    1.396   .     S
C391   C392    1.388   .     A
C391   H406    1.081   .     S
C394   H397    1.081   .     S
Cu395  O423    1.950   .     S
Cu395  Cu396   2.713   .     S
Cu395  O417    1.959   .     S
Cu395  N416    2.039   .     S
Cu395  O421    1.953   .     S
Cu395  O419    1.952   .     S
Cu396  O422    1.959   .     S
Cu396  O418    1.953   .     S
Cu396  N415    2.039   .     S
Cu396  O424    1.952   .     S
Cu396  O420    1.950   .     S
H408   C861    1.079   1_554 S
I413   C58     2.155   1_565 S
N415   H458    1.029   .     S
N415   N469    1.303   .     S
C425   O470    1.291   .     A
C425   O471    1.301   .     A
C425   C427    1.427   .     S
C426   C428    1.487   .     S
C426   C441    1.413   .     A
C426   C434    1.398   .     A
C427   C111    1.340   1_565 S
C427   H145    1.085   1_565 S
C428   O473    1.298   .     A
C428   O472    1.323   .     A
C429   C430    1.429   .     S
C430   O474    1.292   .     A
C430   O475    1.300   .     A
C431   O476    1.300   .     A
C431   O477    1.314   .     A
C431   C433    1.471   .     S
C432   C447    1.386   .     A
C432   C920    1.396   1_554 S
C432   H354    1.082   1_655 S
C433   C446    1.421   .     A
C433   C447    1.399   .     A
C434   C435    1.400   .     A
C434   I467    2.119   .     S
C435   H462    1.082   .     S
C435   C437    1.403   .     A
C436   C441    1.406   .     A
C436   C437    1.416   .     A
C436   C919    1.425   .     S
C437   H938    1.079   .     S
C438   H451    1.097   .     S
C438   H465    1.106   .     S
C438   H358    1.108   1_655 S
C438   N363    1.441   1_655 S
C439   H452    1.109   .     S
C439   H453    1.109   .     S
C439   H454    1.109   .     S
C439   C446    1.516   .     S
C440   C445    1.506   .     S
C440   H456    1.109   .     S
C440   H457    1.105   .     S
C440   H455    1.106   .     S
C441   C445    1.411   .     A
C442   C446    1.411   .     A
C442   C913    1.425   1_554 S
C442   C920    1.421   1_554 S
C443   C444    1.391   .     A
C443   C919    1.421   .     S
C443   C909    1.396   .     S
C444   C445    1.388   .     A
C444   H459    1.081   .     S
C447   H450    1.081   .     S
Cu448  O476    1.950   .     S
Cu448  Cu449   2.713   .     S
Cu448  O470    1.959   .     S
Cu448  N469    2.039   .     S
Cu448  O474    1.953   .     S
Cu448  O472    1.952   .     S
Cu449  O475    1.959   .     S
Cu449  O471    1.953   .     S
Cu449  N468    2.039   .     S
Cu449  O477    1.952   .     S
Cu449  O473    1.950   .     S
H461   C914    1.079   1_554 S
I466   C111    2.155   1_565 S
N468   H352    1.029   1_655 S
N468   N363    1.303   1_655 S
C478   O523    1.291   .     A
C478   O524    1.301   .     A
C478   C480    1.427   .     S
C479   C481    1.487   .     S
C479   C494    1.413   .     A
C479   C487    1.398   .     A
C480   C641    1.340   .     S
C480   H675    1.085   .     S
C481   O526    1.298   .     A
C481   O525    1.323   .     A
C482   C483    1.429   .     S
C482   C798    1.340   1_545 S
C482   I837    2.155   1_545 S
C483   O527    1.292   .     A
C483   O528    1.300   .     A
C484   O529    1.300   .     A
C484   O530    1.314   .     A
C484   C486    1.471   .     S
C485   C500    1.386   .     A
C485   H566    1.082   .     S
C486   C499    1.421   .     A
C486   C500    1.399   .     A
C487   C488    1.400   .     A
C487   I520    2.119   .     S
C488   H515    1.082   .     S
C488   C490    1.403   .     A
C489   C494    1.406   .     A
C489   C490    1.416   .     A
C489   C18     1.425   1_556 S
C490   H37     1.079   1_556 S
C491   H504    1.097   .     S
C491   H518    1.106   .     S
C491   H570    1.108   .     S
C491   N575    1.441   .     S
C492   H505    1.109   .     S
C492   H506    1.109   .     S
C492   H507    1.109   .     S
C492   C499    1.516   .     S
C493   C498    1.506   .     S
C493   H509    1.109   .     S
C493   H510    1.105   .     S
C493   H508    1.106   .     S
C494   C498    1.411   .     A
C495   C499    1.411   .     A
C496   C497    1.391   .     A
C496   C18     1.421   1_556 S
C496   C8      1.396   1_556 S
C497   C498    1.388   .     A
C497   H512    1.081   .     S
C500   H503    1.081   .     S
Cu501  O529    1.950   .     S
Cu501  Cu502   2.713   .     S
Cu501  O523    1.959   .     S
Cu501  N522    2.039   .     S
Cu501  O527    1.953   .     S
Cu501  O525    1.952   .     S
Cu502  O528    1.959   .     S
Cu502  O524    1.953   .     S
Cu502  N521    2.039   .     S
Cu502  O530    1.952   .     S
Cu502  O526    1.950   .     S
H511   N627    1.029   1_455 S
H513   C591    1.082   1_455 S
H516   C798    1.085   1_545 S
H517   C597    1.108   1_455 S
I519   C641    2.155   .     S
N521   H564    1.029   .     S
N521   N575    1.303   .     S
N522   C597    1.441   1_455 S
N522   N627    1.303   1_455 S
C531   O576    1.291   .     A
C531   O577    1.301   .     A
C531   C533    1.427   .     S
C532   C534    1.487   .     S
C532   C547    1.413   .     A
C532   C540    1.398   .     A
C533   C694    1.340   .     S
C533   H728    1.085   .     S
C534   O579    1.298   .     A
C534   O578    1.323   .     A
C535   C536    1.429   .     S
C535   C851    1.340   1_545 S
C535   I890    2.155   1_545 S
C536   O580    1.292   .     A
C536   O581    1.300   .     A
C537   O582    1.300   .     A
C537   O583    1.314   .     A
C537   C539    1.471   .     S
C538   C553    1.386   .     A
C538   H619    1.082   .     S
C539   C552    1.421   .     A
C539   C553    1.399   .     A
C540   C541    1.400   .     A
C540   I573    2.119   .     S
C541   H568    1.082   .     S
C541   C543    1.403   .     A
C542   C547    1.406   .     A
C542   C543    1.416   .     A
C542   C71     1.425   1_556 S
C543   H90     1.079   1_556 S
C544   H557    1.097   .     S
C544   H571    1.106   .     S
C544   H623    1.108   .     S
C544   N628    1.441   .     S
C545   H558    1.109   .     S
C545   H559    1.109   .     S
C545   H560    1.109   .     S
C545   C552    1.516   .     S
C546   C551    1.506   .     S
C546   H562    1.109   .     S
C546   H563    1.105   .     S
C546   H561    1.106   .     S
C547   C551    1.411   .     A
C548   C552    1.411   .     A
C549   C550    1.391   .     A
C549   C71     1.421   1_556 S
C549   C61     1.396   1_556 S
C550   C551    1.388   .     A
C550   H565    1.081   .     S
C553   H556    1.081   .     S
Cu554  O582    1.950   .     S
Cu554  Cu555   2.713   .     S
Cu554  O576    1.959   .     S
Cu554  N575    2.039   .     S
Cu554  O580    1.953   .     S
Cu554  O578    1.952   .     S
Cu555  O581    1.959   .     S
Cu555  O577    1.953   .     S
Cu555  N574    2.039   .     S
Cu555  O583    1.952   .     S
Cu555  O579    1.950   .     S
H569   C851    1.085   1_545 S
I572   C694    2.155   .     S
N574   H617    1.029   .     S
N574   N628    1.303   .     S
C584   O629    1.291   .     A
C584   O630    1.301   .     A
C584   C586    1.427   .     S
C585   C587    1.487   .     S
C585   C600    1.413   .     A
C585   C593    1.398   .     A
C586   C747    1.340   .     S
C586   H781    1.085   .     S
C587   O632    1.298   .     A
C587   O631    1.323   .     A
C588   C589    1.429   .     S
C588   C904    1.340   1_545 S
C588   I943    2.155   1_545 S
C589   O633    1.292   .     A
C589   O634    1.300   .     A
C590   O635    1.300   .     A
C590   O636    1.314   .     A
C590   C592    1.471   .     S
C591   C606    1.386   .     A
C591   H513    1.082   1_655 S
C592   C605    1.421   .     A
C592   C606    1.399   .     A
C593   C594    1.400   .     A
C593   I626    2.119   .     S
C594   H621    1.082   .     S
C594   C596    1.403   .     A
C595   C600    1.406   .     A
C595   C596    1.416   .     A
C595   C124    1.425   1_556 S
C596   H143    1.079   1_556 S
C597   H610    1.097   .     S
C597   H624    1.106   .     S
C597   H517    1.108   1_655 S
C597   N522    1.441   1_655 S
C598   H611    1.109   .     S
C598   H612    1.109   .     S
C598   H613    1.109   .     S
C598   C605    1.516   .     S
C599   C604    1.506   .     S
C599   H615    1.109   .     S
C599   H616    1.105   .     S
C599   H614    1.106   .     S
C600   C604    1.411   .     A
C601   C605    1.411   .     A
C602   C603    1.391   .     A
C602   C124    1.421   1_556 S
C602   C114    1.396   1_556 S
C603   C604    1.388   .     A
C603   H618    1.081   .     S
C606   H609    1.081   .     S
Cu607  O635    1.950   .     S
Cu607  Cu608   2.713   .     S
Cu607  O629    1.959   .     S
Cu607  N628    2.039   .     S
Cu607  O633    1.953   .     S
Cu607  O631    1.952   .     S
Cu608  O634    1.959   .     S
Cu608  O630    1.953   .     S
Cu608  N627    2.039   .     S
Cu608  O636    1.952   .     S
Cu608  O632    1.950   .     S
H622   C904    1.085   1_545 S
I625   C747    2.155   .     S
N627   H511    1.029   1_655 S
N627   N522    1.303   1_655 S
C637   O682    1.291   .     A
C637   O683    1.301   .     A
C637   C639    1.427   .     S
C638   C640    1.487   .     S
C638   C653    1.413   .     A
C638   C646    1.398   .     A
C639   C800    1.340   .     S
C639   H834    1.085   .     S
C640   O685    1.298   .     A
C640   O684    1.323   .     A
C641   C642    1.429   .     S
C642   O686    1.292   .     A
C642   O687    1.300   .     A
C643   O688    1.300   .     A
C643   O689    1.314   .     A
C643   C645    1.471   .     S
C644   C659    1.386   .     A
C644   H725    1.082   .     S
C645   C658    1.421   .     A
C645   C659    1.399   .     A
C646   C647    1.400   .     A
C646   I679    2.119   .     S
C647   H674    1.082   .     S
C647   C649    1.403   .     A
C648   C653    1.406   .     A
C648   C649    1.416   .     A
C648   C177    1.425   1_556 S
C649   H196    1.079   1_556 S
C650   H663    1.097   .     S
C650   H677    1.106   .     S
C650   H729    1.108   .     S
C650   N734    1.441   .     S
C651   H664    1.109   .     S
C651   H665    1.109   .     S
C651   H666    1.109   .     S
C651   C658    1.516   .     S
C652   C657    1.506   .     S
C652   H668    1.109   .     S
C652   H669    1.105   .     S
C652   H667    1.106   .     S
C653   C657    1.411   .     A
C654   C658    1.411   .     A
C655   C656    1.391   .     A
C655   C177    1.421   1_556 S
C655   C167    1.396   1_556 S
C656   C657    1.388   .     A
C656   H671    1.081   .     S
C659   H662    1.081   .     S
Cu660  O688    1.950   .     S
Cu660  Cu661   2.713   .     S
Cu660  O682    1.959   .     S
Cu660  N681    2.039   .     S
Cu660  O686    1.953   .     S
Cu660  O684    1.952   .     S
Cu661  O687    1.959   .     S
Cu661  O683    1.953   .     S
Cu661  N680    2.039   .     S
Cu661  O689    1.952   .     S
Cu661  O685    1.950   .     S
H670   N786    1.029   1_455 S
H672   C750    1.082   1_455 S
H676   C756    1.108   1_455 S
I678   C800    2.155   .     S
N680   H723    1.029   .     S
N680   N734    1.303   .     S
N681   C756    1.441   1_455 S
N681   N786    1.303   1_455 S
C690   O735    1.291   .     A
C690   O736    1.301   .     A
C690   C692    1.427   .     S
C691   C693    1.487   .     S
C691   C706    1.413   .     A
C691   C699    1.398   .     A
C692   C853    1.340   .     S
C692   H887    1.085   .     S
C693   O738    1.298   .     A
C693   O737    1.323   .     A
C694   C695    1.429   .     S
C695   O739    1.292   .     A
C695   O740    1.300   .     A
C696   O741    1.300   .     A
C696   O742    1.314   .     A
C696   C698    1.471   .     S
C697   C712    1.386   .     A
C697   H778    1.082   .     S
C698   C711    1.421   .     A
C698   C712    1.399   .     A
C699   C700    1.400   .     A
C699   I732    2.119   .     S
C700   H727    1.082   .     S
C700   C702    1.403   .     A
C701   C706    1.406   .     A
C701   C702    1.416   .     A
C701   C230    1.425   1_556 S
C702   H249    1.079   1_556 S
C703   H716    1.097   .     S
C703   H730    1.106   .     S
C703   H782    1.108   .     S
C703   N787    1.441   .     S
C704   H717    1.109   .     S
C704   H718    1.109   .     S
C704   H719    1.109   .     S
C704   C711    1.516   .     S
C705   C710    1.506   .     S
C705   H721    1.109   .     S
C705   H722    1.105   .     S
C705   H720    1.106   .     S
C706   C710    1.411   .     A
C707   C711    1.411   .     A
C708   C709    1.391   .     A
C708   C230    1.421   1_556 S
C708   C220    1.396   1_556 S
C709   C710    1.388   .     A
C709   H724    1.081   .     S
C712   H715    1.081   .     S
Cu713  O741    1.950   .     S
Cu713  Cu714   2.713   .     S
Cu713  O735    1.959   .     S
Cu713  N734    2.039   .     S
Cu713  O739    1.953   .     S
Cu713  O737    1.952   .     S
Cu714  O740    1.959   .     S
Cu714  O736    1.953   .     S
Cu714  N733    2.039   .     S
Cu714  O742    1.952   .     S
Cu714  O738    1.950   .     S
I731   C853    2.155   .     S
N733   H776    1.029   .     S
N733   N787    1.303   .     S
C743   O788    1.291   .     A
C743   O789    1.301   .     A
C743   C745    1.427   .     S
C744   C746    1.487   .     S
C744   C759    1.413   .     A
C744   C752    1.398   .     A
C745   C906    1.340   .     S
C745   H940    1.085   .     S
C746   O791    1.298   .     A
C746   O790    1.323   .     A
C747   C748    1.429   .     S
C748   O792    1.292   .     A
C748   O793    1.300   .     A
C749   O794    1.300   .     A
C749   O795    1.314   .     A
C749   C751    1.471   .     S
C750   C765    1.386   .     A
C750   H672    1.082   1_655 S
C751   C764    1.421   .     A
C751   C765    1.399   .     A
C752   C753    1.400   .     A
C752   I785    2.119   .     S
C753   H780    1.082   .     S
C753   C755    1.403   .     A
C754   C759    1.406   .     A
C754   C755    1.416   .     A
C754   C283    1.425   1_556 S
C755   H302    1.079   1_556 S
C756   H769    1.097   .     S
C756   H783    1.106   .     S
C756   H676    1.108   1_655 S
C756   N681    1.441   1_655 S
C757   H770    1.109   .     S
C757   H771    1.109   .     S
C757   H772    1.109   .     S
C757   C764    1.516   .     S
C758   C763    1.506   .     S
C758   H774    1.109   .     S
C758   H775    1.105   .     S
C758   H773    1.106   .     S
C759   C763    1.411   .     A
C760   C764    1.411   .     A
C761   C762    1.391   .     A
C761   C283    1.421   1_556 S
C761   C273    1.396   1_556 S
C762   C763    1.388   .     A
C762   H777    1.081   .     S
C765   H768    1.081   .     S
Cu766  O794    1.950   .     S
Cu766  Cu767   2.713   .     S
Cu766  O788    1.959   .     S
Cu766  N787    2.039   .     S
Cu766  O792    1.953   .     S
Cu766  O790    1.952   .     S
Cu767  O793    1.959   .     S
Cu767  O789    1.953   .     S
Cu767  N786    2.039   .     S
Cu767  O795    1.952   .     S
Cu767  O791    1.950   .     S
I784   C906    2.155   .     S
N786   H670    1.029   1_655 S
N786   N681    1.303   1_655 S
C796   O841    1.291   .     A
C796   O842    1.301   .     A
C796   C798    1.427   .     S
C797   C799    1.487   .     S
C797   C812    1.413   .     A
C797   C805    1.398   .     A
C798   C482    1.340   1_565 S
C798   H516    1.085   1_565 S
C799   O844    1.298   .     A
C799   O843    1.323   .     A
C800   C801    1.429   .     S
C801   O845    1.292   .     A
C801   O846    1.300   .     A
C802   O847    1.300   .     A
C802   O848    1.314   .     A
C802   C804    1.471   .     S
C803   C818    1.386   .     A
C803   H884    1.082   .     S
C804   C817    1.421   .     A
C804   C818    1.399   .     A
C805   C806    1.400   .     A
C805   I838    2.119   .     S
C806   H833    1.082   .     S
C806   C808    1.403   .     A
C807   C812    1.406   .     A
C807   C808    1.416   .     A
C807   C336    1.425   1_556 S
C808   H355    1.079   1_556 S
C809   H822    1.097   .     S
C809   H836    1.106   .     S
C809   H888    1.108   .     S
C809   N893    1.441   .     S
C810   H823    1.109   .     S
C810   H824    1.109   .     S
C810   H825    1.109   .     S
C810   C817    1.516   .     S
C811   C816    1.506   .     S
C811   H827    1.109   .     S
C811   H828    1.105   .     S
C811   H826    1.106   .     S
C812   C816    1.411   .     A
C813   C817    1.411   .     A
C814   C815    1.391   .     A
C814   C336    1.421   1_556 S
C814   C326    1.396   1_556 S
C815   C816    1.388   .     A
C815   H830    1.081   .     S
C818   H821    1.081   .     S
Cu819  O847    1.950   .     S
Cu819  Cu820   2.713   .     S
Cu819  O841    1.959   .     S
Cu819  N840    2.039   .     S
Cu819  O845    1.953   .     S
Cu819  O843    1.952   .     S
Cu820  O846    1.959   .     S
Cu820  O842    1.953   .     S
Cu820  N839    2.039   .     S
Cu820  O848    1.952   .     S
Cu820  O844    1.950   .     S
H829   N945    1.029   1_455 S
H831   C909    1.082   1_455 S
H835   C915    1.108   1_455 S
I837   C482    2.155   1_565 S
N839   H882    1.029   .     S
N839   N893    1.303   .     S
N840   C915    1.441   1_455 S
N840   N945    1.303   1_455 S
C849   O894    1.291   .     A
C849   O895    1.301   .     A
C849   C851    1.427   .     S
C850   C852    1.487   .     S
C850   C865    1.413   .     A
C850   C858    1.398   .     A
C851   C535    1.340   1_565 S
C851   H569    1.085   1_565 S
C852   O897    1.298   .     A
C852   O896    1.323   .     A
C853   C854    1.429   .     S
C854   O898    1.292   .     A
C854   O899    1.300   .     A
C855   O900    1.300   .     A
C855   O901    1.314   .     A
C855   C857    1.471   .     S
C856   C871    1.386   .     A
C856   H937    1.082   .     S
C857   C870    1.421   .     A
C857   C871    1.399   .     A
C858   C859    1.400   .     A
C858   I891    2.119   .     S
C859   H886    1.082   .     S
C859   C861    1.403   .     A
C860   C865    1.406   .     A
C860   C861    1.416   .     A
C860   C389    1.425   1_556 S
C861   H408    1.079   1_556 S
C862   H875    1.097   .     S
C862   H889    1.106   .     S
C862   H941    1.108   .     S
C862   N946    1.441   .     S
C863   H876    1.109   .     S
C863   H877    1.109   .     S
C863   H878    1.109   .     S
C863   C870    1.516   .     S
C864   C869    1.506   .     S
C864   H880    1.109   .     S
C864   H881    1.105   .     S
C864   H879    1.106   .     S
C865   C869    1.411   .     A
C866   C870    1.411   .     A
C867   C868    1.391   .     A
C867   C389    1.421   1_556 S
C867   C379    1.396   1_556 S
C868   C869    1.388   .     A
C868   H883    1.081   .     S
C871   H874    1.081   .     S
Cu872  O900    1.950   .     S
Cu872  Cu873   2.713   .     S
Cu872  O894    1.959   .     S
Cu872  N893    2.039   .     S
Cu872  O898    1.953   .     S
Cu872  O896    1.952   .     S
Cu873  O899    1.959   .     S
Cu873  O895    1.953   .     S
Cu873  N892    2.039   .     S
Cu873  O901    1.952   .     S
Cu873  O897    1.950   .     S
I890   C535    2.155   1_565 S
N892   H935    1.029   .     S
N892   N946    1.303   .     S
C902   O947    1.291   .     A
C902   O948    1.301   .     A
C902   C904    1.427   .     S
C903   C905    1.487   .     S
C903   C918    1.413   .     A
C903   C911    1.398   .     A
C904   C588    1.340   1_565 S
C904   H622    1.085   1_565 S
C905   O950    1.298   .     A
C905   O949    1.323   .     A
C906   C907    1.429   .     S
C907   O951    1.292   .     A
C907   O952    1.300   .     A
C908   O953    1.300   .     A
C908   O954    1.314   .     A
C908   C910    1.471   .     S
C909   C924    1.386   .     A
C909   H831    1.082   1_655 S
C910   C923    1.421   .     A
C910   C924    1.399   .     A
C911   C912    1.400   .     A
C911   I944    2.119   .     S
C912   H939    1.082   .     S
C912   C914    1.403   .     A
C913   C918    1.406   .     A
C913   C914    1.416   .     A
C913   C442    1.425   1_556 S
C914   H461    1.079   1_556 S
C915   H928    1.097   .     S
C915   H942    1.106   .     S
C915   H835    1.108   1_655 S
C915   N840    1.441   1_655 S
C916   H929    1.109   .     S
C916   H930    1.109   .     S
C916   H931    1.109   .     S
C916   C923    1.516   .     S
C917   C922    1.506   .     S
C917   H933    1.109   .     S
C917   H934    1.105   .     S
C917   H932    1.106   .     S
C918   C922    1.411   .     A
C919   C923    1.411   .     A
C920   C921    1.391   .     A
C920   C442    1.421   1_556 S
C920   C432    1.396   1_556 S
C921   C922    1.388   .     A
C921   H936    1.081   .     S
C924   H927    1.081   .     S
Cu925  O953    1.950   .     S
Cu925  Cu926   2.713   .     S
Cu925  O947    1.959   .     S
Cu925  N946    2.039   .     S
Cu925  O951    1.953   .     S
Cu925  O949    1.952   .     S
Cu926  O952    1.959   .     S
Cu926  O948    1.953   .     S
Cu926  N945    2.039   .     S
Cu926  O954    1.952   .     S
Cu926  O950    1.950   .     S
I943   C588    2.155   1_565 S
N945   H829    1.029   1_655 S
N945   N840    1.303   1_655 S
