data_str_m2_o1_o16_pcu_sym.193
_audit_creation_date              2020-01-03
_audit_creation_method            'Materials Studio'
_symmetry_space_group_name_H-M    'P1'
_symmetry_Int_Tables_number       1
_symmetry_cell_setting            triclinic
loop_
_symmetry_equiv_pos_as_xyz
  x,y,z
_cell_length_a                    28.7134
_cell_length_b                    32.5017
_cell_length_c                    26.9687
_cell_angle_alpha                 91.7632
_cell_angle_beta                  72.1028
_cell_angle_gamma                 89.9290
loop_
_atom_site_label
_atom_site_type_symbol
_atom_site_fract_x
_atom_site_fract_y
_atom_site_fract_z
_atom_site_U_iso_or_equiv
_atom_site_adp_type
_atom_site_occupancy
O1     O     0.12708   0.22678   0.25001   0.00000  Uiso   1.00
O2     O     0.20627   0.22679   0.25001   0.00000  Uiso   1.00
C3     C     0.16628   0.24593   0.25133   0.00000  Uiso   1.00
O4     O     0.10775   0.16665   0.32549   0.00000  Uiso   1.00
O5     O     0.18694   0.16666   0.32549   0.00000  Uiso   1.00
C6     C     0.14039   0.16475   0.34999   0.00000  Uiso   1.00
Cu7    Cu    0.11978   0.16666   0.25000   0.00000  Uiso   1.00
Cu8    Cu    0.21355   0.16667   0.25000   0.00000  Uiso   1.00
O9     O     0.12706   0.10654   0.25000   0.00000  Uiso   1.00
O10    O     0.20625   0.10655   0.25000   0.00000  Uiso   1.00
O11    O     0.14640   0.16667   0.17451   0.00000  Uiso   1.00
O12    O     0.22559   0.16668   0.17451   0.00000  Uiso   1.00
C13    C     0.16603   0.08746   0.25222   0.00000  Uiso   1.00
C14    C     0.19297   0.16778   0.14994   0.00000  Uiso   1.00
C15    C     0.26671   0.14634   0.01015   0.00000  Uiso   1.00
H16    H     0.28489   0.15609   0.08024   0.00000  Uiso   1.00
H17    H     0.30386   0.13694   0.48894   0.00000  Uiso   1.00
C18    C     0.20813   0.16667   0.09259   0.00000  Uiso   1.00
C19    C     0.07691   0.17759   0.43488   0.00000  Uiso   1.00
C20    C     0.06313   0.18434   0.48847   0.00000  Uiso   1.00
C21    C     0.09685   0.17903   0.01538   0.00000  Uiso   1.00
C22    C     0.14524   0.16495   0.48925   0.00000  Uiso   1.00
C23    C     0.15748   0.15402   0.43542   0.00000  Uiso   1.00
C24    C     0.18193   0.16149   0.01457   0.00000  Uiso   1.00
C25    C     0.22966   0.14664   0.48598   0.00000  Uiso   1.00
C26    C     0.23897   0.13162   0.43443   0.00000  Uiso   1.00
C27    C     0.20236   0.13353   0.41086   0.00000  Uiso   1.00
C28    C     0.17267   0.17225   0.06764   0.00000  Uiso   1.00
C29    C     0.25599   0.15680   0.06280   0.00000  Uiso   1.00
C30    C     0.12440   0.16378   0.40749   0.00000  Uiso   1.00
H31    H     0.13773   0.18423   0.09113   0.00000  Uiso   1.00
H32    H     0.05071   0.18457   0.41467   0.00000  Uiso   1.00
H33    H     0.08345   0.18615   0.05657   0.00000  Uiso   1.00
H34    H     0.02650   0.19537   0.00913   0.00000  Uiso   1.00
H35    H     0.20950   0.11828   0.37303   0.00000  Uiso   1.00
C36    C     0.20644   0.31206   0.25828   0.00000  Uiso   1.00
H37    H     0.23906   0.29605   0.25978   0.00000  Uiso   1.00
C38    C     0.20593   0.02135   0.25978   0.00000  Uiso   1.00
H39    H     0.23766   0.03723   0.26370   0.00000  Uiso   1.00
C40    C     0.16481   0.04287   0.25632   0.00000  Uiso   1.00
C41    C     0.12243   0.02137   0.25682   0.00000  Uiso   1.00
H42    H     0.08900   0.03726   0.25832   0.00000  Uiso   1.00
C43    C     0.12279   0.31211   0.25536   0.00000  Uiso   1.00
H44    H     0.08994   0.29615   0.25449   0.00000  Uiso   1.00
C45    C     0.16529   0.29059   0.25459   0.00000  Uiso   1.00
C46    C     0.29898   0.19227   0.28326   0.00000  Uiso   1.00
H47    H     0.27275   0.21286   0.30998   0.00000  Uiso   1.00
C48    C     0.01511   0.19221   0.28331   0.00000  Uiso   1.00
H49    H     0.02590   0.21272   0.31008   0.00000  Uiso   1.00
N50    N     0.04931   0.16666   0.24999   0.00000  Uiso   1.00
C51    C     0.03440   0.14088   0.21670   0.00000  Uiso   1.00
C52    C     0.31824   0.14081   0.21684   0.00000  Uiso   1.00
N53    N     0.28402   0.16669   0.25000   0.00000  Uiso   1.00
N54    N     0.06837   0.11310   0.18150   0.00000  Uiso   1.00
O55    O     0.08655   0.12296   0.13307   0.00000  Uiso   1.00
O56    O     0.06642   0.07431   0.19206   0.00000  Uiso   1.00
N57    N     0.30482   0.11312   0.18154   0.00000  Uiso   1.00
O58    O     0.29498   0.07536   0.19515   0.00000  Uiso   1.00
O59    O     0.32154   0.11998   0.13209   0.00000  Uiso   1.00
C60    C     0.28573   0.11369   0.40451   0.00000  Uiso   1.00
N61    N     0.32313   0.09946   0.38049   0.00000  Uiso   1.00
O62    O     0.46042   0.22678   0.25001   0.00000  Uiso   1.00
O63    O     0.53961   0.22679   0.25001   0.00000  Uiso   1.00
C64    C     0.49961   0.24593   0.25133   0.00000  Uiso   1.00
O65    O     0.44108   0.16665   0.32549   0.00000  Uiso   1.00
O66    O     0.52027   0.16666   0.32549   0.00000  Uiso   1.00
C67    C     0.47372   0.16475   0.34999   0.00000  Uiso   1.00
Cu68   Cu    0.45311   0.16666   0.25000   0.00000  Uiso   1.00
Cu69   Cu    0.54689   0.16667   0.25000   0.00000  Uiso   1.00
O70    O     0.46039   0.10654   0.25000   0.00000  Uiso   1.00
O71    O     0.53958   0.10655   0.25000   0.00000  Uiso   1.00
O72    O     0.47973   0.16667   0.17451   0.00000  Uiso   1.00
O73    O     0.55892   0.16668   0.17451   0.00000  Uiso   1.00
C74    C     0.49936   0.08746   0.25222   0.00000  Uiso   1.00
C75    C     0.52631   0.16778   0.14994   0.00000  Uiso   1.00
C76    C     0.60004   0.14634   0.01015   0.00000  Uiso   1.00
H77    H     0.61822   0.15609   0.08024   0.00000  Uiso   1.00
H78    H     0.63719   0.13694   0.48894   0.00000  Uiso   1.00
C79    C     0.54146   0.16667   0.09259   0.00000  Uiso   1.00
C80    C     0.41024   0.17759   0.43488   0.00000  Uiso   1.00
C81    C     0.39646   0.18434   0.48847   0.00000  Uiso   1.00
C82    C     0.43018   0.17903   0.01538   0.00000  Uiso   1.00
C83    C     0.47858   0.16495   0.48925   0.00000  Uiso   1.00
C84    C     0.49082   0.15402   0.43542   0.00000  Uiso   1.00
C85    C     0.51526   0.16149   0.01457   0.00000  Uiso   1.00
C86    C     0.56300   0.14664   0.48598   0.00000  Uiso   1.00
C87    C     0.57230   0.13162   0.43443   0.00000  Uiso   1.00
C88    C     0.53569   0.13353   0.41086   0.00000  Uiso   1.00
C89    C     0.50601   0.17225   0.06764   0.00000  Uiso   1.00
C90    C     0.58933   0.15680   0.06280   0.00000  Uiso   1.00
C91    C     0.45774   0.16378   0.40749   0.00000  Uiso   1.00
H92    H     0.47106   0.18423   0.09113   0.00000  Uiso   1.00
H93    H     0.38404   0.18457   0.41467   0.00000  Uiso   1.00
H94    H     0.41679   0.18615   0.05657   0.00000  Uiso   1.00
H95    H     0.35983   0.19537   0.00913   0.00000  Uiso   1.00
H96    H     0.54284   0.11828   0.37303   0.00000  Uiso   1.00
C97    C     0.53977   0.31206   0.25828   0.00000  Uiso   1.00
H98    H     0.57240   0.29605   0.25978   0.00000  Uiso   1.00
C99    C     0.53926   0.02135   0.25978   0.00000  Uiso   1.00
H100   H     0.57100   0.03723   0.26370   0.00000  Uiso   1.00
C101   C     0.49814   0.04287   0.25632   0.00000  Uiso   1.00
C102   C     0.45576   0.02137   0.25682   0.00000  Uiso   1.00
H103   H     0.42233   0.03726   0.25832   0.00000  Uiso   1.00
C104   C     0.45612   0.31211   0.25536   0.00000  Uiso   1.00
H105   H     0.42327   0.29615   0.25449   0.00000  Uiso   1.00
C106   C     0.49863   0.29059   0.25459   0.00000  Uiso   1.00
C107   C     0.63232   0.19227   0.28326   0.00000  Uiso   1.00
H108   H     0.60608   0.21286   0.30998   0.00000  Uiso   1.00
C109   C     0.34844   0.19221   0.28331   0.00000  Uiso   1.00
H110   H     0.35924   0.21272   0.31008   0.00000  Uiso   1.00
N111   N     0.38265   0.16666   0.24999   0.00000  Uiso   1.00
C112   C     0.36773   0.14088   0.21670   0.00000  Uiso   1.00
C113   C     0.65157   0.14081   0.21684   0.00000  Uiso   1.00
N114   N     0.61735   0.16669   0.25000   0.00000  Uiso   1.00
N115   N     0.40170   0.11310   0.18150   0.00000  Uiso   1.00
O116   O     0.41988   0.12296   0.13307   0.00000  Uiso   1.00
O117   O     0.39976   0.07431   0.19206   0.00000  Uiso   1.00
N118   N     0.63815   0.11312   0.18154   0.00000  Uiso   1.00
O119   O     0.62831   0.07536   0.19515   0.00000  Uiso   1.00
O120   O     0.65488   0.11998   0.13209   0.00000  Uiso   1.00
C121   C     0.61907   0.11369   0.40451   0.00000  Uiso   1.00
N122   N     0.65646   0.09946   0.38049   0.00000  Uiso   1.00
O123   O     0.79375   0.22678   0.25001   0.00000  Uiso   1.00
O124   O     0.87294   0.22679   0.25001   0.00000  Uiso   1.00
C125   C     0.83294   0.24593   0.25133   0.00000  Uiso   1.00
O126   O     0.77441   0.16665   0.32549   0.00000  Uiso   1.00
O127   O     0.85360   0.16666   0.32549   0.00000  Uiso   1.00
C128   C     0.80706   0.16475   0.34999   0.00000  Uiso   1.00
Cu129  Cu    0.78645   0.16666   0.25000   0.00000  Uiso   1.00
Cu130  Cu    0.88022   0.16667   0.25000   0.00000  Uiso   1.00
O131   O     0.79373   0.10654   0.25000   0.00000  Uiso   1.00
O132   O     0.87292   0.10655   0.25000   0.00000  Uiso   1.00
O133   O     0.81306   0.16667   0.17451   0.00000  Uiso   1.00
O134   O     0.89225   0.16668   0.17451   0.00000  Uiso   1.00
C135   C     0.83269   0.08746   0.25222   0.00000  Uiso   1.00
C136   C     0.85964   0.16778   0.14994   0.00000  Uiso   1.00
C137   C     0.93338   0.14634   0.01015   0.00000  Uiso   1.00
H138   H     0.95156   0.15609   0.08024   0.00000  Uiso   1.00
H139   H     0.97052   0.13694   0.48894   0.00000  Uiso   1.00
C140   C     0.87480   0.16667   0.09259   0.00000  Uiso   1.00
C141   C     0.74357   0.17759   0.43488   0.00000  Uiso   1.00
C142   C     0.72980   0.18434   0.48847   0.00000  Uiso   1.00
C143   C     0.76351   0.17903   0.01538   0.00000  Uiso   1.00
C144   C     0.81191   0.16495   0.48925   0.00000  Uiso   1.00
C145   C     0.82415   0.15402   0.43542   0.00000  Uiso   1.00
C146   C     0.84860   0.16149   0.01457   0.00000  Uiso   1.00
C147   C     0.89633   0.14664   0.48598   0.00000  Uiso   1.00
C148   C     0.90564   0.13162   0.43443   0.00000  Uiso   1.00
C149   C     0.86903   0.13353   0.41086   0.00000  Uiso   1.00
C150   C     0.83934   0.17225   0.06764   0.00000  Uiso   1.00
C151   C     0.92266   0.15680   0.06280   0.00000  Uiso   1.00
C152   C     0.79107   0.16378   0.40749   0.00000  Uiso   1.00
H153   H     0.80440   0.18423   0.09113   0.00000  Uiso   1.00
H154   H     0.71738   0.18457   0.41467   0.00000  Uiso   1.00
H155   H     0.75012   0.18615   0.05657   0.00000  Uiso   1.00
H156   H     0.69316   0.19537   0.00913   0.00000  Uiso   1.00
H157   H     0.87617   0.11828   0.37303   0.00000  Uiso   1.00
C158   C     0.87310   0.31206   0.25828   0.00000  Uiso   1.00
H159   H     0.90573   0.29605   0.25978   0.00000  Uiso   1.00
C160   C     0.87259   0.02135   0.25978   0.00000  Uiso   1.00
H161   H     0.90433   0.03723   0.26370   0.00000  Uiso   1.00
C162   C     0.83147   0.04287   0.25632   0.00000  Uiso   1.00
C163   C     0.78910   0.02137   0.25682   0.00000  Uiso   1.00
H164   H     0.75566   0.03726   0.25832   0.00000  Uiso   1.00
C165   C     0.78946   0.31211   0.25536   0.00000  Uiso   1.00
H166   H     0.75660   0.29615   0.25449   0.00000  Uiso   1.00
C167   C     0.83196   0.29059   0.25459   0.00000  Uiso   1.00
C168   C     0.96565   0.19227   0.28326   0.00000  Uiso   1.00
H169   H     0.93941   0.21286   0.30998   0.00000  Uiso   1.00
C170   C     0.68177   0.19221   0.28331   0.00000  Uiso   1.00
H171   H     0.69257   0.21272   0.31008   0.00000  Uiso   1.00
N172   N     0.71598   0.16666   0.24999   0.00000  Uiso   1.00
C173   C     0.70106   0.14088   0.21670   0.00000  Uiso   1.00
C174   C     0.98490   0.14081   0.21684   0.00000  Uiso   1.00
N175   N     0.95069   0.16669   0.25000   0.00000  Uiso   1.00
N176   N     0.73503   0.11310   0.18150   0.00000  Uiso   1.00
O177   O     0.75322   0.12296   0.13307   0.00000  Uiso   1.00
O178   O     0.73309   0.07431   0.19206   0.00000  Uiso   1.00
N179   N     0.97148   0.11312   0.18154   0.00000  Uiso   1.00
O180   O     0.96164   0.07536   0.19515   0.00000  Uiso   1.00
O181   O     0.98821   0.11998   0.13209   0.00000  Uiso   1.00
C182   C     0.95240   0.11369   0.40451   0.00000  Uiso   1.00
N183   N     0.98980   0.09946   0.38049   0.00000  Uiso   1.00
O184   O     0.12708   0.56011   0.25001   0.00000  Uiso   1.00
O185   O     0.20627   0.56012   0.25001   0.00000  Uiso   1.00
C186   C     0.16628   0.57926   0.25133   0.00000  Uiso   1.00
O187   O     0.10775   0.49998   0.32549   0.00000  Uiso   1.00
O188   O     0.18694   0.49999   0.32549   0.00000  Uiso   1.00
C189   C     0.14039   0.49808   0.34999   0.00000  Uiso   1.00
Cu190  Cu    0.11978   0.49999   0.25000   0.00000  Uiso   1.00
Cu191  Cu    0.21355   0.50001   0.25000   0.00000  Uiso   1.00
O192   O     0.12706   0.43988   0.25000   0.00000  Uiso   1.00
O193   O     0.20625   0.43989   0.25000   0.00000  Uiso   1.00
O194   O     0.14640   0.50001   0.17451   0.00000  Uiso   1.00
O195   O     0.22559   0.50002   0.17451   0.00000  Uiso   1.00
C196   C     0.16603   0.42079   0.25222   0.00000  Uiso   1.00
C197   C     0.19297   0.50112   0.14994   0.00000  Uiso   1.00
C198   C     0.26671   0.47968   0.01015   0.00000  Uiso   1.00
H199   H     0.28489   0.48943   0.08024   0.00000  Uiso   1.00
H200   H     0.30386   0.47027   0.48894   0.00000  Uiso   1.00
C201   C     0.20813   0.50000   0.09259   0.00000  Uiso   1.00
C202   C     0.07691   0.51092   0.43488   0.00000  Uiso   1.00
C203   C     0.06313   0.51767   0.48847   0.00000  Uiso   1.00
C204   C     0.09685   0.51237   0.01538   0.00000  Uiso   1.00
C205   C     0.14524   0.49828   0.48925   0.00000  Uiso   1.00
C206   C     0.15748   0.48735   0.43542   0.00000  Uiso   1.00
C207   C     0.18193   0.49482   0.01457   0.00000  Uiso   1.00
C208   C     0.22966   0.47997   0.48598   0.00000  Uiso   1.00
C209   C     0.23897   0.46495   0.43443   0.00000  Uiso   1.00
C210   C     0.20236   0.46687   0.41086   0.00000  Uiso   1.00
C211   C     0.17267   0.50558   0.06764   0.00000  Uiso   1.00
C212   C     0.25599   0.49013   0.06280   0.00000  Uiso   1.00
C213   C     0.12440   0.49711   0.40749   0.00000  Uiso   1.00
H214   H     0.13773   0.51757   0.09113   0.00000  Uiso   1.00
H215   H     0.05071   0.51790   0.41467   0.00000  Uiso   1.00
H216   H     0.08345   0.51948   0.05657   0.00000  Uiso   1.00
H217   H     0.02650   0.52870   0.00913   0.00000  Uiso   1.00
H218   H     0.20950   0.45162   0.37303   0.00000  Uiso   1.00
C219   C     0.20644   0.64540   0.25828   0.00000  Uiso   1.00
H220   H     0.23906   0.62939   0.25978   0.00000  Uiso   1.00
C221   C     0.20593   0.35468   0.25978   0.00000  Uiso   1.00
H222   H     0.23766   0.37056   0.26370   0.00000  Uiso   1.00
C223   C     0.16481   0.37621   0.25632   0.00000  Uiso   1.00
C224   C     0.12243   0.35470   0.25682   0.00000  Uiso   1.00
H225   H     0.08900   0.37059   0.25832   0.00000  Uiso   1.00
C226   C     0.12279   0.64544   0.25536   0.00000  Uiso   1.00
H227   H     0.08994   0.62948   0.25449   0.00000  Uiso   1.00
C228   C     0.16529   0.62392   0.25459   0.00000  Uiso   1.00
C229   C     0.29898   0.52561   0.28326   0.00000  Uiso   1.00
H230   H     0.27275   0.54620   0.30998   0.00000  Uiso   1.00
C231   C     0.01511   0.52554   0.28331   0.00000  Uiso   1.00
H232   H     0.02590   0.54605   0.31008   0.00000  Uiso   1.00
N233   N     0.04931   0.49999   0.24999   0.00000  Uiso   1.00
C234   C     0.03440   0.47422   0.21670   0.00000  Uiso   1.00
C235   C     0.31824   0.47414   0.21684   0.00000  Uiso   1.00
N236   N     0.28402   0.50002   0.25000   0.00000  Uiso   1.00
N237   N     0.06837   0.44643   0.18150   0.00000  Uiso   1.00
O238   O     0.08655   0.45629   0.13307   0.00000  Uiso   1.00
O239   O     0.06642   0.40764   0.19206   0.00000  Uiso   1.00
N240   N     0.30482   0.44646   0.18154   0.00000  Uiso   1.00
O241   O     0.29498   0.40870   0.19515   0.00000  Uiso   1.00
O242   O     0.32154   0.45331   0.13209   0.00000  Uiso   1.00
C243   C     0.28573   0.44703   0.40451   0.00000  Uiso   1.00
N244   N     0.32313   0.43279   0.38049   0.00000  Uiso   1.00
O245   O     0.46042   0.56011   0.25001   0.00000  Uiso   1.00
O246   O     0.53961   0.56012   0.25001   0.00000  Uiso   1.00
C247   C     0.49961   0.57926   0.25133   0.00000  Uiso   1.00
O248   O     0.44108   0.49998   0.32549   0.00000  Uiso   1.00
O249   O     0.52027   0.49999   0.32549   0.00000  Uiso   1.00
C250   C     0.47372   0.49808   0.34999   0.00000  Uiso   1.00
Cu251  Cu    0.45311   0.49999   0.25000   0.00000  Uiso   1.00
Cu252  Cu    0.54689   0.50001   0.25000   0.00000  Uiso   1.00
O253   O     0.46039   0.43988   0.25000   0.00000  Uiso   1.00
O254   O     0.53958   0.43989   0.25000   0.00000  Uiso   1.00
O255   O     0.47973   0.50001   0.17451   0.00000  Uiso   1.00
O256   O     0.55892   0.50002   0.17451   0.00000  Uiso   1.00
C257   C     0.49936   0.42079   0.25222   0.00000  Uiso   1.00
C258   C     0.52631   0.50112   0.14994   0.00000  Uiso   1.00
C259   C     0.60004   0.47968   0.01015   0.00000  Uiso   1.00
H260   H     0.61822   0.48943   0.08024   0.00000  Uiso   1.00
H261   H     0.63719   0.47027   0.48894   0.00000  Uiso   1.00
C262   C     0.54146   0.50000   0.09259   0.00000  Uiso   1.00
C263   C     0.41024   0.51092   0.43488   0.00000  Uiso   1.00
C264   C     0.39646   0.51767   0.48847   0.00000  Uiso   1.00
C265   C     0.43018   0.51237   0.01538   0.00000  Uiso   1.00
C266   C     0.47858   0.49828   0.48925   0.00000  Uiso   1.00
C267   C     0.49082   0.48735   0.43542   0.00000  Uiso   1.00
C268   C     0.51526   0.49482   0.01457   0.00000  Uiso   1.00
C269   C     0.56300   0.47997   0.48598   0.00000  Uiso   1.00
C270   C     0.57230   0.46495   0.43443   0.00000  Uiso   1.00
C271   C     0.53569   0.46687   0.41086   0.00000  Uiso   1.00
C272   C     0.50601   0.50558   0.06764   0.00000  Uiso   1.00
C273   C     0.58933   0.49013   0.06280   0.00000  Uiso   1.00
C274   C     0.45774   0.49711   0.40749   0.00000  Uiso   1.00
H275   H     0.47106   0.51757   0.09113   0.00000  Uiso   1.00
H276   H     0.38404   0.51790   0.41467   0.00000  Uiso   1.00
H277   H     0.41679   0.51948   0.05657   0.00000  Uiso   1.00
H278   H     0.35983   0.52870   0.00913   0.00000  Uiso   1.00
H279   H     0.54284   0.45162   0.37303   0.00000  Uiso   1.00
C280   C     0.53977   0.64540   0.25828   0.00000  Uiso   1.00
H281   H     0.57240   0.62939   0.25978   0.00000  Uiso   1.00
C282   C     0.53926   0.35468   0.25978   0.00000  Uiso   1.00
H283   H     0.57100   0.37056   0.26370   0.00000  Uiso   1.00
C284   C     0.49814   0.37621   0.25632   0.00000  Uiso   1.00
C285   C     0.45576   0.35470   0.25682   0.00000  Uiso   1.00
H286   H     0.42233   0.37059   0.25832   0.00000  Uiso   1.00
C287   C     0.45612   0.64544   0.25536   0.00000  Uiso   1.00
H288   H     0.42327   0.62948   0.25449   0.00000  Uiso   1.00
C289   C     0.49863   0.62392   0.25459   0.00000  Uiso   1.00
C290   C     0.63232   0.52561   0.28326   0.00000  Uiso   1.00
H291   H     0.60608   0.54620   0.30998   0.00000  Uiso   1.00
C292   C     0.34844   0.52554   0.28331   0.00000  Uiso   1.00
H293   H     0.35924   0.54605   0.31008   0.00000  Uiso   1.00
N294   N     0.38265   0.49999   0.24999   0.00000  Uiso   1.00
C295   C     0.36773   0.47422   0.21670   0.00000  Uiso   1.00
C296   C     0.65157   0.47414   0.21684   0.00000  Uiso   1.00
N297   N     0.61735   0.50002   0.25000   0.00000  Uiso   1.00
N298   N     0.40170   0.44643   0.18150   0.00000  Uiso   1.00
O299   O     0.41988   0.45629   0.13307   0.00000  Uiso   1.00
O300   O     0.39976   0.40764   0.19206   0.00000  Uiso   1.00
N301   N     0.63815   0.44646   0.18154   0.00000  Uiso   1.00
O302   O     0.62831   0.40870   0.19515   0.00000  Uiso   1.00
O303   O     0.65488   0.45331   0.13209   0.00000  Uiso   1.00
C304   C     0.61907   0.44703   0.40451   0.00000  Uiso   1.00
N305   N     0.65646   0.43279   0.38049   0.00000  Uiso   1.00
O306   O     0.79375   0.56011   0.25001   0.00000  Uiso   1.00
O307   O     0.87294   0.56012   0.25001   0.00000  Uiso   1.00
C308   C     0.83294   0.57926   0.25133   0.00000  Uiso   1.00
O309   O     0.77441   0.49998   0.32549   0.00000  Uiso   1.00
O310   O     0.85360   0.49999   0.32549   0.00000  Uiso   1.00
C311   C     0.80706   0.49808   0.34999   0.00000  Uiso   1.00
Cu312  Cu    0.78645   0.49999   0.25000   0.00000  Uiso   1.00
Cu313  Cu    0.88022   0.50001   0.25000   0.00000  Uiso   1.00
O314   O     0.79373   0.43988   0.25000   0.00000  Uiso   1.00
O315   O     0.87292   0.43989   0.25000   0.00000  Uiso   1.00
O316   O     0.81306   0.50001   0.17451   0.00000  Uiso   1.00
O317   O     0.89225   0.50002   0.17451   0.00000  Uiso   1.00
C318   C     0.83269   0.42079   0.25222   0.00000  Uiso   1.00
C319   C     0.85964   0.50112   0.14994   0.00000  Uiso   1.00
C320   C     0.93338   0.47968   0.01015   0.00000  Uiso   1.00
H321   H     0.95156   0.48943   0.08024   0.00000  Uiso   1.00
H322   H     0.97052   0.47027   0.48894   0.00000  Uiso   1.00
C323   C     0.87480   0.50000   0.09259   0.00000  Uiso   1.00
C324   C     0.74357   0.51092   0.43488   0.00000  Uiso   1.00
C325   C     0.72980   0.51767   0.48847   0.00000  Uiso   1.00
C326   C     0.76351   0.51237   0.01538   0.00000  Uiso   1.00
C327   C     0.81191   0.49828   0.48925   0.00000  Uiso   1.00
C328   C     0.82415   0.48735   0.43542   0.00000  Uiso   1.00
C329   C     0.84860   0.49482   0.01457   0.00000  Uiso   1.00
C330   C     0.89633   0.47997   0.48598   0.00000  Uiso   1.00
C331   C     0.90564   0.46495   0.43443   0.00000  Uiso   1.00
C332   C     0.86903   0.46687   0.41086   0.00000  Uiso   1.00
C333   C     0.83934   0.50558   0.06764   0.00000  Uiso   1.00
C334   C     0.92266   0.49013   0.06280   0.00000  Uiso   1.00
C335   C     0.79107   0.49711   0.40749   0.00000  Uiso   1.00
H336   H     0.80440   0.51757   0.09113   0.00000  Uiso   1.00
H337   H     0.71738   0.51790   0.41467   0.00000  Uiso   1.00
H338   H     0.75012   0.51948   0.05657   0.00000  Uiso   1.00
H339   H     0.69316   0.52870   0.00913   0.00000  Uiso   1.00
H340   H     0.87617   0.45162   0.37303   0.00000  Uiso   1.00
C341   C     0.87310   0.64540   0.25828   0.00000  Uiso   1.00
H342   H     0.90573   0.62939   0.25978   0.00000  Uiso   1.00
C343   C     0.87259   0.35468   0.25978   0.00000  Uiso   1.00
H344   H     0.90433   0.37056   0.26370   0.00000  Uiso   1.00
C345   C     0.83147   0.37621   0.25632   0.00000  Uiso   1.00
C346   C     0.78910   0.35470   0.25682   0.00000  Uiso   1.00
H347   H     0.75566   0.37059   0.25832   0.00000  Uiso   1.00
C348   C     0.78946   0.64544   0.25536   0.00000  Uiso   1.00
H349   H     0.75660   0.62948   0.25449   0.00000  Uiso   1.00
C350   C     0.83196   0.62392   0.25459   0.00000  Uiso   1.00
C351   C     0.96565   0.52561   0.28326   0.00000  Uiso   1.00
H352   H     0.93941   0.54620   0.30998   0.00000  Uiso   1.00
C353   C     0.68177   0.52554   0.28331   0.00000  Uiso   1.00
H354   H     0.69257   0.54605   0.31008   0.00000  Uiso   1.00
N355   N     0.71598   0.49999   0.24999   0.00000  Uiso   1.00
C356   C     0.70106   0.47422   0.21670   0.00000  Uiso   1.00
C357   C     0.98490   0.47414   0.21684   0.00000  Uiso   1.00
N358   N     0.95069   0.50002   0.25000   0.00000  Uiso   1.00
N359   N     0.73503   0.44643   0.18150   0.00000  Uiso   1.00
O360   O     0.75322   0.45629   0.13307   0.00000  Uiso   1.00
O361   O     0.73309   0.40764   0.19206   0.00000  Uiso   1.00
N362   N     0.97148   0.44646   0.18154   0.00000  Uiso   1.00
O363   O     0.96164   0.40870   0.19515   0.00000  Uiso   1.00
O364   O     0.98821   0.45331   0.13209   0.00000  Uiso   1.00
C365   C     0.95240   0.44703   0.40451   0.00000  Uiso   1.00
N366   N     0.98980   0.43279   0.38049   0.00000  Uiso   1.00
O367   O     0.12708   0.89345   0.25001   0.00000  Uiso   1.00
O368   O     0.20627   0.89346   0.25001   0.00000  Uiso   1.00
C369   C     0.16628   0.91260   0.25133   0.00000  Uiso   1.00
O370   O     0.10775   0.83332   0.32549   0.00000  Uiso   1.00
O371   O     0.18694   0.83333   0.32549   0.00000  Uiso   1.00
C372   C     0.14039   0.83141   0.34999   0.00000  Uiso   1.00
Cu373  Cu    0.11978   0.83333   0.25000   0.00000  Uiso   1.00
Cu374  Cu    0.21355   0.83334   0.25000   0.00000  Uiso   1.00
O375   O     0.12706   0.77321   0.25000   0.00000  Uiso   1.00
O376   O     0.20625   0.77322   0.25000   0.00000  Uiso   1.00
O377   O     0.14640   0.83334   0.17451   0.00000  Uiso   1.00
O378   O     0.22559   0.83335   0.17451   0.00000  Uiso   1.00
C379   C     0.16603   0.75413   0.25222   0.00000  Uiso   1.00
C380   C     0.19297   0.83445   0.14994   0.00000  Uiso   1.00
C381   C     0.26671   0.81301   0.01015   0.00000  Uiso   1.00
H382   H     0.28489   0.82276   0.08024   0.00000  Uiso   1.00
H383   H     0.30386   0.80361   0.48894   0.00000  Uiso   1.00
C384   C     0.20813   0.83333   0.09259   0.00000  Uiso   1.00
C385   C     0.07691   0.84425   0.43488   0.00000  Uiso   1.00
C386   C     0.06313   0.85101   0.48847   0.00000  Uiso   1.00
C387   C     0.09685   0.84570   0.01538   0.00000  Uiso   1.00
C388   C     0.14524   0.83161   0.48925   0.00000  Uiso   1.00
C389   C     0.15748   0.82068   0.43542   0.00000  Uiso   1.00
C390   C     0.18193   0.82815   0.01457   0.00000  Uiso   1.00
C391   C     0.22966   0.81331   0.48598   0.00000  Uiso   1.00
C392   C     0.23897   0.79828   0.43443   0.00000  Uiso   1.00
C393   C     0.20236   0.80020   0.41086   0.00000  Uiso   1.00
C394   C     0.17267   0.83891   0.06764   0.00000  Uiso   1.00
C395   C     0.25599   0.82346   0.06280   0.00000  Uiso   1.00
C396   C     0.12440   0.83045   0.40749   0.00000  Uiso   1.00
H397   H     0.13773   0.85090   0.09113   0.00000  Uiso   1.00
H398   H     0.05071   0.85123   0.41467   0.00000  Uiso   1.00
H399   H     0.08345   0.85282   0.05657   0.00000  Uiso   1.00
H400   H     0.02650   0.86203   0.00913   0.00000  Uiso   1.00
H401   H     0.20950   0.78495   0.37303   0.00000  Uiso   1.00
C402   C     0.20644   0.97873   0.25828   0.00000  Uiso   1.00
H403   H     0.23906   0.96272   0.25978   0.00000  Uiso   1.00
C404   C     0.20593   0.68801   0.25978   0.00000  Uiso   1.00
H405   H     0.23766   0.70389   0.26370   0.00000  Uiso   1.00
C406   C     0.16481   0.70954   0.25632   0.00000  Uiso   1.00
C407   C     0.12243   0.68803   0.25682   0.00000  Uiso   1.00
H408   H     0.08900   0.70392   0.25832   0.00000  Uiso   1.00
C409   C     0.12279   0.97877   0.25536   0.00000  Uiso   1.00
H410   H     0.08994   0.96282   0.25449   0.00000  Uiso   1.00
C411   C     0.16529   0.95726   0.25459   0.00000  Uiso   1.00
C412   C     0.29898   0.85894   0.28326   0.00000  Uiso   1.00
H413   H     0.27275   0.87953   0.30998   0.00000  Uiso   1.00
C414   C     0.01511   0.85887   0.28331   0.00000  Uiso   1.00
H415   H     0.02590   0.87938   0.31008   0.00000  Uiso   1.00
N416   N     0.04931   0.83332   0.24999   0.00000  Uiso   1.00
C417   C     0.03440   0.80755   0.21670   0.00000  Uiso   1.00
C418   C     0.31824   0.80747   0.21684   0.00000  Uiso   1.00
N419   N     0.28402   0.83335   0.25000   0.00000  Uiso   1.00
N420   N     0.06837   0.77977   0.18150   0.00000  Uiso   1.00
O421   O     0.08655   0.78962   0.13307   0.00000  Uiso   1.00
O422   O     0.06642   0.74097   0.19206   0.00000  Uiso   1.00
N423   N     0.30482   0.77979   0.18154   0.00000  Uiso   1.00
O424   O     0.29498   0.74203   0.19515   0.00000  Uiso   1.00
O425   O     0.32154   0.78664   0.13209   0.00000  Uiso   1.00
C426   C     0.28573   0.78036   0.40451   0.00000  Uiso   1.00
N427   N     0.32313   0.76612   0.38049   0.00000  Uiso   1.00
O428   O     0.46042   0.89345   0.25001   0.00000  Uiso   1.00
O429   O     0.53961   0.89346   0.25001   0.00000  Uiso   1.00
C430   C     0.49961   0.91260   0.25133   0.00000  Uiso   1.00
O431   O     0.44108   0.83332   0.32549   0.00000  Uiso   1.00
O432   O     0.52027   0.83333   0.32549   0.00000  Uiso   1.00
C433   C     0.47372   0.83141   0.34999   0.00000  Uiso   1.00
Cu434  Cu    0.45311   0.83333   0.25000   0.00000  Uiso   1.00
Cu435  Cu    0.54689   0.83334   0.25000   0.00000  Uiso   1.00
O436   O     0.46039   0.77321   0.25000   0.00000  Uiso   1.00
O437   O     0.53958   0.77322   0.25000   0.00000  Uiso   1.00
O438   O     0.47973   0.83334   0.17451   0.00000  Uiso   1.00
O439   O     0.55892   0.83335   0.17451   0.00000  Uiso   1.00
C440   C     0.49936   0.75413   0.25222   0.00000  Uiso   1.00
C441   C     0.52631   0.83445   0.14994   0.00000  Uiso   1.00
C442   C     0.60004   0.81301   0.01015   0.00000  Uiso   1.00
H443   H     0.61822   0.82276   0.08024   0.00000  Uiso   1.00
H444   H     0.63719   0.80361   0.48894   0.00000  Uiso   1.00
C445   C     0.54146   0.83333   0.09259   0.00000  Uiso   1.00
C446   C     0.41024   0.84425   0.43488   0.00000  Uiso   1.00
C447   C     0.39646   0.85101   0.48847   0.00000  Uiso   1.00
C448   C     0.43018   0.84570   0.01538   0.00000  Uiso   1.00
C449   C     0.47858   0.83161   0.48925   0.00000  Uiso   1.00
C450   C     0.49082   0.82068   0.43542   0.00000  Uiso   1.00
C451   C     0.51526   0.82815   0.01457   0.00000  Uiso   1.00
C452   C     0.56300   0.81331   0.48598   0.00000  Uiso   1.00
C453   C     0.57230   0.79828   0.43443   0.00000  Uiso   1.00
C454   C     0.53569   0.80020   0.41086   0.00000  Uiso   1.00
C455   C     0.50601   0.83891   0.06764   0.00000  Uiso   1.00
C456   C     0.58933   0.82346   0.06280   0.00000  Uiso   1.00
C457   C     0.45774   0.83045   0.40749   0.00000  Uiso   1.00
H458   H     0.47106   0.85090   0.09113   0.00000  Uiso   1.00
H459   H     0.38404   0.85123   0.41467   0.00000  Uiso   1.00
H460   H     0.41679   0.85282   0.05657   0.00000  Uiso   1.00
H461   H     0.35983   0.86203   0.00913   0.00000  Uiso   1.00
H462   H     0.54284   0.78495   0.37303   0.00000  Uiso   1.00
C463   C     0.53977   0.97873   0.25828   0.00000  Uiso   1.00
H464   H     0.57240   0.96272   0.25978   0.00000  Uiso   1.00
C465   C     0.53926   0.68801   0.25978   0.00000  Uiso   1.00
H466   H     0.57100   0.70389   0.26370   0.00000  Uiso   1.00
C467   C     0.49814   0.70954   0.25632   0.00000  Uiso   1.00
C468   C     0.45576   0.68803   0.25682   0.00000  Uiso   1.00
H469   H     0.42233   0.70392   0.25832   0.00000  Uiso   1.00
C470   C     0.45612   0.97877   0.25536   0.00000  Uiso   1.00
H471   H     0.42327   0.96282   0.25449   0.00000  Uiso   1.00
C472   C     0.49863   0.95726   0.25459   0.00000  Uiso   1.00
C473   C     0.63232   0.85894   0.28326   0.00000  Uiso   1.00
H474   H     0.60608   0.87953   0.30998   0.00000  Uiso   1.00
C475   C     0.34844   0.85887   0.28331   0.00000  Uiso   1.00
H476   H     0.35924   0.87938   0.31008   0.00000  Uiso   1.00
N477   N     0.38265   0.83332   0.24999   0.00000  Uiso   1.00
C478   C     0.36773   0.80755   0.21670   0.00000  Uiso   1.00
C479   C     0.65157   0.80747   0.21684   0.00000  Uiso   1.00
N480   N     0.61735   0.83335   0.25000   0.00000  Uiso   1.00
N481   N     0.40170   0.77977   0.18150   0.00000  Uiso   1.00
O482   O     0.41988   0.78962   0.13307   0.00000  Uiso   1.00
O483   O     0.39976   0.74097   0.19206   0.00000  Uiso   1.00
N484   N     0.63815   0.77979   0.18154   0.00000  Uiso   1.00
O485   O     0.62831   0.74203   0.19515   0.00000  Uiso   1.00
O486   O     0.65488   0.78664   0.13209   0.00000  Uiso   1.00
C487   C     0.61907   0.78036   0.40451   0.00000  Uiso   1.00
N488   N     0.65646   0.76612   0.38049   0.00000  Uiso   1.00
O489   O     0.79375   0.89345   0.25001   0.00000  Uiso   1.00
O490   O     0.87294   0.89346   0.25001   0.00000  Uiso   1.00
C491   C     0.83294   0.91260   0.25133   0.00000  Uiso   1.00
O492   O     0.77441   0.83332   0.32549   0.00000  Uiso   1.00
O493   O     0.85360   0.83333   0.32549   0.00000  Uiso   1.00
C494   C     0.80706   0.83141   0.34999   0.00000  Uiso   1.00
Cu495  Cu    0.78645   0.83333   0.25000   0.00000  Uiso   1.00
Cu496  Cu    0.88022   0.83334   0.25000   0.00000  Uiso   1.00
O497   O     0.79373   0.77321   0.25000   0.00000  Uiso   1.00
O498   O     0.87292   0.77322   0.25000   0.00000  Uiso   1.00
O499   O     0.81306   0.83334   0.17451   0.00000  Uiso   1.00
O500   O     0.89225   0.83335   0.17451   0.00000  Uiso   1.00
C501   C     0.83269   0.75413   0.25222   0.00000  Uiso   1.00
C502   C     0.85964   0.83445   0.14994   0.00000  Uiso   1.00
C503   C     0.93338   0.81301   0.01015   0.00000  Uiso   1.00
H504   H     0.95156   0.82276   0.08024   0.00000  Uiso   1.00
H505   H     0.97052   0.80361   0.48894   0.00000  Uiso   1.00
C506   C     0.87480   0.83333   0.09259   0.00000  Uiso   1.00
C507   C     0.74357   0.84425   0.43488   0.00000  Uiso   1.00
C508   C     0.72980   0.85101   0.48847   0.00000  Uiso   1.00
C509   C     0.76351   0.84570   0.01538   0.00000  Uiso   1.00
C510   C     0.81191   0.83161   0.48925   0.00000  Uiso   1.00
C511   C     0.82415   0.82068   0.43542   0.00000  Uiso   1.00
C512   C     0.84860   0.82815   0.01457   0.00000  Uiso   1.00
C513   C     0.89633   0.81331   0.48598   0.00000  Uiso   1.00
C514   C     0.90564   0.79828   0.43443   0.00000  Uiso   1.00
C515   C     0.86903   0.80020   0.41086   0.00000  Uiso   1.00
C516   C     0.83934   0.83891   0.06764   0.00000  Uiso   1.00
C517   C     0.92266   0.82346   0.06280   0.00000  Uiso   1.00
C518   C     0.79107   0.83045   0.40749   0.00000  Uiso   1.00
H519   H     0.80440   0.85090   0.09113   0.00000  Uiso   1.00
H520   H     0.71738   0.85123   0.41467   0.00000  Uiso   1.00
H521   H     0.75012   0.85282   0.05657   0.00000  Uiso   1.00
H522   H     0.69316   0.86203   0.00913   0.00000  Uiso   1.00
H523   H     0.87617   0.78495   0.37303   0.00000  Uiso   1.00
C524   C     0.87310   0.97873   0.25828   0.00000  Uiso   1.00
H525   H     0.90573   0.96272   0.25978   0.00000  Uiso   1.00
C526   C     0.87259   0.68801   0.25978   0.00000  Uiso   1.00
H527   H     0.90433   0.70389   0.26370   0.00000  Uiso   1.00
C528   C     0.83147   0.70954   0.25632   0.00000  Uiso   1.00
C529   C     0.78910   0.68803   0.25682   0.00000  Uiso   1.00
H530   H     0.75566   0.70392   0.25832   0.00000  Uiso   1.00
C531   C     0.78946   0.97877   0.25536   0.00000  Uiso   1.00
H532   H     0.75660   0.96282   0.25449   0.00000  Uiso   1.00
C533   C     0.83196   0.95726   0.25459   0.00000  Uiso   1.00
C534   C     0.96565   0.85894   0.28326   0.00000  Uiso   1.00
H535   H     0.93941   0.87953   0.30998   0.00000  Uiso   1.00
C536   C     0.68177   0.85887   0.28331   0.00000  Uiso   1.00
H537   H     0.69257   0.87938   0.31008   0.00000  Uiso   1.00
N538   N     0.71598   0.83332   0.24999   0.00000  Uiso   1.00
C539   C     0.70106   0.80755   0.21670   0.00000  Uiso   1.00
C540   C     0.98490   0.80747   0.21684   0.00000  Uiso   1.00
N541   N     0.95069   0.83335   0.25000   0.00000  Uiso   1.00
N542   N     0.73503   0.77977   0.18150   0.00000  Uiso   1.00
O543   O     0.75322   0.78962   0.13307   0.00000  Uiso   1.00
O544   O     0.73309   0.74097   0.19206   0.00000  Uiso   1.00
N545   N     0.97148   0.77979   0.18154   0.00000  Uiso   1.00
O546   O     0.96164   0.74203   0.19515   0.00000  Uiso   1.00
O547   O     0.98821   0.78664   0.13209   0.00000  Uiso   1.00
C548   C     0.95240   0.78036   0.40451   0.00000  Uiso   1.00
N549   N     0.98980   0.76612   0.38049   0.00000  Uiso   1.00
O550   O     0.12708   0.22678   0.75001   0.00000  Uiso   1.00
O551   O     0.20627   0.22679   0.75001   0.00000  Uiso   1.00
C552   C     0.16628   0.24593   0.75133   0.00000  Uiso   1.00
O553   O     0.10775   0.16665   0.82549   0.00000  Uiso   1.00
O554   O     0.18694   0.16666   0.82549   0.00000  Uiso   1.00
C555   C     0.14039   0.16475   0.84999   0.00000  Uiso   1.00
Cu556  Cu    0.11978   0.16666   0.75000   0.00000  Uiso   1.00
Cu557  Cu    0.21355   0.16667   0.75000   0.00000  Uiso   1.00
O558   O     0.12706   0.10654   0.75000   0.00000  Uiso   1.00
O559   O     0.20625   0.10655   0.75000   0.00000  Uiso   1.00
O560   O     0.14640   0.16667   0.67451   0.00000  Uiso   1.00
O561   O     0.22559   0.16668   0.67451   0.00000  Uiso   1.00
C562   C     0.16603   0.08746   0.75222   0.00000  Uiso   1.00
C563   C     0.19297   0.16778   0.64994   0.00000  Uiso   1.00
C564   C     0.26671   0.14634   0.51015   0.00000  Uiso   1.00
H565   H     0.28489   0.15609   0.58024   0.00000  Uiso   1.00
H566   H     0.30386   0.13694   0.98894   0.00000  Uiso   1.00
C567   C     0.20813   0.16667   0.59259   0.00000  Uiso   1.00
C568   C     0.07691   0.17759   0.93488   0.00000  Uiso   1.00
C569   C     0.06313   0.18434   0.98847   0.00000  Uiso   1.00
C570   C     0.09685   0.17903   0.51538   0.00000  Uiso   1.00
C571   C     0.14524   0.16495   0.98925   0.00000  Uiso   1.00
C572   C     0.15748   0.15402   0.93542   0.00000  Uiso   1.00
C573   C     0.18193   0.16149   0.51457   0.00000  Uiso   1.00
C574   C     0.22966   0.14664   0.98598   0.00000  Uiso   1.00
C575   C     0.23897   0.13162   0.93443   0.00000  Uiso   1.00
C576   C     0.20236   0.13353   0.91086   0.00000  Uiso   1.00
C577   C     0.17267   0.17225   0.56764   0.00000  Uiso   1.00
C578   C     0.25599   0.15680   0.56280   0.00000  Uiso   1.00
C579   C     0.12440   0.16378   0.90749   0.00000  Uiso   1.00
H580   H     0.13773   0.18423   0.59113   0.00000  Uiso   1.00
H581   H     0.05071   0.18457   0.91467   0.00000  Uiso   1.00
H582   H     0.08345   0.18615   0.55657   0.00000  Uiso   1.00
H583   H     0.02650   0.19537   0.50913   0.00000  Uiso   1.00
H584   H     0.20950   0.11828   0.87303   0.00000  Uiso   1.00
C585   C     0.20644   0.31206   0.75828   0.00000  Uiso   1.00
H586   H     0.23906   0.29605   0.75978   0.00000  Uiso   1.00
C587   C     0.20593   0.02135   0.75978   0.00000  Uiso   1.00
H588   H     0.23766   0.03723   0.76370   0.00000  Uiso   1.00
C589   C     0.16481   0.04287   0.75632   0.00000  Uiso   1.00
C590   C     0.12243   0.02137   0.75682   0.00000  Uiso   1.00
H591   H     0.08900   0.03726   0.75832   0.00000  Uiso   1.00
C592   C     0.12279   0.31211   0.75536   0.00000  Uiso   1.00
H593   H     0.08994   0.29615   0.75449   0.00000  Uiso   1.00
C594   C     0.16529   0.29059   0.75459   0.00000  Uiso   1.00
C595   C     0.29898   0.19227   0.78326   0.00000  Uiso   1.00
H596   H     0.27275   0.21286   0.80998   0.00000  Uiso   1.00
C597   C     0.01511   0.19221   0.78331   0.00000  Uiso   1.00
H598   H     0.02590   0.21272   0.81008   0.00000  Uiso   1.00
N599   N     0.04931   0.16666   0.74999   0.00000  Uiso   1.00
C600   C     0.03440   0.14088   0.71670   0.00000  Uiso   1.00
C601   C     0.31824   0.14081   0.71684   0.00000  Uiso   1.00
N602   N     0.28402   0.16669   0.75000   0.00000  Uiso   1.00
N603   N     0.06837   0.11310   0.68150   0.00000  Uiso   1.00
O604   O     0.08655   0.12296   0.63307   0.00000  Uiso   1.00
O605   O     0.06642   0.07431   0.69206   0.00000  Uiso   1.00
N606   N     0.30482   0.11312   0.68154   0.00000  Uiso   1.00
O607   O     0.29498   0.07536   0.69515   0.00000  Uiso   1.00
O608   O     0.32154   0.11998   0.63209   0.00000  Uiso   1.00
C609   C     0.28573   0.11369   0.90451   0.00000  Uiso   1.00
N610   N     0.32313   0.09946   0.88049   0.00000  Uiso   1.00
O611   O     0.46042   0.22678   0.75001   0.00000  Uiso   1.00
O612   O     0.53961   0.22679   0.75001   0.00000  Uiso   1.00
C613   C     0.49961   0.24593   0.75133   0.00000  Uiso   1.00
O614   O     0.44108   0.16665   0.82549   0.00000  Uiso   1.00
O615   O     0.52027   0.16666   0.82549   0.00000  Uiso   1.00
C616   C     0.47372   0.16475   0.84999   0.00000  Uiso   1.00
Cu617  Cu    0.45311   0.16666   0.75000   0.00000  Uiso   1.00
Cu618  Cu    0.54689   0.16667   0.75000   0.00000  Uiso   1.00
O619   O     0.46039   0.10654   0.75000   0.00000  Uiso   1.00
O620   O     0.53958   0.10655   0.75000   0.00000  Uiso   1.00
O621   O     0.47973   0.16667   0.67451   0.00000  Uiso   1.00
O622   O     0.55892   0.16668   0.67451   0.00000  Uiso   1.00
C623   C     0.49936   0.08746   0.75222   0.00000  Uiso   1.00
C624   C     0.52631   0.16778   0.64994   0.00000  Uiso   1.00
C625   C     0.60004   0.14634   0.51015   0.00000  Uiso   1.00
H626   H     0.61822   0.15609   0.58024   0.00000  Uiso   1.00
H627   H     0.63719   0.13694   0.98894   0.00000  Uiso   1.00
C628   C     0.54146   0.16667   0.59259   0.00000  Uiso   1.00
C629   C     0.41024   0.17759   0.93488   0.00000  Uiso   1.00
C630   C     0.39646   0.18434   0.98847   0.00000  Uiso   1.00
C631   C     0.43018   0.17903   0.51538   0.00000  Uiso   1.00
C632   C     0.47858   0.16495   0.98925   0.00000  Uiso   1.00
C633   C     0.49082   0.15402   0.93542   0.00000  Uiso   1.00
C634   C     0.51526   0.16149   0.51457   0.00000  Uiso   1.00
C635   C     0.56300   0.14664   0.98598   0.00000  Uiso   1.00
C636   C     0.57230   0.13162   0.93443   0.00000  Uiso   1.00
C637   C     0.53569   0.13353   0.91086   0.00000  Uiso   1.00
C638   C     0.50601   0.17225   0.56764   0.00000  Uiso   1.00
C639   C     0.58933   0.15680   0.56280   0.00000  Uiso   1.00
C640   C     0.45774   0.16378   0.90749   0.00000  Uiso   1.00
H641   H     0.47106   0.18423   0.59113   0.00000  Uiso   1.00
H642   H     0.38404   0.18457   0.91467   0.00000  Uiso   1.00
H643   H     0.41679   0.18615   0.55657   0.00000  Uiso   1.00
H644   H     0.35983   0.19537   0.50913   0.00000  Uiso   1.00
H645   H     0.54284   0.11828   0.87303   0.00000  Uiso   1.00
C646   C     0.53977   0.31206   0.75828   0.00000  Uiso   1.00
H647   H     0.57240   0.29605   0.75978   0.00000  Uiso   1.00
C648   C     0.53926   0.02135   0.75978   0.00000  Uiso   1.00
H649   H     0.57100   0.03723   0.76370   0.00000  Uiso   1.00
C650   C     0.49814   0.04287   0.75632   0.00000  Uiso   1.00
C651   C     0.45576   0.02137   0.75682   0.00000  Uiso   1.00
H652   H     0.42233   0.03726   0.75832   0.00000  Uiso   1.00
C653   C     0.45612   0.31211   0.75536   0.00000  Uiso   1.00
H654   H     0.42327   0.29615   0.75449   0.00000  Uiso   1.00
C655   C     0.49863   0.29059   0.75459   0.00000  Uiso   1.00
C656   C     0.63232   0.19227   0.78326   0.00000  Uiso   1.00
H657   H     0.60608   0.21286   0.80998   0.00000  Uiso   1.00
C658   C     0.34844   0.19221   0.78331   0.00000  Uiso   1.00
H659   H     0.35924   0.21272   0.81008   0.00000  Uiso   1.00
N660   N     0.38265   0.16666   0.74999   0.00000  Uiso   1.00
C661   C     0.36773   0.14088   0.71670   0.00000  Uiso   1.00
C662   C     0.65157   0.14081   0.71684   0.00000  Uiso   1.00
N663   N     0.61735   0.16669   0.75000   0.00000  Uiso   1.00
N664   N     0.40170   0.11310   0.68150   0.00000  Uiso   1.00
O665   O     0.41988   0.12296   0.63307   0.00000  Uiso   1.00
O666   O     0.39976   0.07431   0.69206   0.00000  Uiso   1.00
N667   N     0.63815   0.11312   0.68154   0.00000  Uiso   1.00
O668   O     0.62831   0.07536   0.69515   0.00000  Uiso   1.00
O669   O     0.65488   0.11998   0.63209   0.00000  Uiso   1.00
C670   C     0.61907   0.11369   0.90451   0.00000  Uiso   1.00
N671   N     0.65646   0.09946   0.88049   0.00000  Uiso   1.00
O672   O     0.79375   0.22678   0.75001   0.00000  Uiso   1.00
O673   O     0.87294   0.22679   0.75001   0.00000  Uiso   1.00
C674   C     0.83294   0.24593   0.75133   0.00000  Uiso   1.00
O675   O     0.77441   0.16665   0.82549   0.00000  Uiso   1.00
O676   O     0.85360   0.16666   0.82549   0.00000  Uiso   1.00
C677   C     0.80706   0.16475   0.84999   0.00000  Uiso   1.00
Cu678  Cu    0.78645   0.16666   0.75000   0.00000  Uiso   1.00
Cu679  Cu    0.88022   0.16667   0.75000   0.00000  Uiso   1.00
O680   O     0.79373   0.10654   0.75000   0.00000  Uiso   1.00
O681   O     0.87292   0.10655   0.75000   0.00000  Uiso   1.00
O682   O     0.81306   0.16667   0.67451   0.00000  Uiso   1.00
O683   O     0.89225   0.16668   0.67451   0.00000  Uiso   1.00
C684   C     0.83269   0.08746   0.75222   0.00000  Uiso   1.00
C685   C     0.85964   0.16778   0.64994   0.00000  Uiso   1.00
C686   C     0.93338   0.14634   0.51015   0.00000  Uiso   1.00
H687   H     0.95156   0.15609   0.58024   0.00000  Uiso   1.00
H688   H     0.97052   0.13694   0.98894   0.00000  Uiso   1.00
C689   C     0.87480   0.16667   0.59259   0.00000  Uiso   1.00
C690   C     0.74357   0.17759   0.93488   0.00000  Uiso   1.00
C691   C     0.72980   0.18434   0.98847   0.00000  Uiso   1.00
C692   C     0.76351   0.17903   0.51538   0.00000  Uiso   1.00
C693   C     0.81191   0.16495   0.98925   0.00000  Uiso   1.00
C694   C     0.82415   0.15402   0.93542   0.00000  Uiso   1.00
C695   C     0.84860   0.16149   0.51457   0.00000  Uiso   1.00
C696   C     0.89633   0.14664   0.98598   0.00000  Uiso   1.00
C697   C     0.90564   0.13162   0.93443   0.00000  Uiso   1.00
C698   C     0.86903   0.13353   0.91086   0.00000  Uiso   1.00
C699   C     0.83934   0.17225   0.56764   0.00000  Uiso   1.00
C700   C     0.92266   0.15680   0.56280   0.00000  Uiso   1.00
C701   C     0.79107   0.16378   0.90749   0.00000  Uiso   1.00
H702   H     0.80440   0.18423   0.59113   0.00000  Uiso   1.00
H703   H     0.71738   0.18457   0.91467   0.00000  Uiso   1.00
H704   H     0.75012   0.18615   0.55657   0.00000  Uiso   1.00
H705   H     0.69316   0.19537   0.50913   0.00000  Uiso   1.00
H706   H     0.87617   0.11828   0.87303   0.00000  Uiso   1.00
C707   C     0.87310   0.31206   0.75828   0.00000  Uiso   1.00
H708   H     0.90573   0.29605   0.75978   0.00000  Uiso   1.00
C709   C     0.87259   0.02135   0.75978   0.00000  Uiso   1.00
H710   H     0.90433   0.03723   0.76370   0.00000  Uiso   1.00
C711   C     0.83147   0.04287   0.75632   0.00000  Uiso   1.00
C712   C     0.78910   0.02137   0.75682   0.00000  Uiso   1.00
H713   H     0.75566   0.03726   0.75832   0.00000  Uiso   1.00
C714   C     0.78946   0.31211   0.75536   0.00000  Uiso   1.00
H715   H     0.75660   0.29615   0.75449   0.00000  Uiso   1.00
C716   C     0.83196   0.29059   0.75459   0.00000  Uiso   1.00
C717   C     0.96565   0.19227   0.78326   0.00000  Uiso   1.00
H718   H     0.93941   0.21286   0.80998   0.00000  Uiso   1.00
C719   C     0.68177   0.19221   0.78331   0.00000  Uiso   1.00
H720   H     0.69257   0.21272   0.81008   0.00000  Uiso   1.00
N721   N     0.71598   0.16666   0.74999   0.00000  Uiso   1.00
C722   C     0.70106   0.14088   0.71670   0.00000  Uiso   1.00
C723   C     0.98490   0.14081   0.71684   0.00000  Uiso   1.00
N724   N     0.95069   0.16669   0.75000   0.00000  Uiso   1.00
N725   N     0.73503   0.11310   0.68150   0.00000  Uiso   1.00
O726   O     0.75322   0.12296   0.63307   0.00000  Uiso   1.00
O727   O     0.73309   0.07431   0.69206   0.00000  Uiso   1.00
N728   N     0.97148   0.11312   0.68154   0.00000  Uiso   1.00
O729   O     0.96164   0.07536   0.69515   0.00000  Uiso   1.00
O730   O     0.98821   0.11998   0.63209   0.00000  Uiso   1.00
C731   C     0.95240   0.11369   0.90451   0.00000  Uiso   1.00
N732   N     0.98980   0.09946   0.88049   0.00000  Uiso   1.00
O733   O     0.12708   0.56011   0.75001   0.00000  Uiso   1.00
O734   O     0.20627   0.56012   0.75001   0.00000  Uiso   1.00
C735   C     0.16628   0.57926   0.75133   0.00000  Uiso   1.00
O736   O     0.10775   0.49998   0.82549   0.00000  Uiso   1.00
O737   O     0.18694   0.49999   0.82549   0.00000  Uiso   1.00
C738   C     0.14039   0.49808   0.84999   0.00000  Uiso   1.00
Cu739  Cu    0.11978   0.49999   0.75000   0.00000  Uiso   1.00
Cu740  Cu    0.21355   0.50001   0.75000   0.00000  Uiso   1.00
O741   O     0.12706   0.43988   0.75000   0.00000  Uiso   1.00
O742   O     0.20625   0.43989   0.75000   0.00000  Uiso   1.00
O743   O     0.14640   0.50001   0.67451   0.00000  Uiso   1.00
O744   O     0.22559   0.50002   0.67451   0.00000  Uiso   1.00
C745   C     0.16603   0.42079   0.75222   0.00000  Uiso   1.00
C746   C     0.19297   0.50112   0.64994   0.00000  Uiso   1.00
C747   C     0.26671   0.47968   0.51015   0.00000  Uiso   1.00
H748   H     0.28489   0.48943   0.58024   0.00000  Uiso   1.00
H749   H     0.30386   0.47027   0.98894   0.00000  Uiso   1.00
C750   C     0.20813   0.50000   0.59259   0.00000  Uiso   1.00
C751   C     0.07691   0.51092   0.93488   0.00000  Uiso   1.00
C752   C     0.06313   0.51767   0.98847   0.00000  Uiso   1.00
C753   C     0.09685   0.51237   0.51538   0.00000  Uiso   1.00
C754   C     0.14524   0.49828   0.98925   0.00000  Uiso   1.00
C755   C     0.15748   0.48735   0.93542   0.00000  Uiso   1.00
C756   C     0.18193   0.49482   0.51457   0.00000  Uiso   1.00
C757   C     0.22966   0.47997   0.98598   0.00000  Uiso   1.00
C758   C     0.23897   0.46495   0.93443   0.00000  Uiso   1.00
C759   C     0.20236   0.46687   0.91086   0.00000  Uiso   1.00
C760   C     0.17267   0.50558   0.56764   0.00000  Uiso   1.00
C761   C     0.25599   0.49013   0.56280   0.00000  Uiso   1.00
C762   C     0.12440   0.49711   0.90749   0.00000  Uiso   1.00
H763   H     0.13773   0.51757   0.59113   0.00000  Uiso   1.00
H764   H     0.05071   0.51790   0.91467   0.00000  Uiso   1.00
H765   H     0.08345   0.51948   0.55657   0.00000  Uiso   1.00
H766   H     0.02650   0.52870   0.50913   0.00000  Uiso   1.00
H767   H     0.20950   0.45162   0.87303   0.00000  Uiso   1.00
C768   C     0.20644   0.64540   0.75828   0.00000  Uiso   1.00
H769   H     0.23906   0.62939   0.75978   0.00000  Uiso   1.00
C770   C     0.20593   0.35468   0.75978   0.00000  Uiso   1.00
H771   H     0.23766   0.37056   0.76370   0.00000  Uiso   1.00
C772   C     0.16481   0.37621   0.75632   0.00000  Uiso   1.00
C773   C     0.12243   0.35470   0.75682   0.00000  Uiso   1.00
H774   H     0.08900   0.37059   0.75832   0.00000  Uiso   1.00
C775   C     0.12279   0.64544   0.75536   0.00000  Uiso   1.00
H776   H     0.08994   0.62948   0.75449   0.00000  Uiso   1.00
C777   C     0.16529   0.62392   0.75459   0.00000  Uiso   1.00
C778   C     0.29898   0.52561   0.78326   0.00000  Uiso   1.00
H779   H     0.27275   0.54620   0.80998   0.00000  Uiso   1.00
C780   C     0.01511   0.52554   0.78331   0.00000  Uiso   1.00
H781   H     0.02590   0.54605   0.81008   0.00000  Uiso   1.00
N782   N     0.04931   0.49999   0.74999   0.00000  Uiso   1.00
C783   C     0.03440   0.47422   0.71670   0.00000  Uiso   1.00
C784   C     0.31824   0.47414   0.71684   0.00000  Uiso   1.00
N785   N     0.28402   0.50002   0.75000   0.00000  Uiso   1.00
N786   N     0.06837   0.44643   0.68150   0.00000  Uiso   1.00
O787   O     0.08655   0.45629   0.63307   0.00000  Uiso   1.00
O788   O     0.06642   0.40764   0.69206   0.00000  Uiso   1.00
N789   N     0.30482   0.44646   0.68154   0.00000  Uiso   1.00
O790   O     0.29498   0.40870   0.69515   0.00000  Uiso   1.00
O791   O     0.32154   0.45331   0.63209   0.00000  Uiso   1.00
C792   C     0.28573   0.44703   0.90451   0.00000  Uiso   1.00
N793   N     0.32313   0.43279   0.88049   0.00000  Uiso   1.00
O794   O     0.46042   0.56011   0.75001   0.00000  Uiso   1.00
O795   O     0.53961   0.56012   0.75001   0.00000  Uiso   1.00
C796   C     0.49961   0.57926   0.75133   0.00000  Uiso   1.00
O797   O     0.44108   0.49998   0.82549   0.00000  Uiso   1.00
O798   O     0.52027   0.49999   0.82549   0.00000  Uiso   1.00
C799   C     0.47372   0.49808   0.84999   0.00000  Uiso   1.00
Cu800  Cu    0.45311   0.49999   0.75000   0.00000  Uiso   1.00
Cu801  Cu    0.54689   0.50001   0.75000   0.00000  Uiso   1.00
O802   O     0.46039   0.43988   0.75000   0.00000  Uiso   1.00
O803   O     0.53958   0.43989   0.75000   0.00000  Uiso   1.00
O804   O     0.47973   0.50001   0.67451   0.00000  Uiso   1.00
O805   O     0.55892   0.50002   0.67451   0.00000  Uiso   1.00
C806   C     0.49936   0.42079   0.75222   0.00000  Uiso   1.00
C807   C     0.52631   0.50112   0.64994   0.00000  Uiso   1.00
C808   C     0.60004   0.47968   0.51015   0.00000  Uiso   1.00
H809   H     0.61822   0.48943   0.58024   0.00000  Uiso   1.00
H810   H     0.63719   0.47027   0.98894   0.00000  Uiso   1.00
C811   C     0.54146   0.50000   0.59259   0.00000  Uiso   1.00
C812   C     0.41024   0.51092   0.93488   0.00000  Uiso   1.00
C813   C     0.39646   0.51767   0.98847   0.00000  Uiso   1.00
C814   C     0.43018   0.51237   0.51538   0.00000  Uiso   1.00
C815   C     0.47858   0.49828   0.98925   0.00000  Uiso   1.00
C816   C     0.49082   0.48735   0.93542   0.00000  Uiso   1.00
C817   C     0.51526   0.49482   0.51457   0.00000  Uiso   1.00
C818   C     0.56300   0.47997   0.98598   0.00000  Uiso   1.00
C819   C     0.57230   0.46495   0.93443   0.00000  Uiso   1.00
C820   C     0.53569   0.46687   0.91086   0.00000  Uiso   1.00
C821   C     0.50601   0.50558   0.56764   0.00000  Uiso   1.00
C822   C     0.58933   0.49013   0.56280   0.00000  Uiso   1.00
C823   C     0.45774   0.49711   0.90749   0.00000  Uiso   1.00
H824   H     0.47106   0.51757   0.59113   0.00000  Uiso   1.00
H825   H     0.38404   0.51790   0.91467   0.00000  Uiso   1.00
H826   H     0.41679   0.51948   0.55657   0.00000  Uiso   1.00
H827   H     0.35983   0.52870   0.50913   0.00000  Uiso   1.00
H828   H     0.54284   0.45162   0.87303   0.00000  Uiso   1.00
C829   C     0.53977   0.64540   0.75828   0.00000  Uiso   1.00
H830   H     0.57240   0.62939   0.75978   0.00000  Uiso   1.00
C831   C     0.53926   0.35468   0.75978   0.00000  Uiso   1.00
H832   H     0.57100   0.37056   0.76370   0.00000  Uiso   1.00
C833   C     0.49814   0.37621   0.75632   0.00000  Uiso   1.00
C834   C     0.45576   0.35470   0.75682   0.00000  Uiso   1.00
H835   H     0.42233   0.37059   0.75832   0.00000  Uiso   1.00
C836   C     0.45612   0.64544   0.75536   0.00000  Uiso   1.00
H837   H     0.42327   0.62948   0.75449   0.00000  Uiso   1.00
C838   C     0.49863   0.62392   0.75459   0.00000  Uiso   1.00
C839   C     0.63232   0.52561   0.78326   0.00000  Uiso   1.00
H840   H     0.60608   0.54620   0.80998   0.00000  Uiso   1.00
C841   C     0.34844   0.52554   0.78331   0.00000  Uiso   1.00
H842   H     0.35924   0.54605   0.81008   0.00000  Uiso   1.00
N843   N     0.38265   0.49999   0.74999   0.00000  Uiso   1.00
C844   C     0.36773   0.47422   0.71670   0.00000  Uiso   1.00
C845   C     0.65157   0.47414   0.71684   0.00000  Uiso   1.00
N846   N     0.61735   0.50002   0.75000   0.00000  Uiso   1.00
N847   N     0.40170   0.44643   0.68150   0.00000  Uiso   1.00
O848   O     0.41988   0.45629   0.63307   0.00000  Uiso   1.00
O849   O     0.39976   0.40764   0.69206   0.00000  Uiso   1.00
N850   N     0.63815   0.44646   0.68154   0.00000  Uiso   1.00
O851   O     0.62831   0.40870   0.69515   0.00000  Uiso   1.00
O852   O     0.65488   0.45331   0.63209   0.00000  Uiso   1.00
C853   C     0.61907   0.44703   0.90451   0.00000  Uiso   1.00
N854   N     0.65646   0.43279   0.88049   0.00000  Uiso   1.00
O855   O     0.79375   0.56011   0.75001   0.00000  Uiso   1.00
O856   O     0.87294   0.56012   0.75001   0.00000  Uiso   1.00
C857   C     0.83294   0.57926   0.75133   0.00000  Uiso   1.00
O858   O     0.77441   0.49998   0.82549   0.00000  Uiso   1.00
O859   O     0.85360   0.49999   0.82549   0.00000  Uiso   1.00
C860   C     0.80706   0.49808   0.84999   0.00000  Uiso   1.00
Cu861  Cu    0.78645   0.49999   0.75000   0.00000  Uiso   1.00
Cu862  Cu    0.88022   0.50001   0.75000   0.00000  Uiso   1.00
O863   O     0.79373   0.43988   0.75000   0.00000  Uiso   1.00
O864   O     0.87292   0.43989   0.75000   0.00000  Uiso   1.00
O865   O     0.81306   0.50001   0.67451   0.00000  Uiso   1.00
O866   O     0.89225   0.50002   0.67451   0.00000  Uiso   1.00
C867   C     0.83269   0.42079   0.75222   0.00000  Uiso   1.00
C868   C     0.85964   0.50112   0.64994   0.00000  Uiso   1.00
C869   C     0.93338   0.47968   0.51015   0.00000  Uiso   1.00
H870   H     0.95156   0.48943   0.58024   0.00000  Uiso   1.00
H871   H     0.97052   0.47027   0.98894   0.00000  Uiso   1.00
C872   C     0.87480   0.50000   0.59259   0.00000  Uiso   1.00
C873   C     0.74357   0.51092   0.93488   0.00000  Uiso   1.00
C874   C     0.72980   0.51767   0.98847   0.00000  Uiso   1.00
C875   C     0.76351   0.51237   0.51538   0.00000  Uiso   1.00
C876   C     0.81191   0.49828   0.98925   0.00000  Uiso   1.00
C877   C     0.82415   0.48735   0.93542   0.00000  Uiso   1.00
C878   C     0.84860   0.49482   0.51457   0.00000  Uiso   1.00
C879   C     0.89633   0.47997   0.98598   0.00000  Uiso   1.00
C880   C     0.90564   0.46495   0.93443   0.00000  Uiso   1.00
C881   C     0.86903   0.46687   0.91086   0.00000  Uiso   1.00
C882   C     0.83934   0.50558   0.56764   0.00000  Uiso   1.00
C883   C     0.92266   0.49013   0.56280   0.00000  Uiso   1.00
C884   C     0.79107   0.49711   0.90749   0.00000  Uiso   1.00
H885   H     0.80440   0.51757   0.59113   0.00000  Uiso   1.00
H886   H     0.71738   0.51790   0.91467   0.00000  Uiso   1.00
H887   H     0.75012   0.51948   0.55657   0.00000  Uiso   1.00
H888   H     0.69316   0.52870   0.50913   0.00000  Uiso   1.00
H889   H     0.87617   0.45162   0.87303   0.00000  Uiso   1.00
C890   C     0.87310   0.64540   0.75828   0.00000  Uiso   1.00
H891   H     0.90573   0.62939   0.75978   0.00000  Uiso   1.00
C892   C     0.87259   0.35468   0.75978   0.00000  Uiso   1.00
H893   H     0.90433   0.37056   0.76370   0.00000  Uiso   1.00
C894   C     0.83147   0.37621   0.75632   0.00000  Uiso   1.00
C895   C     0.78910   0.35470   0.75682   0.00000  Uiso   1.00
H896   H     0.75566   0.37059   0.75832   0.00000  Uiso   1.00
C897   C     0.78946   0.64544   0.75536   0.00000  Uiso   1.00
H898   H     0.75660   0.62948   0.75449   0.00000  Uiso   1.00
C899   C     0.83196   0.62392   0.75459   0.00000  Uiso   1.00
C900   C     0.96565   0.52561   0.78326   0.00000  Uiso   1.00
H901   H     0.93941   0.54620   0.80998   0.00000  Uiso   1.00
C902   C     0.68177   0.52554   0.78331   0.00000  Uiso   1.00
H903   H     0.69257   0.54605   0.81008   0.00000  Uiso   1.00
N904   N     0.71598   0.49999   0.74999   0.00000  Uiso   1.00
C905   C     0.70106   0.47422   0.71670   0.00000  Uiso   1.00
C906   C     0.98490   0.47414   0.71684   0.00000  Uiso   1.00
N907   N     0.95069   0.50002   0.75000   0.00000  Uiso   1.00
N908   N     0.73503   0.44643   0.68150   0.00000  Uiso   1.00
O909   O     0.75322   0.45629   0.63307   0.00000  Uiso   1.00
O910   O     0.73309   0.40764   0.69206   0.00000  Uiso   1.00
N911   N     0.97148   0.44646   0.68154   0.00000  Uiso   1.00
O912   O     0.96164   0.40870   0.69515   0.00000  Uiso   1.00
O913   O     0.98821   0.45331   0.63209   0.00000  Uiso   1.00
C914   C     0.95240   0.44703   0.90451   0.00000  Uiso   1.00
N915   N     0.98980   0.43279   0.88049   0.00000  Uiso   1.00
O916   O     0.12708   0.89345   0.75001   0.00000  Uiso   1.00
O917   O     0.20627   0.89346   0.75001   0.00000  Uiso   1.00
C918   C     0.16628   0.91260   0.75133   0.00000  Uiso   1.00
O919   O     0.10775   0.83332   0.82549   0.00000  Uiso   1.00
O920   O     0.18694   0.83333   0.82549   0.00000  Uiso   1.00
C921   C     0.14039   0.83141   0.84999   0.00000  Uiso   1.00
Cu922  Cu    0.11978   0.83333   0.75000   0.00000  Uiso   1.00
Cu923  Cu    0.21355   0.83334   0.75000   0.00000  Uiso   1.00
O924   O     0.12706   0.77321   0.75000   0.00000  Uiso   1.00
O925   O     0.20625   0.77322   0.75000   0.00000  Uiso   1.00
O926   O     0.14640   0.83334   0.67451   0.00000  Uiso   1.00
O927   O     0.22559   0.83335   0.67451   0.00000  Uiso   1.00
C928   C     0.16603   0.75413   0.75222   0.00000  Uiso   1.00
C929   C     0.19297   0.83445   0.64994   0.00000  Uiso   1.00
C930   C     0.26671   0.81301   0.51015   0.00000  Uiso   1.00
H931   H     0.28489   0.82276   0.58024   0.00000  Uiso   1.00
H932   H     0.30386   0.80361   0.98894   0.00000  Uiso   1.00
C933   C     0.20813   0.83333   0.59259   0.00000  Uiso   1.00
C934   C     0.07691   0.84425   0.93488   0.00000  Uiso   1.00
C935   C     0.06313   0.85101   0.98847   0.00000  Uiso   1.00
C936   C     0.09685   0.84570   0.51538   0.00000  Uiso   1.00
C937   C     0.14524   0.83161   0.98925   0.00000  Uiso   1.00
C938   C     0.15748   0.82068   0.93542   0.00000  Uiso   1.00
C939   C     0.18193   0.82815   0.51457   0.00000  Uiso   1.00
C940   C     0.22966   0.81331   0.98598   0.00000  Uiso   1.00
C941   C     0.23897   0.79828   0.93443   0.00000  Uiso   1.00
C942   C     0.20236   0.80020   0.91086   0.00000  Uiso   1.00
C943   C     0.17267   0.83891   0.56764   0.00000  Uiso   1.00
C944   C     0.25599   0.82346   0.56280   0.00000  Uiso   1.00
C945   C     0.12440   0.83045   0.90749   0.00000  Uiso   1.00
H946   H     0.13773   0.85090   0.59113   0.00000  Uiso   1.00
H947   H     0.05071   0.85123   0.91467   0.00000  Uiso   1.00
H948   H     0.08345   0.85282   0.55657   0.00000  Uiso   1.00
H949   H     0.02650   0.86203   0.50913   0.00000  Uiso   1.00
H950   H     0.20950   0.78495   0.87303   0.00000  Uiso   1.00
C951   C     0.20644   0.97873   0.75828   0.00000  Uiso   1.00
H952   H     0.23906   0.96272   0.75978   0.00000  Uiso   1.00
C953   C     0.20593   0.68801   0.75978   0.00000  Uiso   1.00
H954   H     0.23766   0.70389   0.76370   0.00000  Uiso   1.00
C955   C     0.16481   0.70954   0.75632   0.00000  Uiso   1.00
C956   C     0.12243   0.68803   0.75682   0.00000  Uiso   1.00
H957   H     0.08900   0.70392   0.75832   0.00000  Uiso   1.00
C958   C     0.12279   0.97877   0.75536   0.00000  Uiso   1.00
H959   H     0.08994   0.96282   0.75449   0.00000  Uiso   1.00
C960   C     0.16529   0.95726   0.75459   0.00000  Uiso   1.00
C961   C     0.29898   0.85894   0.78326   0.00000  Uiso   1.00
H962   H     0.27275   0.87953   0.80998   0.00000  Uiso   1.00
C963   C     0.01511   0.85887   0.78331   0.00000  Uiso   1.00
H964   H     0.02590   0.87938   0.81008   0.00000  Uiso   1.00
N965   N     0.04931   0.83332   0.74999   0.00000  Uiso   1.00
C966   C     0.03440   0.80755   0.71670   0.00000  Uiso   1.00
C967   C     0.31824   0.80747   0.71684   0.00000  Uiso   1.00
N968   N     0.28402   0.83335   0.75000   0.00000  Uiso   1.00
N969   N     0.06837   0.77977   0.68150   0.00000  Uiso   1.00
O970   O     0.08655   0.78962   0.63307   0.00000  Uiso   1.00
O971   O     0.06642   0.74097   0.69206   0.00000  Uiso   1.00
N972   N     0.30482   0.77979   0.68154   0.00000  Uiso   1.00
O973   O     0.29498   0.74203   0.69515   0.00000  Uiso   1.00
O974   O     0.32154   0.78664   0.63209   0.00000  Uiso   1.00
C975   C     0.28573   0.78036   0.90451   0.00000  Uiso   1.00
N976   N     0.32313   0.76612   0.88049   0.00000  Uiso   1.00
O977   O     0.46042   0.89345   0.75001   0.00000  Uiso   1.00
O978   O     0.53961   0.89346   0.75001   0.00000  Uiso   1.00
C979   C     0.49961   0.91260   0.75133   0.00000  Uiso   1.00
O980   O     0.44108   0.83332   0.82549   0.00000  Uiso   1.00
O981   O     0.52027   0.83333   0.82549   0.00000  Uiso   1.00
C982   C     0.47372   0.83141   0.84999   0.00000  Uiso   1.00
Cu983  Cu    0.45311   0.83333   0.75000   0.00000  Uiso   1.00
Cu984  Cu    0.54689   0.83334   0.75000   0.00000  Uiso   1.00
O985   O     0.46039   0.77321   0.75000   0.00000  Uiso   1.00
O986   O     0.53958   0.77322   0.75000   0.00000  Uiso   1.00
O987   O     0.47973   0.83334   0.67451   0.00000  Uiso   1.00
O988   O     0.55892   0.83335   0.67451   0.00000  Uiso   1.00
C989   C     0.49936   0.75413   0.75222   0.00000  Uiso   1.00
C990   C     0.52631   0.83445   0.64994   0.00000  Uiso   1.00
C991   C     0.60004   0.81301   0.51015   0.00000  Uiso   1.00
H992   H     0.61822   0.82276   0.58024   0.00000  Uiso   1.00
H993   H     0.63719   0.80361   0.98894   0.00000  Uiso   1.00
C994   C     0.54146   0.83333   0.59259   0.00000  Uiso   1.00
C995   C     0.41024   0.84425   0.93488   0.00000  Uiso   1.00
C996   C     0.39646   0.85101   0.98847   0.00000  Uiso   1.00
C997   C     0.43018   0.84570   0.51538   0.00000  Uiso   1.00
C998   C     0.47858   0.83161   0.98925   0.00000  Uiso   1.00
C999   C     0.49082   0.82068   0.93542   0.00000  Uiso   1.00
C1000  C     0.51526   0.82815   0.51457   0.00000  Uiso   1.00
C1001  C     0.56300   0.81331   0.98598   0.00000  Uiso   1.00
C1002  C     0.57230   0.79828   0.93443   0.00000  Uiso   1.00
C1003  C     0.53569   0.80020   0.91086   0.00000  Uiso   1.00
C1004  C     0.50601   0.83891   0.56764   0.00000  Uiso   1.00
C1005  C     0.58933   0.82346   0.56280   0.00000  Uiso   1.00
C1006  C     0.45774   0.83045   0.90749   0.00000  Uiso   1.00
H1007  H     0.47106   0.85090   0.59113   0.00000  Uiso   1.00
H1008  H     0.38404   0.85123   0.91467   0.00000  Uiso   1.00
H1009  H     0.41679   0.85282   0.55657   0.00000  Uiso   1.00
H1010  H     0.35983   0.86203   0.50913   0.00000  Uiso   1.00
H1011  H     0.54284   0.78495   0.87303   0.00000  Uiso   1.00
C1012  C     0.53977   0.97873   0.75828   0.00000  Uiso   1.00
H1013  H     0.57240   0.96272   0.75978   0.00000  Uiso   1.00
C1014  C     0.53926   0.68801   0.75978   0.00000  Uiso   1.00
H1015  H     0.57100   0.70389   0.76370   0.00000  Uiso   1.00
C1016  C     0.49814   0.70954   0.75632   0.00000  Uiso   1.00
C1017  C     0.45576   0.68803   0.75682   0.00000  Uiso   1.00
H1018  H     0.42233   0.70392   0.75832   0.00000  Uiso   1.00
C1019  C     0.45612   0.97877   0.75536   0.00000  Uiso   1.00
H1020  H     0.42327   0.96282   0.75449   0.00000  Uiso   1.00
C1021  C     0.49863   0.95726   0.75459   0.00000  Uiso   1.00
C1022  C     0.63232   0.85894   0.78326   0.00000  Uiso   1.00
H1023  H     0.60608   0.87953   0.80998   0.00000  Uiso   1.00
C1024  C     0.34844   0.85887   0.78331   0.00000  Uiso   1.00
H1025  H     0.35924   0.87938   0.81008   0.00000  Uiso   1.00
N1026  N     0.38265   0.83332   0.74999   0.00000  Uiso   1.00
C1027  C     0.36773   0.80755   0.71670   0.00000  Uiso   1.00
C1028  C     0.65157   0.80747   0.71684   0.00000  Uiso   1.00
N1029  N     0.61735   0.83335   0.75000   0.00000  Uiso   1.00
N1030  N     0.40170   0.77977   0.68150   0.00000  Uiso   1.00
O1031  O     0.41988   0.78962   0.63307   0.00000  Uiso   1.00
O1032  O     0.39976   0.74097   0.69206   0.00000  Uiso   1.00
N1033  N     0.63815   0.77979   0.68154   0.00000  Uiso   1.00
O1034  O     0.62831   0.74203   0.69515   0.00000  Uiso   1.00
O1035  O     0.65488   0.78664   0.63209   0.00000  Uiso   1.00
C1036  C     0.61907   0.78036   0.90451   0.00000  Uiso   1.00
N1037  N     0.65646   0.76612   0.88049   0.00000  Uiso   1.00
O1038  O     0.79375   0.89345   0.75001   0.00000  Uiso   1.00
O1039  O     0.87294   0.89346   0.75001   0.00000  Uiso   1.00
C1040  C     0.83294   0.91260   0.75133   0.00000  Uiso   1.00
O1041  O     0.77441   0.83332   0.82549   0.00000  Uiso   1.00
O1042  O     0.85360   0.83333   0.82549   0.00000  Uiso   1.00
C1043  C     0.80706   0.83141   0.84999   0.00000  Uiso   1.00
Cu1044 Cu    0.78645   0.83333   0.75000   0.00000  Uiso   1.00
Cu1045 Cu    0.88022   0.83334   0.75000   0.00000  Uiso   1.00
O1046  O     0.79373   0.77321   0.75000   0.00000  Uiso   1.00
O1047  O     0.87292   0.77322   0.75000   0.00000  Uiso   1.00
O1048  O     0.81306   0.83334   0.67451   0.00000  Uiso   1.00
O1049  O     0.89225   0.83335   0.67451   0.00000  Uiso   1.00
C1050  C     0.83269   0.75413   0.75222   0.00000  Uiso   1.00
C1051  C     0.85964   0.83445   0.64994   0.00000  Uiso   1.00
C1052  C     0.93338   0.81301   0.51015   0.00000  Uiso   1.00
H1053  H     0.95156   0.82276   0.58024   0.00000  Uiso   1.00
H1054  H     0.97052   0.80361   0.98894   0.00000  Uiso   1.00
C1055  C     0.87480   0.83333   0.59259   0.00000  Uiso   1.00
C1056  C     0.74357   0.84425   0.93488   0.00000  Uiso   1.00
C1057  C     0.72980   0.85101   0.98847   0.00000  Uiso   1.00
C1058  C     0.76351   0.84570   0.51538   0.00000  Uiso   1.00
C1059  C     0.81191   0.83161   0.98925   0.00000  Uiso   1.00
C1060  C     0.82415   0.82068   0.93542   0.00000  Uiso   1.00
C1061  C     0.84860   0.82815   0.51457   0.00000  Uiso   1.00
C1062  C     0.89633   0.81331   0.98598   0.00000  Uiso   1.00
C1063  C     0.90564   0.79828   0.93443   0.00000  Uiso   1.00
C1064  C     0.86903   0.80020   0.91086   0.00000  Uiso   1.00
C1065  C     0.83934   0.83891   0.56764   0.00000  Uiso   1.00
C1066  C     0.92266   0.82346   0.56280   0.00000  Uiso   1.00
C1067  C     0.79107   0.83045   0.90749   0.00000  Uiso   1.00
H1068  H     0.80440   0.85090   0.59113   0.00000  Uiso   1.00
H1069  H     0.71738   0.85123   0.91467   0.00000  Uiso   1.00
H1070  H     0.75012   0.85282   0.55657   0.00000  Uiso   1.00
H1071  H     0.69316   0.86203   0.50913   0.00000  Uiso   1.00
H1072  H     0.87617   0.78495   0.87303   0.00000  Uiso   1.00
C1073  C     0.87310   0.97873   0.75828   0.00000  Uiso   1.00
H1074  H     0.90573   0.96272   0.75978   0.00000  Uiso   1.00
C1075  C     0.87259   0.68801   0.75978   0.00000  Uiso   1.00
H1076  H     0.90433   0.70389   0.76370   0.00000  Uiso   1.00
C1077  C     0.83147   0.70954   0.75632   0.00000  Uiso   1.00
C1078  C     0.78910   0.68803   0.75682   0.00000  Uiso   1.00
H1079  H     0.75566   0.70392   0.75832   0.00000  Uiso   1.00
C1080  C     0.78946   0.97877   0.75536   0.00000  Uiso   1.00
H1081  H     0.75660   0.96282   0.75449   0.00000  Uiso   1.00
C1082  C     0.83196   0.95726   0.75459   0.00000  Uiso   1.00
C1083  C     0.96565   0.85894   0.78326   0.00000  Uiso   1.00
H1084  H     0.93941   0.87953   0.80998   0.00000  Uiso   1.00
C1085  C     0.68177   0.85887   0.78331   0.00000  Uiso   1.00
H1086  H     0.69257   0.87938   0.81008   0.00000  Uiso   1.00
N1087  N     0.71598   0.83332   0.74999   0.00000  Uiso   1.00
C1088  C     0.70106   0.80755   0.71670   0.00000  Uiso   1.00
C1089  C     0.98490   0.80747   0.71684   0.00000  Uiso   1.00
N1090  N     0.95069   0.83335   0.75000   0.00000  Uiso   1.00
N1091  N     0.73503   0.77977   0.68150   0.00000  Uiso   1.00
O1092  O     0.75322   0.78962   0.63307   0.00000  Uiso   1.00
O1093  O     0.73309   0.74097   0.69206   0.00000  Uiso   1.00
N1094  N     0.97148   0.77979   0.68154   0.00000  Uiso   1.00
O1095  O     0.96164   0.74203   0.69515   0.00000  Uiso   1.00
O1096  O     0.98821   0.78664   0.63209   0.00000  Uiso   1.00
C1097  C     0.95240   0.78036   0.90451   0.00000  Uiso   1.00
N1098  N     0.98980   0.76612   0.88049   0.00000  Uiso   1.00
loop_
_geom_bond_atom_site_label_1
_geom_bond_atom_site_label_2
_geom_bond_distance
_geom_bond_site_symmetry_2
_ccdc_geom_bond_type
O1     Cu7     1.965   .     S
O1     C3      1.296   .     A
O2     C3      1.296   .     A
O2     Cu8     1.965   .     S
C3     C45     1.451   .     S
O4     Cu7     1.958   .     S
O4     C6      1.305   .     A
O5     Cu8     1.942   .     S
O5     C6      1.299   .     A
C6     C30     1.477   .     S
Cu7    O11     1.942   .     S
Cu7    Cu8     2.693   .     S
Cu7    O9      1.965   .     S
Cu7    N50     2.023   .     S
Cu8    N53     2.023   .     S
Cu8    O12     1.958   .     S
Cu8    O10     1.965   .     S
O9     C13     1.297   .     A
O10    C13     1.298   .     A
O11    C14     1.298   .     A
O12    C14     1.304   .     A
C13    C40     1.456   .     S
C14    C18     1.472   .     S
C15    C29     1.389   .     A
C15    H566    1.082   1_554 S
C15    C574    1.408   1_554 S
H16    C29     1.073   .     S
H17    C564    1.082   .     S
C18    C29     1.393   .     A
C18    C28     1.397   .     A
C19    C20     1.386   .     A
C19    H32     1.083   .     S
C19    C30     1.402   .     A
C20    C570    1.390   .     S
C20    H583    1.083   .     S
C21    H33     1.076   .     S
C21    C569    1.390   1_554 S
C21    C571    1.419   1_554 S
C22    C23     1.418   .     A
C22    C570    1.419   .     S
C22    C573    1.426   .     S
C23    C27     1.410   .     A
C23    C30     1.423   .     A
C24    C28     1.406   .     A
C24    C571    1.426   1_554 S
C24    C574    1.425   1_554 S
C25    C26     1.404   .     A
C25    C564    1.408   .     S
C25    C573    1.425   .     S
C26    C27     1.388   .     A
C26    C60     1.448   .     S
C27    H35     1.081   .     S
C28    H31     1.074   .     S
H34    C569    1.083   1_554 S
C36    C45     1.401   .     A
C36    H37     1.083   .     S
C36    C221    1.384   .     S
C38    C40     1.401   .     A
C38    H39     1.079   .     S
C38    C402    1.384   1_545 S
C40    C41     1.401   .     A
C41    H42     1.079   .     S
C41    C409    1.384   1_545 S
C43    H44     1.083   .     S
C43    C45     1.400   .     A
C43    C224    1.384   .     S
C46    N53     1.368   .     A
C46    H47     1.082   .     S
C46    C109    1.421   .     S
C48    H49     1.082   .     S
C48    N50     1.368   .     A
C48    C168    1.421   1_455 S
N50    C51     1.372   .     A
C51    N54     1.430   .     S
C51    C174    1.420   1_455 S
C52    N57     1.428   .     S
C52    N53     1.373   .     A
C52    C112    1.420   .     S
N54    O56     1.299   .     A
N54    O55     1.299   .     A
N57    O58     1.298   .     A
N57    O59     1.298   .     A
C60    N61     1.157   .     T
O62    Cu68    1.965   .     S
O62    C64     1.296   .     A
O63    C64     1.296   .     A
O63    Cu69    1.965   .     S
C64    C106    1.451   .     S
O65    Cu68    1.958   .     S
O65    C67     1.305   .     A
O66    Cu69    1.942   .     S
O66    C67     1.299   .     A
C67    C91     1.477   .     S
Cu68   O72     1.942   .     S
Cu68   Cu69    2.693   .     S
Cu68   O70     1.965   .     S
Cu68   N111    2.023   .     S
Cu69   N114    2.023   .     S
Cu69   O73     1.958   .     S
Cu69   O71     1.965   .     S
O70    C74     1.297   .     A
O71    C74     1.298   .     A
O72    C75     1.298   .     A
O73    C75     1.304   .     A
C74    C101    1.456   .     S
C75    C79     1.472   .     S
C76    C90     1.389   .     A
C76    H627    1.082   1_554 S
C76    C635    1.408   1_554 S
H77    C90     1.073   .     S
H78    C625    1.082   .     S
C79    C90     1.393   .     A
C79    C89     1.397   .     A
C80    C81     1.386   .     A
C80    H93     1.083   .     S
C80    C91     1.402   .     A
C81    C631    1.390   .     S
C81    H644    1.083   .     S
C82    H94     1.076   .     S
C82    C630    1.390   1_554 S
C82    C632    1.419   1_554 S
C83    C84     1.418   .     A
C83    C631    1.419   .     S
C83    C634    1.426   .     S
C84    C88     1.410   .     A
C84    C91     1.423   .     A
C85    C89     1.406   .     A
C85    C632    1.426   1_554 S
C85    C635    1.425   1_554 S
C86    C87     1.404   .     A
C86    C625    1.408   .     S
C86    C634    1.425   .     S
C87    C88     1.388   .     A
C87    C121    1.448   .     S
C88    H96     1.081   .     S
C89    H92     1.074   .     S
H95    C630    1.083   1_554 S
C97    C106    1.401   .     A
C97    H98     1.083   .     S
C97    C282    1.384   .     S
C99    C101    1.401   .     A
C99    H100    1.079   .     S
C99    C463    1.384   1_545 S
C101   C102    1.401   .     A
C102   H103    1.079   .     S
C102   C470    1.384   1_545 S
C104   H105    1.083   .     S
C104   C106    1.400   .     A
C104   C285    1.384   .     S
C107   N114    1.368   .     A
C107   H108    1.082   .     S
C107   C170    1.421   .     S
C109   H110    1.082   .     S
C109   N111    1.368   .     A
N111   C112    1.372   .     A
C112   N115    1.430   .     S
C113   N118    1.428   .     S
C113   N114    1.373   .     A
C113   C173    1.420   .     S
N115   O117    1.299   .     A
N115   O116    1.299   .     A
N118   O119    1.298   .     A
N118   O120    1.298   .     A
C121   N122    1.157   .     T
O123   Cu129   1.965   .     S
O123   C125    1.296   .     A
O124   C125    1.296   .     A
O124   Cu130   1.965   .     S
C125   C167    1.451   .     S
O126   Cu129   1.958   .     S
O126   C128    1.305   .     A
O127   Cu130   1.942   .     S
O127   C128    1.299   .     A
C128   C152    1.477   .     S
Cu129  O133    1.942   .     S
Cu129  Cu130   2.693   .     S
Cu129  O131    1.965   .     S
Cu129  N172    2.023   .     S
Cu130  N175    2.023   .     S
Cu130  O134    1.958   .     S
Cu130  O132    1.965   .     S
O131   C135    1.297   .     A
O132   C135    1.298   .     A
O133   C136    1.298   .     A
O134   C136    1.304   .     A
C135   C162    1.456   .     S
C136   C140    1.472   .     S
C137   C151    1.389   .     A
C137   H688    1.082   1_554 S
C137   C696    1.408   1_554 S
H138   C151    1.073   .     S
H139   C686    1.082   .     S
C140   C151    1.393   .     A
C140   C150    1.397   .     A
C141   C142    1.386   .     A
C141   H154    1.083   .     S
C141   C152    1.402   .     A
C142   C692    1.390   .     S
C142   H705    1.083   .     S
C143   H155    1.076   .     S
C143   C691    1.390   1_554 S
C143   C693    1.419   1_554 S
C144   C145    1.418   .     A
C144   C692    1.419   .     S
C144   C695    1.426   .     S
C145   C149    1.410   .     A
C145   C152    1.423   .     A
C146   C150    1.406   .     A
C146   C693    1.426   1_554 S
C146   C696    1.425   1_554 S
C147   C148    1.404   .     A
C147   C686    1.408   .     S
C147   C695    1.425   .     S
C148   C149    1.388   .     A
C148   C182    1.448   .     S
C149   H157    1.081   .     S
C150   H153    1.074   .     S
H156   C691    1.083   1_554 S
C158   C167    1.401   .     A
C158   H159    1.083   .     S
C158   C343    1.384   .     S
C160   C162    1.401   .     A
C160   H161    1.079   .     S
C160   C524    1.384   1_545 S
C162   C163    1.401   .     A
C163   H164    1.079   .     S
C163   C531    1.384   1_545 S
C165   H166    1.083   .     S
C165   C167    1.400   .     A
C165   C346    1.384   .     S
C168   N175    1.368   .     A
C168   H169    1.082   .     S
C168   C48     1.421   1_655 S
C170   H171    1.082   .     S
C170   N172    1.368   .     A
N172   C173    1.372   .     A
C173   N176    1.430   .     S
C174   N179    1.428   .     S
C174   N175    1.373   .     A
C174   C51     1.420   1_655 S
N176   O178    1.299   .     A
N176   O177    1.299   .     A
N179   O180    1.298   .     A
N179   O181    1.298   .     A
C182   N183    1.157   .     T
O184   Cu190   1.965   .     S
O184   C186    1.296   .     A
O185   C186    1.296   .     A
O185   Cu191   1.965   .     S
C186   C228    1.451   .     S
O187   Cu190   1.958   .     S
O187   C189    1.305   .     A
O188   Cu191   1.942   .     S
O188   C189    1.299   .     A
C189   C213    1.477   .     S
Cu190  O194    1.942   .     S
Cu190  Cu191   2.693   .     S
Cu190  O192    1.965   .     S
Cu190  N233    2.023   .     S
Cu191  N236    2.023   .     S
Cu191  O195    1.958   .     S
Cu191  O193    1.965   .     S
O192   C196    1.297   .     A
O193   C196    1.298   .     A
O194   C197    1.298   .     A
O195   C197    1.304   .     A
C196   C223    1.456   .     S
C197   C201    1.472   .     S
C198   C212    1.389   .     A
C198   H749    1.082   1_554 S
C198   C757    1.408   1_554 S
H199   C212    1.073   .     S
H200   C747    1.082   .     S
C201   C212    1.393   .     A
C201   C211    1.397   .     A
C202   C203    1.386   .     A
C202   H215    1.083   .     S
C202   C213    1.402   .     A
C203   C753    1.390   .     S
C203   H766    1.083   .     S
C204   H216    1.076   .     S
C204   C752    1.390   1_554 S
C204   C754    1.419   1_554 S
C205   C206    1.418   .     A
C205   C753    1.419   .     S
C205   C756    1.426   .     S
C206   C210    1.410   .     A
C206   C213    1.423   .     A
C207   C211    1.406   .     A
C207   C754    1.426   1_554 S
C207   C757    1.425   1_554 S
C208   C209    1.404   .     A
C208   C747    1.408   .     S
C208   C756    1.425   .     S
C209   C210    1.388   .     A
C209   C243    1.448   .     S
C210   H218    1.081   .     S
C211   H214    1.074   .     S
H217   C752    1.083   1_554 S
C219   C228    1.401   .     A
C219   H220    1.083   .     S
C219   C404    1.384   .     S
C221   C223    1.401   .     A
C221   H222    1.079   .     S
C223   C224    1.401   .     A
C224   H225    1.079   .     S
C226   H227    1.083   .     S
C226   C228    1.400   .     A
C226   C407    1.384   .     S
C229   N236    1.368   .     A
C229   H230    1.082   .     S
C229   C292    1.421   .     S
C231   H232    1.082   .     S
C231   N233    1.368   .     A
C231   C351    1.421   1_455 S
N233   C234    1.372   .     A
C234   N237    1.430   .     S
C234   C357    1.420   1_455 S
C235   N240    1.428   .     S
C235   N236    1.373   .     A
C235   C295    1.420   .     S
N237   O239    1.299   .     A
N237   O238    1.299   .     A
N240   O241    1.298   .     A
N240   O242    1.298   .     A
C243   N244    1.157   .     T
O245   Cu251   1.965   .     S
O245   C247    1.296   .     A
O246   C247    1.296   .     A
O246   Cu252   1.965   .     S
C247   C289    1.451   .     S
O248   Cu251   1.958   .     S
O248   C250    1.305   .     A
O249   Cu252   1.942   .     S
O249   C250    1.299   .     A
C250   C274    1.477   .     S
Cu251  O255    1.942   .     S
Cu251  Cu252   2.693   .     S
Cu251  O253    1.965   .     S
Cu251  N294    2.023   .     S
Cu252  N297    2.023   .     S
Cu252  O256    1.958   .     S
Cu252  O254    1.965   .     S
O253   C257    1.297   .     A
O254   C257    1.298   .     A
O255   C258    1.298   .     A
O256   C258    1.304   .     A
C257   C284    1.456   .     S
C258   C262    1.472   .     S
C259   C273    1.389   .     A
C259   H810    1.082   1_554 S
C259   C818    1.408   1_554 S
H260   C273    1.073   .     S
H261   C808    1.082   .     S
C262   C273    1.393   .     A
C262   C272    1.397   .     A
C263   C264    1.386   .     A
C263   H276    1.083   .     S
C263   C274    1.402   .     A
C264   C814    1.390   .     S
C264   H827    1.083   .     S
C265   H277    1.076   .     S
C265   C813    1.390   1_554 S
C265   C815    1.419   1_554 S
C266   C267    1.418   .     A
C266   C814    1.419   .     S
C266   C817    1.426   .     S
C267   C271    1.410   .     A
C267   C274    1.423   .     A
C268   C272    1.406   .     A
C268   C815    1.426   1_554 S
C268   C818    1.425   1_554 S
C269   C270    1.404   .     A
C269   C808    1.408   .     S
C269   C817    1.425   .     S
C270   C271    1.388   .     A
C270   C304    1.448   .     S
C271   H279    1.081   .     S
C272   H275    1.074   .     S
H278   C813    1.083   1_554 S
C280   C289    1.401   .     A
C280   H281    1.083   .     S
C280   C465    1.384   .     S
C282   C284    1.401   .     A
C282   H283    1.079   .     S
C284   C285    1.401   .     A
C285   H286    1.079   .     S
C287   H288    1.083   .     S
C287   C289    1.400   .     A
C287   C468    1.384   .     S
C290   N297    1.368   .     A
C290   H291    1.082   .     S
C290   C353    1.421   .     S
C292   H293    1.082   .     S
C292   N294    1.368   .     A
N294   C295    1.372   .     A
C295   N298    1.430   .     S
C296   N301    1.428   .     S
C296   N297    1.373   .     A
C296   C356    1.420   .     S
N298   O300    1.299   .     A
N298   O299    1.299   .     A
N301   O302    1.298   .     A
N301   O303    1.298   .     A
C304   N305    1.157   .     T
O306   Cu312   1.965   .     S
O306   C308    1.296   .     A
O307   C308    1.296   .     A
O307   Cu313   1.965   .     S
C308   C350    1.451   .     S
O309   Cu312   1.958   .     S
O309   C311    1.305   .     A
O310   Cu313   1.942   .     S
O310   C311    1.299   .     A
C311   C335    1.477   .     S
Cu312  O316    1.942   .     S
Cu312  Cu313   2.693   .     S
Cu312  O314    1.965   .     S
Cu312  N355    2.023   .     S
Cu313  N358    2.023   .     S
Cu313  O317    1.958   .     S
Cu313  O315    1.965   .     S
O314   C318    1.297   .     A
O315   C318    1.298   .     A
O316   C319    1.298   .     A
O317   C319    1.304   .     A
C318   C345    1.456   .     S
C319   C323    1.472   .     S
C320   C334    1.389   .     A
C320   H871    1.082   1_554 S
C320   C879    1.408   1_554 S
H321   C334    1.073   .     S
H322   C869    1.082   .     S
C323   C334    1.393   .     A
C323   C333    1.397   .     A
C324   C325    1.386   .     A
C324   H337    1.083   .     S
C324   C335    1.402   .     A
C325   C875    1.390   .     S
C325   H888    1.083   .     S
C326   H338    1.076   .     S
C326   C874    1.390   1_554 S
C326   C876    1.419   1_554 S
C327   C328    1.418   .     A
C327   C875    1.419   .     S
C327   C878    1.426   .     S
C328   C332    1.410   .     A
C328   C335    1.423   .     A
C329   C333    1.406   .     A
C329   C876    1.426   1_554 S
C329   C879    1.425   1_554 S
C330   C331    1.404   .     A
C330   C869    1.408   .     S
C330   C878    1.425   .     S
C331   C332    1.388   .     A
C331   C365    1.448   .     S
C332   H340    1.081   .     S
C333   H336    1.074   .     S
H339   C874    1.083   1_554 S
C341   C350    1.401   .     A
C341   H342    1.083   .     S
C341   C526    1.384   .     S
C343   C345    1.401   .     A
C343   H344    1.079   .     S
C345   C346    1.401   .     A
C346   H347    1.079   .     S
C348   H349    1.083   .     S
C348   C350    1.400   .     A
C348   C529    1.384   .     S
C351   N358    1.368   .     A
C351   H352    1.082   .     S
C351   C231    1.421   1_655 S
C353   H354    1.082   .     S
C353   N355    1.368   .     A
N355   C356    1.372   .     A
C356   N359    1.430   .     S
C357   N362    1.428   .     S
C357   N358    1.373   .     A
C357   C234    1.420   1_655 S
N359   O361    1.299   .     A
N359   O360    1.299   .     A
N362   O363    1.298   .     A
N362   O364    1.298   .     A
C365   N366    1.157   .     T
O367   Cu373   1.965   .     S
O367   C369    1.296   .     A
O368   C369    1.296   .     A
O368   Cu374   1.965   .     S
C369   C411    1.451   .     S
O370   Cu373   1.958   .     S
O370   C372    1.305   .     A
O371   Cu374   1.942   .     S
O371   C372    1.299   .     A
C372   C396    1.477   .     S
Cu373  O377    1.942   .     S
Cu373  Cu374   2.693   .     S
Cu373  O375    1.965   .     S
Cu373  N416    2.023   .     S
Cu374  N419    2.023   .     S
Cu374  O378    1.958   .     S
Cu374  O376    1.965   .     S
O375   C379    1.297   .     A
O376   C379    1.298   .     A
O377   C380    1.298   .     A
O378   C380    1.304   .     A
C379   C406    1.456   .     S
C380   C384    1.472   .     S
C381   C395    1.389   .     A
C381   H932    1.082   1_554 S
C381   C940    1.408   1_554 S
H382   C395    1.073   .     S
H383   C930    1.082   .     S
C384   C395    1.393   .     A
C384   C394    1.397   .     A
C385   C386    1.386   .     A
C385   H398    1.083   .     S
C385   C396    1.402   .     A
C386   C936    1.390   .     S
C386   H949    1.083   .     S
C387   H399    1.076   .     S
C387   C935    1.390   1_554 S
C387   C937    1.419   1_554 S
C388   C389    1.418   .     A
C388   C936    1.419   .     S
C388   C939    1.426   .     S
C389   C393    1.410   .     A
C389   C396    1.423   .     A
C390   C394    1.406   .     A
C390   C937    1.426   1_554 S
C390   C940    1.425   1_554 S
C391   C392    1.404   .     A
C391   C930    1.408   .     S
C391   C939    1.425   .     S
C392   C393    1.388   .     A
C392   C426    1.448   .     S
C393   H401    1.081   .     S
C394   H397    1.074   .     S
H400   C935    1.083   1_554 S
C402   C411    1.401   .     A
C402   H403    1.083   .     S
C402   C38     1.384   1_565 S
C404   C406    1.401   .     A
C404   H405    1.079   .     S
C406   C407    1.401   .     A
C407   H408    1.079   .     S
C409   H410    1.083   .     S
C409   C411    1.400   .     A
C409   C41     1.384   1_565 S
C412   N419    1.368   .     A
C412   H413    1.082   .     S
C412   C475    1.421   .     S
C414   H415    1.082   .     S
C414   N416    1.368   .     A
C414   C534    1.421   1_455 S
N416   C417    1.372   .     A
C417   N420    1.430   .     S
C417   C540    1.420   1_455 S
C418   N423    1.428   .     S
C418   N419    1.373   .     A
C418   C478    1.420   .     S
N420   O422    1.299   .     A
N420   O421    1.299   .     A
N423   O424    1.298   .     A
N423   O425    1.298   .     A
C426   N427    1.157   .     T
O428   Cu434   1.965   .     S
O428   C430    1.296   .     A
O429   C430    1.296   .     A
O429   Cu435   1.965   .     S
C430   C472    1.451   .     S
O431   Cu434   1.958   .     S
O431   C433    1.305   .     A
O432   Cu435   1.942   .     S
O432   C433    1.299   .     A
C433   C457    1.477   .     S
Cu434  O438    1.942   .     S
Cu434  Cu435   2.693   .     S
Cu434  O436    1.965   .     S
Cu434  N477    2.023   .     S
Cu435  N480    2.023   .     S
Cu435  O439    1.958   .     S
Cu435  O437    1.965   .     S
O436   C440    1.297   .     A
O437   C440    1.298   .     A
O438   C441    1.298   .     A
O439   C441    1.304   .     A
C440   C467    1.456   .     S
C441   C445    1.472   .     S
C442   C456    1.389   .     A
C442   H993    1.082   1_554 S
C442   C1001   1.408   1_554 S
H443   C456    1.073   .     S
H444   C991    1.082   .     S
C445   C456    1.393   .     A
C445   C455    1.397   .     A
C446   C447    1.386   .     A
C446   H459    1.083   .     S
C446   C457    1.402   .     A
C447   C997    1.390   .     S
C447   H1010   1.083   .     S
C448   H460    1.076   .     S
C448   C996    1.390   1_554 S
C448   C998    1.419   1_554 S
C449   C450    1.418   .     A
C449   C997    1.419   .     S
C449   C1000   1.426   .     S
C450   C454    1.410   .     A
C450   C457    1.423   .     A
C451   C455    1.406   .     A
C451   C998    1.426   1_554 S
C451   C1001   1.425   1_554 S
C452   C453    1.404   .     A
C452   C991    1.408   .     S
C452   C1000   1.425   .     S
C453   C454    1.388   .     A
C453   C487    1.448   .     S
C454   H462    1.081   .     S
C455   H458    1.074   .     S
H461   C996    1.083   1_554 S
C463   C472    1.401   .     A
C463   H464    1.083   .     S
C463   C99     1.384   1_565 S
C465   C467    1.401   .     A
C465   H466    1.079   .     S
C467   C468    1.401   .     A
C468   H469    1.079   .     S
C470   H471    1.083   .     S
C470   C472    1.400   .     A
C470   C102    1.384   1_565 S
C473   N480    1.368   .     A
C473   H474    1.082   .     S
C473   C536    1.421   .     S
C475   H476    1.082   .     S
C475   N477    1.368   .     A
N477   C478    1.372   .     A
C478   N481    1.430   .     S
C479   N484    1.428   .     S
C479   N480    1.373   .     A
C479   C539    1.420   .     S
N481   O483    1.299   .     A
N481   O482    1.299   .     A
N484   O485    1.298   .     A
N484   O486    1.298   .     A
C487   N488    1.157   .     T
O489   Cu495   1.965   .     S
O489   C491    1.296   .     A
O490   C491    1.296   .     A
O490   Cu496   1.965   .     S
C491   C533    1.451   .     S
O492   Cu495   1.958   .     S
O492   C494    1.305   .     A
O493   Cu496   1.942   .     S
O493   C494    1.299   .     A
C494   C518    1.477   .     S
Cu495  O499    1.942   .     S
Cu495  Cu496   2.693   .     S
Cu495  O497    1.965   .     S
Cu495  N538    2.023   .     S
Cu496  N541    2.023   .     S
Cu496  O500    1.958   .     S
Cu496  O498    1.965   .     S
O497   C501    1.297   .     A
O498   C501    1.298   .     A
O499   C502    1.298   .     A
O500   C502    1.304   .     A
C501   C528    1.456   .     S
C502   C506    1.472   .     S
C503   C517    1.389   .     A
C503   H1054   1.082   1_554 S
C503   C1062   1.408   1_554 S
H504   C517    1.073   .     S
H505   C1052   1.082   .     S
C506   C517    1.393   .     A
C506   C516    1.397   .     A
C507   C508    1.386   .     A
C507   H520    1.083   .     S
C507   C518    1.402   .     A
C508   C1058   1.390   .     S
C508   H1071   1.083   .     S
C509   H521    1.076   .     S
C509   C1057   1.390   1_554 S
C509   C1059   1.419   1_554 S
C510   C511    1.418   .     A
C510   C1058   1.419   .     S
C510   C1061   1.426   .     S
C511   C515    1.410   .     A
C511   C518    1.423   .     A
C512   C516    1.406   .     A
C512   C1059   1.426   1_554 S
C512   C1062   1.425   1_554 S
C513   C514    1.404   .     A
C513   C1052   1.408   .     S
C513   C1061   1.425   .     S
C514   C515    1.388   .     A
C514   C548    1.448   .     S
C515   H523    1.081   .     S
C516   H519    1.074   .     S
H522   C1057   1.083   1_554 S
C524   C533    1.401   .     A
C524   H525    1.083   .     S
C524   C160    1.384   1_565 S
C526   C528    1.401   .     A
C526   H527    1.079   .     S
C528   C529    1.401   .     A
C529   H530    1.079   .     S
C531   H532    1.083   .     S
C531   C533    1.400   .     A
C531   C163    1.384   1_565 S
C534   N541    1.368   .     A
C534   H535    1.082   .     S
C534   C414    1.421   1_655 S
C536   H537    1.082   .     S
C536   N538    1.368   .     A
N538   C539    1.372   .     A
C539   N542    1.430   .     S
C540   N545    1.428   .     S
C540   N541    1.373   .     A
C540   C417    1.420   1_655 S
N542   O544    1.299   .     A
N542   O543    1.299   .     A
N545   O546    1.298   .     A
N545   O547    1.298   .     A
C548   N549    1.157   .     T
O550   Cu556   1.965   .     S
O550   C552    1.296   .     A
O551   C552    1.296   .     A
O551   Cu557   1.965   .     S
C552   C594    1.451   .     S
O553   Cu556   1.958   .     S
O553   C555    1.305   .     A
O554   Cu557   1.942   .     S
O554   C555    1.299   .     A
C555   C579    1.477   .     S
Cu556  O560    1.942   .     S
Cu556  Cu557   2.693   .     S
Cu556  O558    1.965   .     S
Cu556  N599    2.023   .     S
Cu557  N602    2.023   .     S
Cu557  O561    1.958   .     S
Cu557  O559    1.965   .     S
O558   C562    1.297   .     A
O559   C562    1.298   .     A
O560   C563    1.298   .     A
O561   C563    1.304   .     A
C562   C589    1.456   .     S
C563   C567    1.472   .     S
C564   C578    1.389   .     A
H565   C578    1.073   .     S
H566   C15     1.082   1_556 S
C567   C578    1.393   .     A
C567   C577    1.397   .     A
C568   C569    1.386   .     A
C568   H581    1.083   .     S
C568   C579    1.402   .     A
C569   C21     1.390   1_556 S
C569   H34     1.083   1_556 S
C570   H582    1.076   .     S
C571   C572    1.418   .     A
C571   C21     1.419   1_556 S
C571   C24     1.426   1_556 S
C572   C576    1.410   .     A
C572   C579    1.423   .     A
C573   C577    1.406   .     A
C574   C575    1.404   .     A
C574   C15     1.408   1_556 S
C574   C24     1.425   1_556 S
C575   C576    1.388   .     A
C575   C609    1.448   .     S
C576   H584    1.081   .     S
C577   H580    1.074   .     S
C585   C594    1.401   .     A
C585   H586    1.083   .     S
C585   C770    1.384   .     S
C587   C589    1.401   .     A
C587   H588    1.079   .     S
C587   C951    1.384   1_545 S
C589   C590    1.401   .     A
C590   H591    1.079   .     S
C590   C958    1.384   1_545 S
C592   H593    1.083   .     S
C592   C594    1.400   .     A
C592   C773    1.384   .     S
C595   N602    1.368   .     A
C595   H596    1.082   .     S
C595   C658    1.421   .     S
C597   H598    1.082   .     S
C597   N599    1.368   .     A
C597   C717    1.421   1_455 S
N599   C600    1.372   .     A
C600   N603    1.430   .     S
C600   C723    1.420   1_455 S
C601   N606    1.428   .     S
C601   N602    1.373   .     A
C601   C661    1.420   .     S
N603   O605    1.299   .     A
N603   O604    1.299   .     A
N606   O607    1.298   .     A
N606   O608    1.298   .     A
C609   N610    1.157   .     T
O611   Cu617   1.965   .     S
O611   C613    1.296   .     A
O612   C613    1.296   .     A
O612   Cu618   1.965   .     S
C613   C655    1.451   .     S
O614   Cu617   1.958   .     S
O614   C616    1.305   .     A
O615   Cu618   1.942   .     S
O615   C616    1.299   .     A
C616   C640    1.477   .     S
Cu617  O621    1.942   .     S
Cu617  Cu618   2.693   .     S
Cu617  O619    1.965   .     S
Cu617  N660    2.023   .     S
Cu618  N663    2.023   .     S
Cu618  O622    1.958   .     S
Cu618  O620    1.965   .     S
O619   C623    1.297   .     A
O620   C623    1.298   .     A
O621   C624    1.298   .     A
O622   C624    1.304   .     A
C623   C650    1.456   .     S
C624   C628    1.472   .     S
C625   C639    1.389   .     A
H626   C639    1.073   .     S
H627   C76     1.082   1_556 S
C628   C639    1.393   .     A
C628   C638    1.397   .     A
C629   C630    1.386   .     A
C629   H642    1.083   .     S
C629   C640    1.402   .     A
C630   C82     1.390   1_556 S
C630   H95     1.083   1_556 S
C631   H643    1.076   .     S
C632   C633    1.418   .     A
C632   C82     1.419   1_556 S
C632   C85     1.426   1_556 S
C633   C637    1.410   .     A
C633   C640    1.423   .     A
C634   C638    1.406   .     A
C635   C636    1.404   .     A
C635   C76     1.408   1_556 S
C635   C85     1.425   1_556 S
C636   C637    1.388   .     A
C636   C670    1.448   .     S
C637   H645    1.081   .     S
C638   H641    1.074   .     S
C646   C655    1.401   .     A
C646   H647    1.083   .     S
C646   C831    1.384   .     S
C648   C650    1.401   .     A
C648   H649    1.079   .     S
C648   C1012   1.384   1_545 S
C650   C651    1.401   .     A
C651   H652    1.079   .     S
C651   C1019   1.384   1_545 S
C653   H654    1.083   .     S
C653   C655    1.400   .     A
C653   C834    1.384   .     S
C656   N663    1.368   .     A
C656   H657    1.082   .     S
C656   C719    1.421   .     S
C658   H659    1.082   .     S
C658   N660    1.368   .     A
N660   C661    1.372   .     A
C661   N664    1.430   .     S
C662   N667    1.428   .     S
C662   N663    1.373   .     A
C662   C722    1.420   .     S
N664   O666    1.299   .     A
N664   O665    1.299   .     A
N667   O668    1.298   .     A
N667   O669    1.298   .     A
C670   N671    1.157   .     T
O672   Cu678   1.965   .     S
O672   C674    1.296   .     A
O673   C674    1.296   .     A
O673   Cu679   1.965   .     S
C674   C716    1.451   .     S
O675   Cu678   1.958   .     S
O675   C677    1.305   .     A
O676   Cu679   1.942   .     S
O676   C677    1.299   .     A
C677   C701    1.477   .     S
Cu678  O682    1.942   .     S
Cu678  Cu679   2.693   .     S
Cu678  O680    1.965   .     S
Cu678  N721    2.023   .     S
Cu679  N724    2.023   .     S
Cu679  O683    1.958   .     S
Cu679  O681    1.965   .     S
O680   C684    1.297   .     A
O681   C684    1.298   .     A
O682   C685    1.298   .     A
O683   C685    1.304   .     A
C684   C711    1.456   .     S
C685   C689    1.472   .     S
C686   C700    1.389   .     A
H687   C700    1.073   .     S
H688   C137    1.082   1_556 S
C689   C700    1.393   .     A
C689   C699    1.397   .     A
C690   C691    1.386   .     A
C690   H703    1.083   .     S
C690   C701    1.402   .     A
C691   C143    1.390   1_556 S
C691   H156    1.083   1_556 S
C692   H704    1.076   .     S
C693   C694    1.418   .     A
C693   C143    1.419   1_556 S
C693   C146    1.426   1_556 S
C694   C698    1.410   .     A
C694   C701    1.423   .     A
C695   C699    1.406   .     A
C696   C697    1.404   .     A
C696   C137    1.408   1_556 S
C696   C146    1.425   1_556 S
C697   C698    1.388   .     A
C697   C731    1.448   .     S
C698   H706    1.081   .     S
C699   H702    1.074   .     S
C707   C716    1.401   .     A
C707   H708    1.083   .     S
C707   C892    1.384   .     S
C709   C711    1.401   .     A
C709   H710    1.079   .     S
C709   C1073   1.384   1_545 S
C711   C712    1.401   .     A
C712   H713    1.079   .     S
C712   C1080   1.384   1_545 S
C714   H715    1.083   .     S
C714   C716    1.400   .     A
C714   C895    1.384   .     S
C717   N724    1.368   .     A
C717   H718    1.082   .     S
C717   C597    1.421   1_655 S
C719   H720    1.082   .     S
C719   N721    1.368   .     A
N721   C722    1.372   .     A
C722   N725    1.430   .     S
C723   N728    1.428   .     S
C723   N724    1.373   .     A
C723   C600    1.420   1_655 S
N725   O727    1.299   .     A
N725   O726    1.299   .     A
N728   O729    1.298   .     A
N728   O730    1.298   .     A
C731   N732    1.157   .     T
O733   Cu739   1.965   .     S
O733   C735    1.296   .     A
O734   C735    1.296   .     A
O734   Cu740   1.965   .     S
C735   C777    1.451   .     S
O736   Cu739   1.958   .     S
O736   C738    1.305   .     A
O737   Cu740   1.942   .     S
O737   C738    1.299   .     A
C738   C762    1.477   .     S
Cu739  O743    1.942   .     S
Cu739  Cu740   2.693   .     S
Cu739  O741    1.965   .     S
Cu739  N782    2.023   .     S
Cu740  N785    2.023   .     S
Cu740  O744    1.958   .     S
Cu740  O742    1.965   .     S
O741   C745    1.297   .     A
O742   C745    1.298   .     A
O743   C746    1.298   .     A
O744   C746    1.304   .     A
C745   C772    1.456   .     S
C746   C750    1.472   .     S
C747   C761    1.389   .     A
H748   C761    1.073   .     S
H749   C198    1.082   1_556 S
C750   C761    1.393   .     A
C750   C760    1.397   .     A
C751   C752    1.386   .     A
C751   H764    1.083   .     S
C751   C762    1.402   .     A
C752   C204    1.390   1_556 S
C752   H217    1.083   1_556 S
C753   H765    1.076   .     S
C754   C755    1.418   .     A
C754   C204    1.419   1_556 S
C754   C207    1.426   1_556 S
C755   C759    1.410   .     A
C755   C762    1.423   .     A
C756   C760    1.406   .     A
C757   C758    1.404   .     A
C757   C198    1.408   1_556 S
C757   C207    1.425   1_556 S
C758   C759    1.388   .     A
C758   C792    1.448   .     S
C759   H767    1.081   .     S
C760   H763    1.074   .     S
C768   C777    1.401   .     A
C768   H769    1.083   .     S
C768   C953    1.384   .     S
C770   C772    1.401   .     A
C770   H771    1.079   .     S
C772   C773    1.401   .     A
C773   H774    1.079   .     S
C775   H776    1.083   .     S
C775   C777    1.400   .     A
C775   C956    1.384   .     S
C778   N785    1.368   .     A
C778   H779    1.082   .     S
C778   C841    1.421   .     S
C780   H781    1.082   .     S
C780   N782    1.368   .     A
C780   C900    1.421   1_455 S
N782   C783    1.372   .     A
C783   N786    1.430   .     S
C783   C906    1.420   1_455 S
C784   N789    1.428   .     S
C784   N785    1.373   .     A
C784   C844    1.420   .     S
N786   O788    1.299   .     A
N786   O787    1.299   .     A
N789   O790    1.298   .     A
N789   O791    1.298   .     A
C792   N793    1.157   .     T
O794   Cu800   1.965   .     S
O794   C796    1.296   .     A
O795   C796    1.296   .     A
O795   Cu801   1.965   .     S
C796   C838    1.451   .     S
O797   Cu800   1.958   .     S
O797   C799    1.305   .     A
O798   Cu801   1.942   .     S
O798   C799    1.299   .     A
C799   C823    1.477   .     S
Cu800  O804    1.942   .     S
Cu800  Cu801   2.693   .     S
Cu800  O802    1.965   .     S
Cu800  N843    2.023   .     S
Cu801  N846    2.023   .     S
Cu801  O805    1.958   .     S
Cu801  O803    1.965   .     S
O802   C806    1.297   .     A
O803   C806    1.298   .     A
O804   C807    1.298   .     A
O805   C807    1.304   .     A
C806   C833    1.456   .     S
C807   C811    1.472   .     S
C808   C822    1.389   .     A
H809   C822    1.073   .     S
H810   C259    1.082   1_556 S
C811   C822    1.393   .     A
C811   C821    1.397   .     A
C812   C813    1.386   .     A
C812   H825    1.083   .     S
C812   C823    1.402   .     A
C813   C265    1.390   1_556 S
C813   H278    1.083   1_556 S
C814   H826    1.076   .     S
C815   C816    1.418   .     A
C815   C265    1.419   1_556 S
C815   C268    1.426   1_556 S
C816   C820    1.410   .     A
C816   C823    1.423   .     A
C817   C821    1.406   .     A
C818   C819    1.404   .     A
C818   C259    1.408   1_556 S
C818   C268    1.425   1_556 S
C819   C820    1.388   .     A
C819   C853    1.448   .     S
C820   H828    1.081   .     S
C821   H824    1.074   .     S
C829   C838    1.401   .     A
C829   H830    1.083   .     S
C829   C1014   1.384   .     S
C831   C833    1.401   .     A
C831   H832    1.079   .     S
C833   C834    1.401   .     A
C834   H835    1.079   .     S
C836   H837    1.083   .     S
C836   C838    1.400   .     A
C836   C1017   1.384   .     S
C839   N846    1.368   .     A
C839   H840    1.082   .     S
C839   C902    1.421   .     S
C841   H842    1.082   .     S
C841   N843    1.368   .     A
N843   C844    1.372   .     A
C844   N847    1.430   .     S
C845   N850    1.428   .     S
C845   N846    1.373   .     A
C845   C905    1.420   .     S
N847   O849    1.299   .     A
N847   O848    1.299   .     A
N850   O851    1.298   .     A
N850   O852    1.298   .     A
C853   N854    1.157   .     T
O855   Cu861   1.965   .     S
O855   C857    1.296   .     A
O856   C857    1.296   .     A
O856   Cu862   1.965   .     S
C857   C899    1.451   .     S
O858   Cu861   1.958   .     S
O858   C860    1.305   .     A
O859   Cu862   1.942   .     S
O859   C860    1.299   .     A
C860   C884    1.477   .     S
Cu861  O865    1.942   .     S
Cu861  Cu862   2.693   .     S
Cu861  O863    1.965   .     S
Cu861  N904    2.023   .     S
Cu862  N907    2.023   .     S
Cu862  O866    1.958   .     S
Cu862  O864    1.965   .     S
O863   C867    1.297   .     A
O864   C867    1.298   .     A
O865   C868    1.298   .     A
O866   C868    1.304   .     A
C867   C894    1.456   .     S
C868   C872    1.472   .     S
C869   C883    1.389   .     A
H870   C883    1.073   .     S
H871   C320    1.082   1_556 S
C872   C883    1.393   .     A
C872   C882    1.397   .     A
C873   C874    1.386   .     A
C873   H886    1.083   .     S
C873   C884    1.402   .     A
C874   C326    1.390   1_556 S
C874   H339    1.083   1_556 S
C875   H887    1.076   .     S
C876   C877    1.418   .     A
C876   C326    1.419   1_556 S
C876   C329    1.426   1_556 S
C877   C881    1.410   .     A
C877   C884    1.423   .     A
C878   C882    1.406   .     A
C879   C880    1.404   .     A
C879   C320    1.408   1_556 S
C879   C329    1.425   1_556 S
C880   C881    1.388   .     A
C880   C914    1.448   .     S
C881   H889    1.081   .     S
C882   H885    1.074   .     S
C890   C899    1.401   .     A
C890   H891    1.083   .     S
C890   C1075   1.384   .     S
C892   C894    1.401   .     A
C892   H893    1.079   .     S
C894   C895    1.401   .     A
C895   H896    1.079   .     S
C897   H898    1.083   .     S
C897   C899    1.400   .     A
C897   C1078   1.384   .     S
C900   N907    1.368   .     A
C900   H901    1.082   .     S
C900   C780    1.421   1_655 S
C902   H903    1.082   .     S
C902   N904    1.368   .     A
N904   C905    1.372   .     A
C905   N908    1.430   .     S
C906   N911    1.428   .     S
C906   N907    1.373   .     A
C906   C783    1.420   1_655 S
N908   O910    1.299   .     A
N908   O909    1.299   .     A
N911   O912    1.298   .     A
N911   O913    1.298   .     A
C914   N915    1.157   .     T
O916   Cu922   1.965   .     S
O916   C918    1.296   .     A
O917   C918    1.296   .     A
O917   Cu923   1.965   .     S
C918   C960    1.451   .     S
O919   Cu922   1.958   .     S
O919   C921    1.305   .     A
O920   Cu923   1.942   .     S
O920   C921    1.299   .     A
C921   C945    1.477   .     S
Cu922  O926    1.942   .     S
Cu922  Cu923   2.693   .     S
Cu922  O924    1.965   .     S
Cu922  N965    2.023   .     S
Cu923  N968    2.023   .     S
Cu923  O927    1.958   .     S
Cu923  O925    1.965   .     S
O924   C928    1.297   .     A
O925   C928    1.298   .     A
O926   C929    1.298   .     A
O927   C929    1.304   .     A
C928   C955    1.456   .     S
C929   C933    1.472   .     S
C930   C944    1.389   .     A
H931   C944    1.073   .     S
H932   C381    1.082   1_556 S
C933   C944    1.393   .     A
C933   C943    1.397   .     A
C934   C935    1.386   .     A
C934   H947    1.083   .     S
C934   C945    1.402   .     A
C935   C387    1.390   1_556 S
C935   H400    1.083   1_556 S
C936   H948    1.076   .     S
C937   C938    1.418   .     A
C937   C387    1.419   1_556 S
C937   C390    1.426   1_556 S
C938   C942    1.410   .     A
C938   C945    1.423   .     A
C939   C943    1.406   .     A
C940   C941    1.404   .     A
C940   C381    1.408   1_556 S
C940   C390    1.425   1_556 S
C941   C942    1.388   .     A
C941   C975    1.448   .     S
C942   H950    1.081   .     S
C943   H946    1.074   .     S
C951   C960    1.401   .     A
C951   H952    1.083   .     S
C951   C587    1.384   1_565 S
C953   C955    1.401   .     A
C953   H954    1.079   .     S
C955   C956    1.401   .     A
C956   H957    1.079   .     S
C958   H959    1.083   .     S
C958   C960    1.400   .     A
C958   C590    1.384   1_565 S
C961   N968    1.368   .     A
C961   H962    1.082   .     S
C961   C1024   1.421   .     S
C963   H964    1.082   .     S
C963   N965    1.368   .     A
C963   C1083   1.421   1_455 S
N965   C966    1.372   .     A
C966   N969    1.430   .     S
C966   C1089   1.420   1_455 S
C967   N972    1.428   .     S
C967   N968    1.373   .     A
C967   C1027   1.420   .     S
N969   O971    1.299   .     A
N969   O970    1.299   .     A
N972   O973    1.298   .     A
N972   O974    1.298   .     A
C975   N976    1.157   .     T
O977   Cu983   1.965   .     S
O977   C979    1.296   .     A
O978   C979    1.296   .     A
O978   Cu984   1.965   .     S
C979   C1021   1.451   .     S
O980   Cu983   1.958   .     S
O980   C982    1.305   .     A
O981   Cu984   1.942   .     S
O981   C982    1.299   .     A
C982   C1006   1.477   .     S
Cu983  O987    1.942   .     S
Cu983  Cu984   2.693   .     S
Cu983  O985    1.965   .     S
Cu983  N1026   2.023   .     S
Cu984  N1029   2.023   .     S
Cu984  O988    1.958   .     S
Cu984  O986    1.965   .     S
O985   C989    1.297   .     A
O986   C989    1.298   .     A
O987   C990    1.298   .     A
O988   C990    1.304   .     A
C989   C1016   1.456   .     S
C990   C994    1.472   .     S
C991   C1005   1.389   .     A
H992   C1005   1.073   .     S
H993   C442    1.082   1_556 S
C994   C1005   1.393   .     A
C994   C1004   1.397   .     A
C995   C996    1.386   .     A
C995   H1008   1.083   .     S
C995   C1006   1.402   .     A
C996   C448    1.390   1_556 S
C996   H461    1.083   1_556 S
C997   H1009   1.076   .     S
C998   C999    1.418   .     A
C998   C448    1.419   1_556 S
C998   C451    1.426   1_556 S
C999   C1003   1.410   .     A
C999   C1006   1.423   .     A
C1000  C1004   1.406   .     A
C1001  C1002   1.404   .     A
C1001  C442    1.408   1_556 S
C1001  C451    1.425   1_556 S
C1002  C1003   1.388   .     A
C1002  C1036   1.448   .     S
C1003  H1011   1.081   .     S
C1004  H1007   1.074   .     S
C1012  C1021   1.401   .     A
C1012  H1013   1.083   .     S
C1012  C648    1.384   1_565 S
C1014  C1016   1.401   .     A
C1014  H1015   1.079   .     S
C1016  C1017   1.401   .     A
C1017  H1018   1.079   .     S
C1019  H1020   1.083   .     S
C1019  C1021   1.400   .     A
C1019  C651    1.384   1_565 S
C1022  N1029   1.368   .     A
C1022  H1023   1.082   .     S
C1022  C1085   1.421   .     S
C1024  H1025   1.082   .     S
C1024  N1026   1.368   .     A
N1026  C1027   1.372   .     A
C1027  N1030   1.430   .     S
C1028  N1033   1.428   .     S
C1028  N1029   1.373   .     A
C1028  C1088   1.420   .     S
N1030  O1032   1.299   .     A
N1030  O1031   1.299   .     A
N1033  O1034   1.298   .     A
N1033  O1035   1.298   .     A
C1036  N1037   1.157   .     T
O1038  Cu1044  1.965   .     S
O1038  C1040   1.296   .     A
O1039  C1040   1.296   .     A
O1039  Cu1045  1.965   .     S
C1040  C1082   1.451   .     S
O1041  Cu1044  1.958   .     S
O1041  C1043   1.305   .     A
O1042  Cu1045  1.942   .     S
O1042  C1043   1.299   .     A
C1043  C1067   1.477   .     S
Cu1044 O1048   1.942   .     S
Cu1044 Cu1045  2.693   .     S
Cu1044 O1046   1.965   .     S
Cu1044 N1087   2.023   .     S
Cu1045 N1090   2.023   .     S
Cu1045 O1049   1.958   .     S
Cu1045 O1047   1.965   .     S
O1046  C1050   1.297   .     A
O1047  C1050   1.298   .     A
O1048  C1051   1.298   .     A
O1049  C1051   1.304   .     A
C1050  C1077   1.456   .     S
C1051  C1055   1.472   .     S
C1052  C1066   1.389   .     A
H1053  C1066   1.073   .     S
H1054  C503    1.082   1_556 S
C1055  C1066   1.393   .     A
C1055  C1065   1.397   .     A
C1056  C1057   1.386   .     A
C1056  H1069   1.083   .     S
C1056  C1067   1.402   .     A
C1057  C509    1.390   1_556 S
C1057  H522    1.083   1_556 S
C1058  H1070   1.076   .     S
C1059  C1060   1.418   .     A
C1059  C509    1.419   1_556 S
C1059  C512    1.426   1_556 S
C1060  C1064   1.410   .     A
C1060  C1067   1.423   .     A
C1061  C1065   1.406   .     A
C1062  C1063   1.404   .     A
C1062  C503    1.408   1_556 S
C1062  C512    1.425   1_556 S
C1063  C1064   1.388   .     A
C1063  C1097   1.448   .     S
C1064  H1072   1.081   .     S
C1065  H1068   1.074   .     S
C1073  C1082   1.401   .     A
C1073  H1074   1.083   .     S
C1073  C709    1.384   1_565 S
C1075  C1077   1.401   .     A
C1075  H1076   1.079   .     S
C1077  C1078   1.401   .     A
C1078  H1079   1.079   .     S
C1080  H1081   1.083   .     S
C1080  C1082   1.400   .     A
C1080  C712    1.384   1_565 S
C1083  N1090   1.368   .     A
C1083  H1084   1.082   .     S
C1083  C963    1.421   1_655 S
C1085  H1086   1.082   .     S
C1085  N1087   1.368   .     A
N1087  C1088   1.372   .     A
C1088  N1091   1.430   .     S
C1089  N1094   1.428   .     S
C1089  N1090   1.373   .     A
C1089  C966    1.420   1_655 S
N1091  O1093   1.299   .     A
N1091  O1092   1.299   .     A
N1094  O1095   1.298   .     A
N1094  O1096   1.298   .     A
C1097  N1098   1.157   .     T
