data_str_m2_o2_o5_pcu_sym.67
_audit_creation_date              2020-01-03
_audit_creation_method            'Materials Studio'
_symmetry_space_group_name_H-M    'P1'
_symmetry_Int_Tables_number       1
_symmetry_cell_setting            triclinic
loop_
_symmetry_equiv_pos_as_xyz
  x,y,z
_cell_length_a                    30.2283
_cell_length_b                    27.9930
_cell_length_c                    27.2301
_cell_angle_alpha                 90.0003
_cell_angle_beta                  92.0088
_cell_angle_gamma                 90.0006
loop_
_atom_site_label
_atom_site_type_symbol
_atom_site_fract_x
_atom_site_fract_y
_atom_site_fract_z
_atom_site_U_iso_or_equiv
_atom_site_adp_type
_atom_site_occupancy
C1     C     0.16509   0.24998   0.16654   0.00000  Uiso   1.00
C2     C     0.28811   0.44620   0.18171   0.00000  Uiso   1.00
C3     C     0.24990   0.25000   0.07361   0.00000  Uiso   1.00
C4     C     0.25010   0.25000   0.25973   0.00000  Uiso   1.00
C5     C     0.25000   0.02726   0.16667   0.00000  Uiso   1.00
C6     C     0.25000   0.47278   0.16667   0.00000  Uiso   1.00
C7     C     0.24996   0.24999   0.02186   0.00000  Uiso   1.00
C8     C     0.25004   0.24999   0.31147   0.00000  Uiso   1.00
C9     C     0.04687   0.28476   0.13948   0.00000  Uiso   1.00
C10    C     0.45117   0.21424   0.13982   0.00000  Uiso   1.00
C11    C     0.45313   0.28479   0.19382   0.00000  Uiso   1.00
C12    C     0.33491   0.24998   0.16679   0.00000  Uiso   1.00
C13    C     0.04883   0.21427   0.19357   0.00000  Uiso   1.00
C14    C     0.09292   0.28502   0.14083   0.00000  Uiso   1.00
C15    C     0.40520   0.21437   0.14120   0.00000  Uiso   1.00
C16    C     0.40708   0.28504   0.19247   0.00000  Uiso   1.00
C17    C     0.09480   0.21440   0.19218   0.00000  Uiso   1.00
C18    C     0.11688   0.24985   0.16656   0.00000  Uiso   1.00
C19    C     0.38312   0.24985   0.16678   0.00000  Uiso   1.00
C20    C     0.02433   0.24945   0.16657   0.00000  Uiso   1.00
C21    C     0.47567   0.24945   0.16678   0.00000  Uiso   1.00
C22    C     0.26723   0.10397   0.20636   0.00000  Uiso   1.00
C23    C     0.21439   0.39606   0.14722   0.00000  Uiso   1.00
C24    C     0.23276   0.10397   0.12698   0.00000  Uiso   1.00
C25    C     0.28561   0.39606   0.18611   0.00000  Uiso   1.00
C26    C     0.26323   0.05384   0.20911   0.00000  Uiso   1.00
C27    C     0.21188   0.44620   0.15162   0.00000  Uiso   1.00
C28    C     0.23677   0.05384   0.12423   0.00000  Uiso   1.00
Cu29   Cu    0.25000   0.29822   0.16667   0.00000  Uiso   1.00
Cu30   Cu    0.25000   0.20179   0.16667   0.00000  Uiso   1.00
H31    H     0.11001   0.31210   0.12036   0.00000  Uiso   1.00
H32    H     0.00232   0.18548   0.10893   0.00000  Uiso   1.00
H33    H     0.00640   0.31290   0.22499   0.00000  Uiso   1.00
H34    H     0.49769   0.18555   0.22449   0.00000  Uiso   1.00
H35    H     0.26022   0.00062   0.25486   0.00000  Uiso   1.00
H36    H     0.17064   0.49942   0.15452   0.00000  Uiso   1.00
H37    H     0.23978   0.00062   0.07847   0.00000  Uiso   1.00
H38    H     0.32936   0.49943   0.17882   0.00000  Uiso   1.00
H39    H     0.38657   0.18727   0.12094   0.00000  Uiso   1.00
H40    H     0.38999   0.31215   0.21291   0.00000  Uiso   1.00
H41    H     0.11344   0.18732   0.21247   0.00000  Uiso   1.00
H42    H     0.30716   0.15170   0.23116   0.00000  Uiso   1.00
H43    H     0.19223   0.34811   0.10303   0.00000  Uiso   1.00
H44    H     0.19284   0.15170   0.10218   0.00000  Uiso   1.00
H45    H     0.30777   0.34812   0.23030   0.00000  Uiso   1.00
H46    H     0.49359   0.31289   0.10836   0.00000  Uiso   1.00
N47    N     0.25000   0.12935   0.16667   0.00000  Uiso   1.00
N48    N     0.25000   0.37066   0.16667   0.00000  Uiso   1.00
O49    O     0.18573   0.29072   0.16667   0.00000  Uiso   1.00
O50    O     0.17957   0.37377   0.12302   0.00000  Uiso   1.00
O51    O     0.21122   0.12632   0.08817   0.00000  Uiso   1.00
O52    O     0.32043   0.37378   0.21032   0.00000  Uiso   1.00
O53    O     0.02567   0.31955   0.11133   0.00000  Uiso   1.00
O54    O     0.47034   0.17923   0.11174   0.00000  Uiso   1.00
O55    O     0.47433   0.31961   0.22193   0.00000  Uiso   1.00
O56    O     0.02967   0.17929   0.22169   0.00000  Uiso   1.00
O57    O     0.27439   0.03243   0.25356   0.00000  Uiso   1.00
O58    O     0.17194   0.46761   0.13881   0.00000  Uiso   1.00
O59    O     0.22560   0.03243   0.07978   0.00000  Uiso   1.00
O60    O     0.31427   0.20929   0.16666   0.00000  Uiso   1.00
O61    O     0.32806   0.46761   0.19452   0.00000  Uiso   1.00
O62    O     0.31427   0.29072   0.16666   0.00000  Uiso   1.00
O63    O     0.18573   0.20929   0.16667   0.00000  Uiso   1.00
O64    O     0.25000   0.29071   0.09613   0.00000  Uiso   1.00
O65    O     0.25000   0.20929   0.23720   0.00000  Uiso   1.00
O66    O     0.25000   0.29071   0.23720   0.00000  Uiso   1.00
O67    O     0.25000   0.20929   0.09613   0.00000  Uiso   1.00
O68    O     0.28878   0.12632   0.24517   0.00000  Uiso   1.00
C69    C     0.66509   0.24998   0.16654   0.00000  Uiso   1.00
C70    C     0.78811   0.44620   0.18171   0.00000  Uiso   1.00
C71    C     0.74990   0.25000   0.07361   0.00000  Uiso   1.00
C72    C     0.75010   0.25000   0.25973   0.00000  Uiso   1.00
C73    C     0.75000   0.02726   0.16667   0.00000  Uiso   1.00
C74    C     0.75000   0.47278   0.16667   0.00000  Uiso   1.00
C75    C     0.74996   0.24999   0.02186   0.00000  Uiso   1.00
C76    C     0.75004   0.24999   0.31147   0.00000  Uiso   1.00
C77    C     0.54687   0.28476   0.13948   0.00000  Uiso   1.00
C78    C     0.95117   0.21424   0.13982   0.00000  Uiso   1.00
C79    C     0.95313   0.28479   0.19382   0.00000  Uiso   1.00
C80    C     0.83491   0.24998   0.16679   0.00000  Uiso   1.00
C81    C     0.54883   0.21427   0.19357   0.00000  Uiso   1.00
C82    C     0.59292   0.28502   0.14083   0.00000  Uiso   1.00
C83    C     0.90520   0.21437   0.14120   0.00000  Uiso   1.00
C84    C     0.90708   0.28504   0.19247   0.00000  Uiso   1.00
C85    C     0.59480   0.21440   0.19218   0.00000  Uiso   1.00
C86    C     0.61688   0.24985   0.16656   0.00000  Uiso   1.00
C87    C     0.88312   0.24985   0.16678   0.00000  Uiso   1.00
C88    C     0.52433   0.24945   0.16657   0.00000  Uiso   1.00
C89    C     0.97567   0.24945   0.16678   0.00000  Uiso   1.00
C90    C     0.76723   0.10397   0.20636   0.00000  Uiso   1.00
C91    C     0.71439   0.39606   0.14722   0.00000  Uiso   1.00
C92    C     0.73276   0.10397   0.12698   0.00000  Uiso   1.00
C93    C     0.78561   0.39606   0.18611   0.00000  Uiso   1.00
C94    C     0.76323   0.05384   0.20911   0.00000  Uiso   1.00
C95    C     0.71188   0.44620   0.15162   0.00000  Uiso   1.00
C96    C     0.73677   0.05384   0.12423   0.00000  Uiso   1.00
Cu97   Cu    0.75000   0.29822   0.16667   0.00000  Uiso   1.00
Cu98   Cu    0.75000   0.20179   0.16667   0.00000  Uiso   1.00
H99    H     0.61001   0.31210   0.12036   0.00000  Uiso   1.00
H100   H     0.50232   0.18548   0.10893   0.00000  Uiso   1.00
H101   H     0.50640   0.31290   0.22499   0.00000  Uiso   1.00
H102   H     0.99769   0.18555   0.22449   0.00000  Uiso   1.00
H103   H     0.76022   0.00062   0.25486   0.00000  Uiso   1.00
H104   H     0.67064   0.49942   0.15452   0.00000  Uiso   1.00
H105   H     0.73978   0.00062   0.07847   0.00000  Uiso   1.00
H106   H     0.82936   0.49943   0.17882   0.00000  Uiso   1.00
H107   H     0.88657   0.18727   0.12094   0.00000  Uiso   1.00
H108   H     0.88999   0.31215   0.21291   0.00000  Uiso   1.00
H109   H     0.61344   0.18732   0.21247   0.00000  Uiso   1.00
H110   H     0.80716   0.15170   0.23116   0.00000  Uiso   1.00
H111   H     0.69223   0.34811   0.10303   0.00000  Uiso   1.00
H112   H     0.69284   0.15170   0.10218   0.00000  Uiso   1.00
H113   H     0.80777   0.34812   0.23030   0.00000  Uiso   1.00
H114   H     0.99359   0.31289   0.10836   0.00000  Uiso   1.00
N115   N     0.75000   0.12935   0.16667   0.00000  Uiso   1.00
N116   N     0.75000   0.37066   0.16667   0.00000  Uiso   1.00
O117   O     0.68573   0.29072   0.16667   0.00000  Uiso   1.00
O118   O     0.67957   0.37377   0.12302   0.00000  Uiso   1.00
O119   O     0.71122   0.12632   0.08817   0.00000  Uiso   1.00
O120   O     0.82043   0.37378   0.21032   0.00000  Uiso   1.00
O121   O     0.52567   0.31955   0.11133   0.00000  Uiso   1.00
O122   O     0.97034   0.17923   0.11174   0.00000  Uiso   1.00
O123   O     0.97433   0.31961   0.22193   0.00000  Uiso   1.00
O124   O     0.52967   0.17929   0.22169   0.00000  Uiso   1.00
O125   O     0.77439   0.03243   0.25356   0.00000  Uiso   1.00
O126   O     0.67194   0.46761   0.13881   0.00000  Uiso   1.00
O127   O     0.72560   0.03243   0.07978   0.00000  Uiso   1.00
O128   O     0.81427   0.20929   0.16666   0.00000  Uiso   1.00
O129   O     0.82806   0.46761   0.19452   0.00000  Uiso   1.00
O130   O     0.81427   0.29072   0.16666   0.00000  Uiso   1.00
O131   O     0.68573   0.20929   0.16667   0.00000  Uiso   1.00
O132   O     0.75000   0.29071   0.09613   0.00000  Uiso   1.00
O133   O     0.75000   0.20929   0.23720   0.00000  Uiso   1.00
O134   O     0.75000   0.29071   0.23720   0.00000  Uiso   1.00
O135   O     0.75000   0.20929   0.09613   0.00000  Uiso   1.00
O136   O     0.78878   0.12632   0.24517   0.00000  Uiso   1.00
C137   C     0.16509   0.74998   0.16654   0.00000  Uiso   1.00
C138   C     0.28811   0.94620   0.18171   0.00000  Uiso   1.00
C139   C     0.24990   0.75000   0.07361   0.00000  Uiso   1.00
C140   C     0.25010   0.75000   0.25973   0.00000  Uiso   1.00
C141   C     0.25000   0.52726   0.16667   0.00000  Uiso   1.00
C142   C     0.25000   0.97278   0.16667   0.00000  Uiso   1.00
C143   C     0.24996   0.74999   0.02186   0.00000  Uiso   1.00
C144   C     0.25004   0.74999   0.31147   0.00000  Uiso   1.00
C145   C     0.04687   0.78476   0.13948   0.00000  Uiso   1.00
C146   C     0.45117   0.71424   0.13982   0.00000  Uiso   1.00
C147   C     0.45313   0.78479   0.19382   0.00000  Uiso   1.00
C148   C     0.33491   0.74998   0.16679   0.00000  Uiso   1.00
C149   C     0.04883   0.71427   0.19357   0.00000  Uiso   1.00
C150   C     0.09292   0.78502   0.14083   0.00000  Uiso   1.00
C151   C     0.40520   0.71437   0.14120   0.00000  Uiso   1.00
C152   C     0.40708   0.78504   0.19247   0.00000  Uiso   1.00
C153   C     0.09480   0.71440   0.19218   0.00000  Uiso   1.00
C154   C     0.11688   0.74985   0.16656   0.00000  Uiso   1.00
C155   C     0.38312   0.74985   0.16678   0.00000  Uiso   1.00
C156   C     0.02433   0.74945   0.16657   0.00000  Uiso   1.00
C157   C     0.47567   0.74945   0.16678   0.00000  Uiso   1.00
C158   C     0.26723   0.60397   0.20636   0.00000  Uiso   1.00
C159   C     0.21439   0.89606   0.14722   0.00000  Uiso   1.00
C160   C     0.23276   0.60397   0.12698   0.00000  Uiso   1.00
C161   C     0.28561   0.89606   0.18611   0.00000  Uiso   1.00
C162   C     0.26323   0.55384   0.20911   0.00000  Uiso   1.00
C163   C     0.21188   0.94620   0.15162   0.00000  Uiso   1.00
C164   C     0.23677   0.55384   0.12423   0.00000  Uiso   1.00
Cu165  Cu    0.25000   0.79822   0.16667   0.00000  Uiso   1.00
Cu166  Cu    0.25000   0.70179   0.16667   0.00000  Uiso   1.00
H167   H     0.11001   0.81210   0.12036   0.00000  Uiso   1.00
H168   H     0.00232   0.68548   0.10893   0.00000  Uiso   1.00
H169   H     0.00640   0.81290   0.22499   0.00000  Uiso   1.00
H170   H     0.49769   0.68555   0.22449   0.00000  Uiso   1.00
H171   H     0.26022   0.50062   0.25486   0.00000  Uiso   1.00
H172   H     0.17064   0.99942   0.15452   0.00000  Uiso   1.00
H173   H     0.23978   0.50062   0.07847   0.00000  Uiso   1.00
H174   H     0.32936   0.99943   0.17882   0.00000  Uiso   1.00
H175   H     0.38657   0.68727   0.12094   0.00000  Uiso   1.00
H176   H     0.38999   0.81215   0.21291   0.00000  Uiso   1.00
H177   H     0.11344   0.68732   0.21247   0.00000  Uiso   1.00
H178   H     0.30716   0.65170   0.23116   0.00000  Uiso   1.00
H179   H     0.19223   0.84811   0.10303   0.00000  Uiso   1.00
H180   H     0.19284   0.65170   0.10218   0.00000  Uiso   1.00
H181   H     0.30777   0.84812   0.23030   0.00000  Uiso   1.00
H182   H     0.49359   0.81289   0.10836   0.00000  Uiso   1.00
N183   N     0.25000   0.62935   0.16667   0.00000  Uiso   1.00
N184   N     0.25000   0.87066   0.16667   0.00000  Uiso   1.00
O185   O     0.18573   0.79072   0.16667   0.00000  Uiso   1.00
O186   O     0.17957   0.87377   0.12302   0.00000  Uiso   1.00
O187   O     0.21122   0.62632   0.08817   0.00000  Uiso   1.00
O188   O     0.32043   0.87378   0.21032   0.00000  Uiso   1.00
O189   O     0.02567   0.81955   0.11133   0.00000  Uiso   1.00
O190   O     0.47034   0.67923   0.11174   0.00000  Uiso   1.00
O191   O     0.47433   0.81961   0.22193   0.00000  Uiso   1.00
O192   O     0.02967   0.67929   0.22169   0.00000  Uiso   1.00
O193   O     0.27439   0.53243   0.25356   0.00000  Uiso   1.00
O194   O     0.17194   0.96761   0.13881   0.00000  Uiso   1.00
O195   O     0.22560   0.53243   0.07978   0.00000  Uiso   1.00
O196   O     0.31427   0.70929   0.16666   0.00000  Uiso   1.00
O197   O     0.32806   0.96761   0.19452   0.00000  Uiso   1.00
O198   O     0.31427   0.79072   0.16666   0.00000  Uiso   1.00
O199   O     0.18573   0.70929   0.16667   0.00000  Uiso   1.00
O200   O     0.25000   0.79071   0.09613   0.00000  Uiso   1.00
O201   O     0.25000   0.70929   0.23720   0.00000  Uiso   1.00
O202   O     0.25000   0.79071   0.23720   0.00000  Uiso   1.00
O203   O     0.25000   0.70929   0.09613   0.00000  Uiso   1.00
O204   O     0.28878   0.62632   0.24517   0.00000  Uiso   1.00
C205   C     0.66509   0.74998   0.16654   0.00000  Uiso   1.00
C206   C     0.78811   0.94620   0.18171   0.00000  Uiso   1.00
C207   C     0.74990   0.75000   0.07361   0.00000  Uiso   1.00
C208   C     0.75010   0.75000   0.25973   0.00000  Uiso   1.00
C209   C     0.75000   0.52726   0.16667   0.00000  Uiso   1.00
C210   C     0.75000   0.97278   0.16667   0.00000  Uiso   1.00
C211   C     0.74996   0.74999   0.02186   0.00000  Uiso   1.00
C212   C     0.75004   0.74999   0.31147   0.00000  Uiso   1.00
C213   C     0.54687   0.78476   0.13948   0.00000  Uiso   1.00
C214   C     0.95117   0.71424   0.13982   0.00000  Uiso   1.00
C215   C     0.95313   0.78479   0.19382   0.00000  Uiso   1.00
C216   C     0.83491   0.74998   0.16679   0.00000  Uiso   1.00
C217   C     0.54883   0.71427   0.19357   0.00000  Uiso   1.00
C218   C     0.59292   0.78502   0.14083   0.00000  Uiso   1.00
C219   C     0.90520   0.71437   0.14120   0.00000  Uiso   1.00
C220   C     0.90708   0.78504   0.19247   0.00000  Uiso   1.00
C221   C     0.59480   0.71440   0.19218   0.00000  Uiso   1.00
C222   C     0.61688   0.74985   0.16656   0.00000  Uiso   1.00
C223   C     0.88312   0.74985   0.16678   0.00000  Uiso   1.00
C224   C     0.52433   0.74945   0.16657   0.00000  Uiso   1.00
C225   C     0.97567   0.74945   0.16678   0.00000  Uiso   1.00
C226   C     0.76723   0.60397   0.20636   0.00000  Uiso   1.00
C227   C     0.71439   0.89606   0.14722   0.00000  Uiso   1.00
C228   C     0.73276   0.60397   0.12698   0.00000  Uiso   1.00
C229   C     0.78561   0.89606   0.18611   0.00000  Uiso   1.00
C230   C     0.76323   0.55384   0.20911   0.00000  Uiso   1.00
C231   C     0.71188   0.94620   0.15162   0.00000  Uiso   1.00
C232   C     0.73677   0.55384   0.12423   0.00000  Uiso   1.00
Cu233  Cu    0.75000   0.79822   0.16667   0.00000  Uiso   1.00
Cu234  Cu    0.75000   0.70179   0.16667   0.00000  Uiso   1.00
H235   H     0.61001   0.81210   0.12036   0.00000  Uiso   1.00
H236   H     0.50232   0.68548   0.10893   0.00000  Uiso   1.00
H237   H     0.50640   0.81290   0.22499   0.00000  Uiso   1.00
H238   H     0.99769   0.68555   0.22449   0.00000  Uiso   1.00
H239   H     0.76022   0.50062   0.25486   0.00000  Uiso   1.00
H240   H     0.67064   0.99942   0.15452   0.00000  Uiso   1.00
H241   H     0.73978   0.50062   0.07847   0.00000  Uiso   1.00
H242   H     0.82936   0.99943   0.17882   0.00000  Uiso   1.00
H243   H     0.88657   0.68727   0.12094   0.00000  Uiso   1.00
H244   H     0.88999   0.81215   0.21291   0.00000  Uiso   1.00
H245   H     0.61344   0.68732   0.21247   0.00000  Uiso   1.00
H246   H     0.80716   0.65170   0.23116   0.00000  Uiso   1.00
H247   H     0.69223   0.84811   0.10303   0.00000  Uiso   1.00
H248   H     0.69284   0.65170   0.10218   0.00000  Uiso   1.00
H249   H     0.80777   0.84812   0.23030   0.00000  Uiso   1.00
H250   H     0.99359   0.81289   0.10836   0.00000  Uiso   1.00
N251   N     0.75000   0.62935   0.16667   0.00000  Uiso   1.00
N252   N     0.75000   0.87066   0.16667   0.00000  Uiso   1.00
O253   O     0.68573   0.79072   0.16667   0.00000  Uiso   1.00
O254   O     0.67957   0.87377   0.12302   0.00000  Uiso   1.00
O255   O     0.71122   0.62632   0.08817   0.00000  Uiso   1.00
O256   O     0.82043   0.87378   0.21032   0.00000  Uiso   1.00
O257   O     0.52567   0.81955   0.11133   0.00000  Uiso   1.00
O258   O     0.97034   0.67923   0.11174   0.00000  Uiso   1.00
O259   O     0.97433   0.81961   0.22193   0.00000  Uiso   1.00
O260   O     0.52967   0.67929   0.22169   0.00000  Uiso   1.00
O261   O     0.77439   0.53243   0.25356   0.00000  Uiso   1.00
O262   O     0.67194   0.96761   0.13881   0.00000  Uiso   1.00
O263   O     0.72560   0.53243   0.07978   0.00000  Uiso   1.00
O264   O     0.81427   0.70929   0.16666   0.00000  Uiso   1.00
O265   O     0.82806   0.96761   0.19452   0.00000  Uiso   1.00
O266   O     0.81427   0.79072   0.16666   0.00000  Uiso   1.00
O267   O     0.68573   0.70929   0.16667   0.00000  Uiso   1.00
O268   O     0.75000   0.79071   0.09613   0.00000  Uiso   1.00
O269   O     0.75000   0.70929   0.23720   0.00000  Uiso   1.00
O270   O     0.75000   0.79071   0.23720   0.00000  Uiso   1.00
O271   O     0.75000   0.70929   0.09613   0.00000  Uiso   1.00
O272   O     0.78878   0.62632   0.24517   0.00000  Uiso   1.00
C273   C     0.16509   0.24998   0.49987   0.00000  Uiso   1.00
C274   C     0.28811   0.44620   0.51504   0.00000  Uiso   1.00
C275   C     0.24990   0.25000   0.40694   0.00000  Uiso   1.00
C276   C     0.25010   0.25000   0.59306   0.00000  Uiso   1.00
C277   C     0.25000   0.02726   0.50000   0.00000  Uiso   1.00
C278   C     0.25000   0.47278   0.50000   0.00000  Uiso   1.00
C279   C     0.24996   0.24999   0.35519   0.00000  Uiso   1.00
C280   C     0.25004   0.24999   0.64481   0.00000  Uiso   1.00
C281   C     0.04687   0.28476   0.47282   0.00000  Uiso   1.00
C282   C     0.45117   0.21424   0.47315   0.00000  Uiso   1.00
C283   C     0.45313   0.28479   0.52716   0.00000  Uiso   1.00
C284   C     0.33491   0.24998   0.50013   0.00000  Uiso   1.00
C285   C     0.04883   0.21427   0.52690   0.00000  Uiso   1.00
C286   C     0.09292   0.28502   0.47417   0.00000  Uiso   1.00
C287   C     0.40520   0.21437   0.47453   0.00000  Uiso   1.00
C288   C     0.40708   0.28504   0.52580   0.00000  Uiso   1.00
C289   C     0.09480   0.21440   0.52552   0.00000  Uiso   1.00
C290   C     0.11688   0.24985   0.49989   0.00000  Uiso   1.00
C291   C     0.38312   0.24985   0.50011   0.00000  Uiso   1.00
C292   C     0.02433   0.24945   0.49990   0.00000  Uiso   1.00
C293   C     0.47567   0.24945   0.50011   0.00000  Uiso   1.00
C294   C     0.26723   0.10397   0.53969   0.00000  Uiso   1.00
C295   C     0.21439   0.39606   0.48056   0.00000  Uiso   1.00
C296   C     0.23276   0.10397   0.46031   0.00000  Uiso   1.00
C297   C     0.28561   0.39606   0.51944   0.00000  Uiso   1.00
C298   C     0.26323   0.05384   0.54244   0.00000  Uiso   1.00
C299   C     0.21188   0.44620   0.48496   0.00000  Uiso   1.00
C300   C     0.23677   0.05384   0.45756   0.00000  Uiso   1.00
Cu301  Cu    0.25000   0.29822   0.50000   0.00000  Uiso   1.00
Cu302  Cu    0.25000   0.20179   0.50000   0.00000  Uiso   1.00
H303   H     0.11001   0.31210   0.45369   0.00000  Uiso   1.00
H304   H     0.00232   0.18548   0.44227   0.00000  Uiso   1.00
H305   H     0.00640   0.31290   0.55832   0.00000  Uiso   1.00
H306   H     0.49769   0.18555   0.55783   0.00000  Uiso   1.00
H307   H     0.26022   0.00062   0.58820   0.00000  Uiso   1.00
H308   H     0.17064   0.49942   0.48785   0.00000  Uiso   1.00
H309   H     0.23978   0.00062   0.41180   0.00000  Uiso   1.00
H310   H     0.32936   0.49943   0.51215   0.00000  Uiso   1.00
H311   H     0.38657   0.18727   0.45427   0.00000  Uiso   1.00
H312   H     0.38999   0.31215   0.54624   0.00000  Uiso   1.00
H313   H     0.11344   0.18732   0.54581   0.00000  Uiso   1.00
H314   H     0.30716   0.15170   0.56449   0.00000  Uiso   1.00
H315   H     0.19223   0.34811   0.43636   0.00000  Uiso   1.00
H316   H     0.19284   0.15170   0.43551   0.00000  Uiso   1.00
H317   H     0.30777   0.34812   0.56364   0.00000  Uiso   1.00
H318   H     0.49359   0.31289   0.44169   0.00000  Uiso   1.00
N319   N     0.25000   0.12935   0.50000   0.00000  Uiso   1.00
N320   N     0.25000   0.37066   0.50000   0.00000  Uiso   1.00
O321   O     0.18573   0.29072   0.50000   0.00000  Uiso   1.00
O322   O     0.17957   0.37377   0.45635   0.00000  Uiso   1.00
O323   O     0.21122   0.12632   0.42150   0.00000  Uiso   1.00
O324   O     0.32043   0.37378   0.54365   0.00000  Uiso   1.00
O325   O     0.02567   0.31955   0.44467   0.00000  Uiso   1.00
O326   O     0.47034   0.17923   0.44507   0.00000  Uiso   1.00
O327   O     0.47433   0.31961   0.55526   0.00000  Uiso   1.00
O328   O     0.02967   0.17929   0.55503   0.00000  Uiso   1.00
O329   O     0.27439   0.03243   0.58689   0.00000  Uiso   1.00
O330   O     0.17194   0.46761   0.47215   0.00000  Uiso   1.00
O331   O     0.22560   0.03243   0.41311   0.00000  Uiso   1.00
O332   O     0.31427   0.20929   0.50000   0.00000  Uiso   1.00
O333   O     0.32806   0.46761   0.52786   0.00000  Uiso   1.00
O334   O     0.31427   0.29072   0.50000   0.00000  Uiso   1.00
O335   O     0.18573   0.20929   0.50000   0.00000  Uiso   1.00
O336   O     0.25000   0.29071   0.42946   0.00000  Uiso   1.00
O337   O     0.25000   0.20929   0.57054   0.00000  Uiso   1.00
O338   O     0.25000   0.29071   0.57054   0.00000  Uiso   1.00
O339   O     0.25000   0.20929   0.42946   0.00000  Uiso   1.00
O340   O     0.28878   0.12632   0.57850   0.00000  Uiso   1.00
C341   C     0.66509   0.24998   0.49987   0.00000  Uiso   1.00
C342   C     0.78811   0.44620   0.51504   0.00000  Uiso   1.00
C343   C     0.74990   0.25000   0.40694   0.00000  Uiso   1.00
C344   C     0.75010   0.25000   0.59306   0.00000  Uiso   1.00
C345   C     0.75000   0.02726   0.50000   0.00000  Uiso   1.00
C346   C     0.75000   0.47278   0.50000   0.00000  Uiso   1.00
C347   C     0.74996   0.24999   0.35519   0.00000  Uiso   1.00
C348   C     0.75004   0.24999   0.64481   0.00000  Uiso   1.00
C349   C     0.54687   0.28476   0.47282   0.00000  Uiso   1.00
C350   C     0.95117   0.21424   0.47315   0.00000  Uiso   1.00
C351   C     0.95313   0.28479   0.52716   0.00000  Uiso   1.00
C352   C     0.83491   0.24998   0.50013   0.00000  Uiso   1.00
C353   C     0.54883   0.21427   0.52690   0.00000  Uiso   1.00
C354   C     0.59292   0.28502   0.47417   0.00000  Uiso   1.00
C355   C     0.90520   0.21437   0.47453   0.00000  Uiso   1.00
C356   C     0.90708   0.28504   0.52580   0.00000  Uiso   1.00
C357   C     0.59480   0.21440   0.52552   0.00000  Uiso   1.00
C358   C     0.61688   0.24985   0.49989   0.00000  Uiso   1.00
C359   C     0.88312   0.24985   0.50011   0.00000  Uiso   1.00
C360   C     0.52433   0.24945   0.49990   0.00000  Uiso   1.00
C361   C     0.97567   0.24945   0.50011   0.00000  Uiso   1.00
C362   C     0.76723   0.10397   0.53969   0.00000  Uiso   1.00
C363   C     0.71439   0.39606   0.48056   0.00000  Uiso   1.00
C364   C     0.73276   0.10397   0.46031   0.00000  Uiso   1.00
C365   C     0.78561   0.39606   0.51944   0.00000  Uiso   1.00
C366   C     0.76323   0.05384   0.54244   0.00000  Uiso   1.00
C367   C     0.71188   0.44620   0.48496   0.00000  Uiso   1.00
C368   C     0.73677   0.05384   0.45756   0.00000  Uiso   1.00
Cu369  Cu    0.75000   0.29822   0.50000   0.00000  Uiso   1.00
Cu370  Cu    0.75000   0.20179   0.50000   0.00000  Uiso   1.00
H371   H     0.61001   0.31210   0.45369   0.00000  Uiso   1.00
H372   H     0.50232   0.18548   0.44227   0.00000  Uiso   1.00
H373   H     0.50640   0.31290   0.55832   0.00000  Uiso   1.00
H374   H     0.99769   0.18555   0.55783   0.00000  Uiso   1.00
H375   H     0.76022   0.00062   0.58820   0.00000  Uiso   1.00
H376   H     0.67064   0.49942   0.48785   0.00000  Uiso   1.00
H377   H     0.73978   0.00062   0.41180   0.00000  Uiso   1.00
H378   H     0.82936   0.49943   0.51215   0.00000  Uiso   1.00
H379   H     0.88657   0.18727   0.45427   0.00000  Uiso   1.00
H380   H     0.88999   0.31215   0.54624   0.00000  Uiso   1.00
H381   H     0.61344   0.18732   0.54581   0.00000  Uiso   1.00
H382   H     0.80716   0.15170   0.56449   0.00000  Uiso   1.00
H383   H     0.69223   0.34811   0.43636   0.00000  Uiso   1.00
H384   H     0.69284   0.15170   0.43551   0.00000  Uiso   1.00
H385   H     0.80777   0.34812   0.56364   0.00000  Uiso   1.00
H386   H     0.99359   0.31289   0.44169   0.00000  Uiso   1.00
N387   N     0.75000   0.12935   0.50000   0.00000  Uiso   1.00
N388   N     0.75000   0.37066   0.50000   0.00000  Uiso   1.00
O389   O     0.68573   0.29072   0.50000   0.00000  Uiso   1.00
O390   O     0.67957   0.37377   0.45635   0.00000  Uiso   1.00
O391   O     0.71122   0.12632   0.42150   0.00000  Uiso   1.00
O392   O     0.82043   0.37378   0.54365   0.00000  Uiso   1.00
O393   O     0.52567   0.31955   0.44467   0.00000  Uiso   1.00
O394   O     0.97034   0.17923   0.44507   0.00000  Uiso   1.00
O395   O     0.97433   0.31961   0.55526   0.00000  Uiso   1.00
O396   O     0.52967   0.17929   0.55503   0.00000  Uiso   1.00
O397   O     0.77439   0.03243   0.58689   0.00000  Uiso   1.00
O398   O     0.67194   0.46761   0.47215   0.00000  Uiso   1.00
O399   O     0.72560   0.03243   0.41311   0.00000  Uiso   1.00
O400   O     0.81427   0.20929   0.50000   0.00000  Uiso   1.00
O401   O     0.82806   0.46761   0.52786   0.00000  Uiso   1.00
O402   O     0.81427   0.29072   0.50000   0.00000  Uiso   1.00
O403   O     0.68573   0.20929   0.50000   0.00000  Uiso   1.00
O404   O     0.75000   0.29071   0.42946   0.00000  Uiso   1.00
O405   O     0.75000   0.20929   0.57054   0.00000  Uiso   1.00
O406   O     0.75000   0.29071   0.57054   0.00000  Uiso   1.00
O407   O     0.75000   0.20929   0.42946   0.00000  Uiso   1.00
O408   O     0.78878   0.12632   0.57850   0.00000  Uiso   1.00
C409   C     0.16509   0.74998   0.49987   0.00000  Uiso   1.00
C410   C     0.28811   0.94620   0.51504   0.00000  Uiso   1.00
C411   C     0.24990   0.75000   0.40694   0.00000  Uiso   1.00
C412   C     0.25010   0.75000   0.59306   0.00000  Uiso   1.00
C413   C     0.25000   0.52726   0.50000   0.00000  Uiso   1.00
C414   C     0.25000   0.97278   0.50000   0.00000  Uiso   1.00
C415   C     0.24996   0.74999   0.35519   0.00000  Uiso   1.00
C416   C     0.25004   0.74999   0.64481   0.00000  Uiso   1.00
C417   C     0.04687   0.78476   0.47282   0.00000  Uiso   1.00
C418   C     0.45117   0.71424   0.47315   0.00000  Uiso   1.00
C419   C     0.45313   0.78479   0.52716   0.00000  Uiso   1.00
C420   C     0.33491   0.74998   0.50013   0.00000  Uiso   1.00
C421   C     0.04883   0.71427   0.52690   0.00000  Uiso   1.00
C422   C     0.09292   0.78502   0.47417   0.00000  Uiso   1.00
C423   C     0.40520   0.71437   0.47453   0.00000  Uiso   1.00
C424   C     0.40708   0.78504   0.52580   0.00000  Uiso   1.00
C425   C     0.09480   0.71440   0.52552   0.00000  Uiso   1.00
C426   C     0.11688   0.74985   0.49989   0.00000  Uiso   1.00
C427   C     0.38312   0.74985   0.50011   0.00000  Uiso   1.00
C428   C     0.02433   0.74945   0.49990   0.00000  Uiso   1.00
C429   C     0.47567   0.74945   0.50011   0.00000  Uiso   1.00
C430   C     0.26723   0.60397   0.53969   0.00000  Uiso   1.00
C431   C     0.21439   0.89606   0.48056   0.00000  Uiso   1.00
C432   C     0.23276   0.60397   0.46031   0.00000  Uiso   1.00
C433   C     0.28561   0.89606   0.51944   0.00000  Uiso   1.00
C434   C     0.26323   0.55384   0.54244   0.00000  Uiso   1.00
C435   C     0.21188   0.94620   0.48496   0.00000  Uiso   1.00
C436   C     0.23677   0.55384   0.45756   0.00000  Uiso   1.00
Cu437  Cu    0.25000   0.79822   0.50000   0.00000  Uiso   1.00
Cu438  Cu    0.25000   0.70179   0.50000   0.00000  Uiso   1.00
H439   H     0.11001   0.81210   0.45369   0.00000  Uiso   1.00
H440   H     0.00232   0.68548   0.44227   0.00000  Uiso   1.00
H441   H     0.00640   0.81290   0.55832   0.00000  Uiso   1.00
H442   H     0.49769   0.68555   0.55783   0.00000  Uiso   1.00
H443   H     0.26022   0.50062   0.58820   0.00000  Uiso   1.00
H444   H     0.17064   0.99942   0.48785   0.00000  Uiso   1.00
H445   H     0.23978   0.50062   0.41180   0.00000  Uiso   1.00
H446   H     0.32936   0.99943   0.51215   0.00000  Uiso   1.00
H447   H     0.38657   0.68727   0.45427   0.00000  Uiso   1.00
H448   H     0.38999   0.81215   0.54624   0.00000  Uiso   1.00
H449   H     0.11344   0.68732   0.54581   0.00000  Uiso   1.00
H450   H     0.30716   0.65170   0.56449   0.00000  Uiso   1.00
H451   H     0.19223   0.84811   0.43636   0.00000  Uiso   1.00
H452   H     0.19284   0.65170   0.43551   0.00000  Uiso   1.00
H453   H     0.30777   0.84812   0.56364   0.00000  Uiso   1.00
H454   H     0.49359   0.81289   0.44169   0.00000  Uiso   1.00
N455   N     0.25000   0.62935   0.50000   0.00000  Uiso   1.00
N456   N     0.25000   0.87066   0.50000   0.00000  Uiso   1.00
O457   O     0.18573   0.79072   0.50000   0.00000  Uiso   1.00
O458   O     0.17957   0.87377   0.45635   0.00000  Uiso   1.00
O459   O     0.21122   0.62632   0.42150   0.00000  Uiso   1.00
O460   O     0.32043   0.87378   0.54365   0.00000  Uiso   1.00
O461   O     0.02567   0.81955   0.44467   0.00000  Uiso   1.00
O462   O     0.47034   0.67923   0.44507   0.00000  Uiso   1.00
O463   O     0.47433   0.81961   0.55526   0.00000  Uiso   1.00
O464   O     0.02967   0.67929   0.55503   0.00000  Uiso   1.00
O465   O     0.27439   0.53243   0.58689   0.00000  Uiso   1.00
O466   O     0.17194   0.96761   0.47215   0.00000  Uiso   1.00
O467   O     0.22560   0.53243   0.41311   0.00000  Uiso   1.00
O468   O     0.31427   0.70929   0.50000   0.00000  Uiso   1.00
O469   O     0.32806   0.96761   0.52786   0.00000  Uiso   1.00
O470   O     0.31427   0.79072   0.50000   0.00000  Uiso   1.00
O471   O     0.18573   0.70929   0.50000   0.00000  Uiso   1.00
O472   O     0.25000   0.79071   0.42946   0.00000  Uiso   1.00
O473   O     0.25000   0.70929   0.57054   0.00000  Uiso   1.00
O474   O     0.25000   0.79071   0.57054   0.00000  Uiso   1.00
O475   O     0.25000   0.70929   0.42946   0.00000  Uiso   1.00
O476   O     0.28878   0.62632   0.57850   0.00000  Uiso   1.00
C477   C     0.66509   0.74998   0.49987   0.00000  Uiso   1.00
C478   C     0.78811   0.94620   0.51504   0.00000  Uiso   1.00
C479   C     0.74990   0.75000   0.40694   0.00000  Uiso   1.00
C480   C     0.75010   0.75000   0.59306   0.00000  Uiso   1.00
C481   C     0.75000   0.52726   0.50000   0.00000  Uiso   1.00
C482   C     0.75000   0.97278   0.50000   0.00000  Uiso   1.00
C483   C     0.74996   0.74999   0.35519   0.00000  Uiso   1.00
C484   C     0.75004   0.74999   0.64481   0.00000  Uiso   1.00
C485   C     0.54687   0.78476   0.47282   0.00000  Uiso   1.00
C486   C     0.95117   0.71424   0.47315   0.00000  Uiso   1.00
C487   C     0.95313   0.78479   0.52716   0.00000  Uiso   1.00
C488   C     0.83491   0.74998   0.50013   0.00000  Uiso   1.00
C489   C     0.54883   0.71427   0.52690   0.00000  Uiso   1.00
C490   C     0.59292   0.78502   0.47417   0.00000  Uiso   1.00
C491   C     0.90520   0.71437   0.47453   0.00000  Uiso   1.00
C492   C     0.90708   0.78504   0.52580   0.00000  Uiso   1.00
C493   C     0.59480   0.71440   0.52552   0.00000  Uiso   1.00
C494   C     0.61688   0.74985   0.49989   0.00000  Uiso   1.00
C495   C     0.88312   0.74985   0.50011   0.00000  Uiso   1.00
C496   C     0.52433   0.74945   0.49990   0.00000  Uiso   1.00
C497   C     0.97567   0.74945   0.50011   0.00000  Uiso   1.00
C498   C     0.76723   0.60397   0.53969   0.00000  Uiso   1.00
C499   C     0.71439   0.89606   0.48056   0.00000  Uiso   1.00
C500   C     0.73276   0.60397   0.46031   0.00000  Uiso   1.00
C501   C     0.78561   0.89606   0.51944   0.00000  Uiso   1.00
C502   C     0.76323   0.55384   0.54244   0.00000  Uiso   1.00
C503   C     0.71188   0.94620   0.48496   0.00000  Uiso   1.00
C504   C     0.73677   0.55384   0.45756   0.00000  Uiso   1.00
Cu505  Cu    0.75000   0.79822   0.50000   0.00000  Uiso   1.00
Cu506  Cu    0.75000   0.70179   0.50000   0.00000  Uiso   1.00
H507   H     0.61001   0.81210   0.45369   0.00000  Uiso   1.00
H508   H     0.50232   0.68548   0.44227   0.00000  Uiso   1.00
H509   H     0.50640   0.81290   0.55832   0.00000  Uiso   1.00
H510   H     0.99769   0.68555   0.55783   0.00000  Uiso   1.00
H511   H     0.76022   0.50062   0.58820   0.00000  Uiso   1.00
H512   H     0.67064   0.99942   0.48785   0.00000  Uiso   1.00
H513   H     0.73978   0.50062   0.41180   0.00000  Uiso   1.00
H514   H     0.82936   0.99943   0.51215   0.00000  Uiso   1.00
H515   H     0.88657   0.68727   0.45427   0.00000  Uiso   1.00
H516   H     0.88999   0.81215   0.54624   0.00000  Uiso   1.00
H517   H     0.61344   0.68732   0.54581   0.00000  Uiso   1.00
H518   H     0.80716   0.65170   0.56449   0.00000  Uiso   1.00
H519   H     0.69223   0.84811   0.43636   0.00000  Uiso   1.00
H520   H     0.69284   0.65170   0.43551   0.00000  Uiso   1.00
H521   H     0.80777   0.84812   0.56364   0.00000  Uiso   1.00
H522   H     0.99359   0.81289   0.44169   0.00000  Uiso   1.00
N523   N     0.75000   0.62935   0.50000   0.00000  Uiso   1.00
N524   N     0.75000   0.87066   0.50000   0.00000  Uiso   1.00
O525   O     0.68573   0.79072   0.50000   0.00000  Uiso   1.00
O526   O     0.67957   0.87377   0.45635   0.00000  Uiso   1.00
O527   O     0.71122   0.62632   0.42150   0.00000  Uiso   1.00
O528   O     0.82043   0.87378   0.54365   0.00000  Uiso   1.00
O529   O     0.52567   0.81955   0.44467   0.00000  Uiso   1.00
O530   O     0.97034   0.67923   0.44507   0.00000  Uiso   1.00
O531   O     0.97433   0.81961   0.55526   0.00000  Uiso   1.00
O532   O     0.52967   0.67929   0.55503   0.00000  Uiso   1.00
O533   O     0.77439   0.53243   0.58689   0.00000  Uiso   1.00
O534   O     0.67194   0.96761   0.47215   0.00000  Uiso   1.00
O535   O     0.72560   0.53243   0.41311   0.00000  Uiso   1.00
O536   O     0.81427   0.70929   0.50000   0.00000  Uiso   1.00
O537   O     0.82806   0.96761   0.52786   0.00000  Uiso   1.00
O538   O     0.81427   0.79072   0.50000   0.00000  Uiso   1.00
O539   O     0.68573   0.70929   0.50000   0.00000  Uiso   1.00
O540   O     0.75000   0.79071   0.42946   0.00000  Uiso   1.00
O541   O     0.75000   0.70929   0.57054   0.00000  Uiso   1.00
O542   O     0.75000   0.79071   0.57054   0.00000  Uiso   1.00
O543   O     0.75000   0.70929   0.42946   0.00000  Uiso   1.00
O544   O     0.78878   0.62632   0.57850   0.00000  Uiso   1.00
C545   C     0.16509   0.24998   0.83321   0.00000  Uiso   1.00
C546   C     0.28811   0.44620   0.84838   0.00000  Uiso   1.00
C547   C     0.24990   0.25000   0.74027   0.00000  Uiso   1.00
C548   C     0.25010   0.25000   0.92639   0.00000  Uiso   1.00
C549   C     0.25000   0.02726   0.83333   0.00000  Uiso   1.00
C550   C     0.25000   0.47278   0.83333   0.00000  Uiso   1.00
C551   C     0.24996   0.24999   0.68853   0.00000  Uiso   1.00
C552   C     0.25004   0.24999   0.97814   0.00000  Uiso   1.00
C553   C     0.04687   0.28476   0.80615   0.00000  Uiso   1.00
C554   C     0.45117   0.21424   0.80648   0.00000  Uiso   1.00
C555   C     0.45313   0.28479   0.86049   0.00000  Uiso   1.00
C556   C     0.33491   0.24998   0.83346   0.00000  Uiso   1.00
C557   C     0.04883   0.21427   0.86024   0.00000  Uiso   1.00
C558   C     0.09292   0.28502   0.80750   0.00000  Uiso   1.00
C559   C     0.40520   0.21437   0.80786   0.00000  Uiso   1.00
C560   C     0.40708   0.28504   0.85913   0.00000  Uiso   1.00
C561   C     0.09480   0.21440   0.85885   0.00000  Uiso   1.00
C562   C     0.11688   0.24985   0.83322   0.00000  Uiso   1.00
C563   C     0.38312   0.24985   0.83345   0.00000  Uiso   1.00
C564   C     0.02433   0.24945   0.83324   0.00000  Uiso   1.00
C565   C     0.47567   0.24945   0.83345   0.00000  Uiso   1.00
C566   C     0.26723   0.10397   0.87303   0.00000  Uiso   1.00
C567   C     0.21439   0.39606   0.81389   0.00000  Uiso   1.00
C568   C     0.23276   0.10397   0.79364   0.00000  Uiso   1.00
C569   C     0.28561   0.39606   0.85278   0.00000  Uiso   1.00
C570   C     0.26323   0.05384   0.87578   0.00000  Uiso   1.00
C571   C     0.21188   0.44620   0.81829   0.00000  Uiso   1.00
C572   C     0.23677   0.05384   0.79089   0.00000  Uiso   1.00
Cu573  Cu    0.25000   0.29822   0.83333   0.00000  Uiso   1.00
Cu574  Cu    0.25000   0.20179   0.83333   0.00000  Uiso   1.00
H575   H     0.11001   0.31210   0.78702   0.00000  Uiso   1.00
H576   H     0.00232   0.18548   0.77560   0.00000  Uiso   1.00
H577   H     0.00640   0.31290   0.89166   0.00000  Uiso   1.00
H578   H     0.49769   0.18555   0.89116   0.00000  Uiso   1.00
H579   H     0.26022   0.00062   0.92153   0.00000  Uiso   1.00
H580   H     0.17064   0.49942   0.82118   0.00000  Uiso   1.00
H581   H     0.23978   0.00062   0.74514   0.00000  Uiso   1.00
H582   H     0.32936   0.49943   0.84548   0.00000  Uiso   1.00
H583   H     0.38657   0.18727   0.78760   0.00000  Uiso   1.00
H584   H     0.38999   0.31215   0.87957   0.00000  Uiso   1.00
H585   H     0.11344   0.18732   0.87914   0.00000  Uiso   1.00
H586   H     0.30716   0.15170   0.89782   0.00000  Uiso   1.00
H587   H     0.19223   0.34811   0.76969   0.00000  Uiso   1.00
H588   H     0.19284   0.15170   0.76884   0.00000  Uiso   1.00
H589   H     0.30777   0.34812   0.89697   0.00000  Uiso   1.00
H590   H     0.49359   0.31289   0.77502   0.00000  Uiso   1.00
N591   N     0.25000   0.12935   0.83333   0.00000  Uiso   1.00
N592   N     0.25000   0.37066   0.83333   0.00000  Uiso   1.00
O593   O     0.18573   0.29072   0.83334   0.00000  Uiso   1.00
O594   O     0.17957   0.37377   0.78968   0.00000  Uiso   1.00
O595   O     0.21122   0.12632   0.75483   0.00000  Uiso   1.00
O596   O     0.32043   0.37378   0.87698   0.00000  Uiso   1.00
O597   O     0.02567   0.31955   0.77800   0.00000  Uiso   1.00
O598   O     0.47034   0.17923   0.77840   0.00000  Uiso   1.00
O599   O     0.47433   0.31961   0.88860   0.00000  Uiso   1.00
O600   O     0.02967   0.17929   0.88836   0.00000  Uiso   1.00
O601   O     0.27439   0.03243   0.92022   0.00000  Uiso   1.00
O602   O     0.17194   0.46761   0.80548   0.00000  Uiso   1.00
O603   O     0.22560   0.03243   0.74644   0.00000  Uiso   1.00
O604   O     0.31427   0.20929   0.83333   0.00000  Uiso   1.00
O605   O     0.32806   0.46761   0.86119   0.00000  Uiso   1.00
O606   O     0.31427   0.29072   0.83333   0.00000  Uiso   1.00
O607   O     0.18573   0.20929   0.83334   0.00000  Uiso   1.00
O608   O     0.25000   0.29071   0.76280   0.00000  Uiso   1.00
O609   O     0.25000   0.20929   0.90387   0.00000  Uiso   1.00
O610   O     0.25000   0.29071   0.90387   0.00000  Uiso   1.00
O611   O     0.25000   0.20929   0.76280   0.00000  Uiso   1.00
O612   O     0.28878   0.12632   0.91183   0.00000  Uiso   1.00
C613   C     0.66509   0.24998   0.83321   0.00000  Uiso   1.00
C614   C     0.78811   0.44620   0.84838   0.00000  Uiso   1.00
C615   C     0.74990   0.25000   0.74027   0.00000  Uiso   1.00
C616   C     0.75010   0.25000   0.92639   0.00000  Uiso   1.00
C617   C     0.75000   0.02726   0.83333   0.00000  Uiso   1.00
C618   C     0.75000   0.47278   0.83333   0.00000  Uiso   1.00
C619   C     0.74996   0.24999   0.68853   0.00000  Uiso   1.00
C620   C     0.75004   0.24999   0.97814   0.00000  Uiso   1.00
C621   C     0.54687   0.28476   0.80615   0.00000  Uiso   1.00
C622   C     0.95117   0.21424   0.80648   0.00000  Uiso   1.00
C623   C     0.95313   0.28479   0.86049   0.00000  Uiso   1.00
C624   C     0.83491   0.24998   0.83346   0.00000  Uiso   1.00
C625   C     0.54883   0.21427   0.86024   0.00000  Uiso   1.00
C626   C     0.59292   0.28502   0.80750   0.00000  Uiso   1.00
C627   C     0.90520   0.21437   0.80786   0.00000  Uiso   1.00
C628   C     0.90708   0.28504   0.85913   0.00000  Uiso   1.00
C629   C     0.59480   0.21440   0.85885   0.00000  Uiso   1.00
C630   C     0.61688   0.24985   0.83322   0.00000  Uiso   1.00
C631   C     0.88312   0.24985   0.83345   0.00000  Uiso   1.00
C632   C     0.52433   0.24945   0.83324   0.00000  Uiso   1.00
C633   C     0.97567   0.24945   0.83345   0.00000  Uiso   1.00
C634   C     0.76723   0.10397   0.87303   0.00000  Uiso   1.00
C635   C     0.71439   0.39606   0.81389   0.00000  Uiso   1.00
C636   C     0.73276   0.10397   0.79364   0.00000  Uiso   1.00
C637   C     0.78561   0.39606   0.85278   0.00000  Uiso   1.00
C638   C     0.76323   0.05384   0.87578   0.00000  Uiso   1.00
C639   C     0.71188   0.44620   0.81829   0.00000  Uiso   1.00
C640   C     0.73677   0.05384   0.79089   0.00000  Uiso   1.00
Cu641  Cu    0.75000   0.29822   0.83333   0.00000  Uiso   1.00
Cu642  Cu    0.75000   0.20179   0.83333   0.00000  Uiso   1.00
H643   H     0.61001   0.31210   0.78702   0.00000  Uiso   1.00
H644   H     0.50232   0.18548   0.77560   0.00000  Uiso   1.00
H645   H     0.50640   0.31290   0.89166   0.00000  Uiso   1.00
H646   H     0.99769   0.18555   0.89116   0.00000  Uiso   1.00
H647   H     0.76022   0.00062   0.92153   0.00000  Uiso   1.00
H648   H     0.67064   0.49942   0.82118   0.00000  Uiso   1.00
H649   H     0.73978   0.00062   0.74514   0.00000  Uiso   1.00
H650   H     0.82936   0.49943   0.84548   0.00000  Uiso   1.00
H651   H     0.88657   0.18727   0.78760   0.00000  Uiso   1.00
H652   H     0.88999   0.31215   0.87957   0.00000  Uiso   1.00
H653   H     0.61344   0.18732   0.87914   0.00000  Uiso   1.00
H654   H     0.80716   0.15170   0.89782   0.00000  Uiso   1.00
H655   H     0.69223   0.34811   0.76969   0.00000  Uiso   1.00
H656   H     0.69284   0.15170   0.76884   0.00000  Uiso   1.00
H657   H     0.80777   0.34812   0.89697   0.00000  Uiso   1.00
H658   H     0.99359   0.31289   0.77502   0.00000  Uiso   1.00
N659   N     0.75000   0.12935   0.83333   0.00000  Uiso   1.00
N660   N     0.75000   0.37066   0.83333   0.00000  Uiso   1.00
O661   O     0.68573   0.29072   0.83334   0.00000  Uiso   1.00
O662   O     0.67957   0.37377   0.78968   0.00000  Uiso   1.00
O663   O     0.71122   0.12632   0.75483   0.00000  Uiso   1.00
O664   O     0.82043   0.37378   0.87698   0.00000  Uiso   1.00
O665   O     0.52567   0.31955   0.77800   0.00000  Uiso   1.00
O666   O     0.97034   0.17923   0.77840   0.00000  Uiso   1.00
O667   O     0.97433   0.31961   0.88860   0.00000  Uiso   1.00
O668   O     0.52967   0.17929   0.88836   0.00000  Uiso   1.00
O669   O     0.77439   0.03243   0.92022   0.00000  Uiso   1.00
O670   O     0.67194   0.46761   0.80548   0.00000  Uiso   1.00
O671   O     0.72560   0.03243   0.74644   0.00000  Uiso   1.00
O672   O     0.81427   0.20929   0.83333   0.00000  Uiso   1.00
O673   O     0.82806   0.46761   0.86119   0.00000  Uiso   1.00
O674   O     0.81427   0.29072   0.83333   0.00000  Uiso   1.00
O675   O     0.68573   0.20929   0.83334   0.00000  Uiso   1.00
O676   O     0.75000   0.29071   0.76280   0.00000  Uiso   1.00
O677   O     0.75000   0.20929   0.90387   0.00000  Uiso   1.00
O678   O     0.75000   0.29071   0.90387   0.00000  Uiso   1.00
O679   O     0.75000   0.20929   0.76280   0.00000  Uiso   1.00
O680   O     0.78878   0.12632   0.91183   0.00000  Uiso   1.00
C681   C     0.16509   0.74998   0.83321   0.00000  Uiso   1.00
C682   C     0.28811   0.94620   0.84838   0.00000  Uiso   1.00
C683   C     0.24990   0.75000   0.74027   0.00000  Uiso   1.00
C684   C     0.25010   0.75000   0.92639   0.00000  Uiso   1.00
C685   C     0.25000   0.52726   0.83333   0.00000  Uiso   1.00
C686   C     0.25000   0.97278   0.83333   0.00000  Uiso   1.00
C687   C     0.24996   0.74999   0.68853   0.00000  Uiso   1.00
C688   C     0.25004   0.74999   0.97814   0.00000  Uiso   1.00
C689   C     0.04687   0.78476   0.80615   0.00000  Uiso   1.00
C690   C     0.45117   0.71424   0.80648   0.00000  Uiso   1.00
C691   C     0.45313   0.78479   0.86049   0.00000  Uiso   1.00
C692   C     0.33491   0.74998   0.83346   0.00000  Uiso   1.00
C693   C     0.04883   0.71427   0.86024   0.00000  Uiso   1.00
C694   C     0.09292   0.78502   0.80750   0.00000  Uiso   1.00
C695   C     0.40520   0.71437   0.80786   0.00000  Uiso   1.00
C696   C     0.40708   0.78504   0.85913   0.00000  Uiso   1.00
C697   C     0.09480   0.71440   0.85885   0.00000  Uiso   1.00
C698   C     0.11688   0.74985   0.83322   0.00000  Uiso   1.00
C699   C     0.38312   0.74985   0.83345   0.00000  Uiso   1.00
C700   C     0.02433   0.74945   0.83324   0.00000  Uiso   1.00
C701   C     0.47567   0.74945   0.83345   0.00000  Uiso   1.00
C702   C     0.26723   0.60397   0.87303   0.00000  Uiso   1.00
C703   C     0.21439   0.89606   0.81389   0.00000  Uiso   1.00
C704   C     0.23276   0.60397   0.79364   0.00000  Uiso   1.00
C705   C     0.28561   0.89606   0.85278   0.00000  Uiso   1.00
C706   C     0.26323   0.55384   0.87578   0.00000  Uiso   1.00
C707   C     0.21188   0.94620   0.81829   0.00000  Uiso   1.00
C708   C     0.23677   0.55384   0.79089   0.00000  Uiso   1.00
Cu709  Cu    0.25000   0.79822   0.83333   0.00000  Uiso   1.00
Cu710  Cu    0.25000   0.70179   0.83333   0.00000  Uiso   1.00
H711   H     0.11001   0.81210   0.78702   0.00000  Uiso   1.00
H712   H     0.00232   0.68548   0.77560   0.00000  Uiso   1.00
H713   H     0.00640   0.81290   0.89166   0.00000  Uiso   1.00
H714   H     0.49769   0.68555   0.89116   0.00000  Uiso   1.00
H715   H     0.26022   0.50062   0.92153   0.00000  Uiso   1.00
H716   H     0.17064   0.99942   0.82118   0.00000  Uiso   1.00
H717   H     0.23978   0.50062   0.74514   0.00000  Uiso   1.00
H718   H     0.32936   0.99943   0.84548   0.00000  Uiso   1.00
H719   H     0.38657   0.68727   0.78760   0.00000  Uiso   1.00
H720   H     0.38999   0.81215   0.87957   0.00000  Uiso   1.00
H721   H     0.11344   0.68732   0.87914   0.00000  Uiso   1.00
H722   H     0.30716   0.65170   0.89782   0.00000  Uiso   1.00
H723   H     0.19223   0.84811   0.76969   0.00000  Uiso   1.00
H724   H     0.19284   0.65170   0.76884   0.00000  Uiso   1.00
H725   H     0.30777   0.84812   0.89697   0.00000  Uiso   1.00
H726   H     0.49359   0.81289   0.77502   0.00000  Uiso   1.00
N727   N     0.25000   0.62935   0.83333   0.00000  Uiso   1.00
N728   N     0.25000   0.87066   0.83333   0.00000  Uiso   1.00
O729   O     0.18573   0.79072   0.83334   0.00000  Uiso   1.00
O730   O     0.17957   0.87377   0.78968   0.00000  Uiso   1.00
O731   O     0.21122   0.62632   0.75483   0.00000  Uiso   1.00
O732   O     0.32043   0.87378   0.87698   0.00000  Uiso   1.00
O733   O     0.02567   0.81955   0.77800   0.00000  Uiso   1.00
O734   O     0.47034   0.67923   0.77840   0.00000  Uiso   1.00
O735   O     0.47433   0.81961   0.88860   0.00000  Uiso   1.00
O736   O     0.02967   0.67929   0.88836   0.00000  Uiso   1.00
O737   O     0.27439   0.53243   0.92022   0.00000  Uiso   1.00
O738   O     0.17194   0.96761   0.80548   0.00000  Uiso   1.00
O739   O     0.22560   0.53243   0.74644   0.00000  Uiso   1.00
O740   O     0.31427   0.70929   0.83333   0.00000  Uiso   1.00
O741   O     0.32806   0.96761   0.86119   0.00000  Uiso   1.00
O742   O     0.31427   0.79072   0.83333   0.00000  Uiso   1.00
O743   O     0.18573   0.70929   0.83334   0.00000  Uiso   1.00
O744   O     0.25000   0.79071   0.76280   0.00000  Uiso   1.00
O745   O     0.25000   0.70929   0.90387   0.00000  Uiso   1.00
O746   O     0.25000   0.79071   0.90387   0.00000  Uiso   1.00
O747   O     0.25000   0.70929   0.76280   0.00000  Uiso   1.00
O748   O     0.28878   0.62632   0.91183   0.00000  Uiso   1.00
C749   C     0.66509   0.74998   0.83321   0.00000  Uiso   1.00
C750   C     0.78811   0.94620   0.84838   0.00000  Uiso   1.00
C751   C     0.74990   0.75000   0.74027   0.00000  Uiso   1.00
C752   C     0.75010   0.75000   0.92639   0.00000  Uiso   1.00
C753   C     0.75000   0.52726   0.83333   0.00000  Uiso   1.00
C754   C     0.75000   0.97278   0.83333   0.00000  Uiso   1.00
C755   C     0.74996   0.74999   0.68853   0.00000  Uiso   1.00
C756   C     0.75004   0.74999   0.97814   0.00000  Uiso   1.00
C757   C     0.54687   0.78476   0.80615   0.00000  Uiso   1.00
C758   C     0.95117   0.71424   0.80648   0.00000  Uiso   1.00
C759   C     0.95313   0.78479   0.86049   0.00000  Uiso   1.00
C760   C     0.83491   0.74998   0.83346   0.00000  Uiso   1.00
C761   C     0.54883   0.71427   0.86024   0.00000  Uiso   1.00
C762   C     0.59292   0.78502   0.80750   0.00000  Uiso   1.00
C763   C     0.90520   0.71437   0.80786   0.00000  Uiso   1.00
C764   C     0.90708   0.78504   0.85913   0.00000  Uiso   1.00
C765   C     0.59480   0.71440   0.85885   0.00000  Uiso   1.00
C766   C     0.61688   0.74985   0.83322   0.00000  Uiso   1.00
C767   C     0.88312   0.74985   0.83345   0.00000  Uiso   1.00
C768   C     0.52433   0.74945   0.83324   0.00000  Uiso   1.00
C769   C     0.97567   0.74945   0.83345   0.00000  Uiso   1.00
C770   C     0.76723   0.60397   0.87303   0.00000  Uiso   1.00
C771   C     0.71439   0.89606   0.81389   0.00000  Uiso   1.00
C772   C     0.73276   0.60397   0.79364   0.00000  Uiso   1.00
C773   C     0.78561   0.89606   0.85278   0.00000  Uiso   1.00
C774   C     0.76323   0.55384   0.87578   0.00000  Uiso   1.00
C775   C     0.71188   0.94620   0.81829   0.00000  Uiso   1.00
C776   C     0.73677   0.55384   0.79089   0.00000  Uiso   1.00
Cu777  Cu    0.75000   0.79822   0.83333   0.00000  Uiso   1.00
Cu778  Cu    0.75000   0.70179   0.83333   0.00000  Uiso   1.00
H779   H     0.61001   0.81210   0.78702   0.00000  Uiso   1.00
H780   H     0.50232   0.68548   0.77560   0.00000  Uiso   1.00
H781   H     0.50640   0.81290   0.89166   0.00000  Uiso   1.00
H782   H     0.99769   0.68555   0.89116   0.00000  Uiso   1.00
H783   H     0.76022   0.50062   0.92153   0.00000  Uiso   1.00
H784   H     0.67064   0.99942   0.82118   0.00000  Uiso   1.00
H785   H     0.73978   0.50062   0.74514   0.00000  Uiso   1.00
H786   H     0.82936   0.99943   0.84548   0.00000  Uiso   1.00
H787   H     0.88657   0.68727   0.78760   0.00000  Uiso   1.00
H788   H     0.88999   0.81215   0.87957   0.00000  Uiso   1.00
H789   H     0.61344   0.68732   0.87914   0.00000  Uiso   1.00
H790   H     0.80716   0.65170   0.89782   0.00000  Uiso   1.00
H791   H     0.69223   0.84811   0.76969   0.00000  Uiso   1.00
H792   H     0.69284   0.65170   0.76884   0.00000  Uiso   1.00
H793   H     0.80777   0.84812   0.89697   0.00000  Uiso   1.00
H794   H     0.99359   0.81289   0.77502   0.00000  Uiso   1.00
N795   N     0.75000   0.62935   0.83333   0.00000  Uiso   1.00
N796   N     0.75000   0.87066   0.83333   0.00000  Uiso   1.00
O797   O     0.68573   0.79072   0.83334   0.00000  Uiso   1.00
O798   O     0.67957   0.87377   0.78968   0.00000  Uiso   1.00
O799   O     0.71122   0.62632   0.75483   0.00000  Uiso   1.00
O800   O     0.82043   0.87378   0.87698   0.00000  Uiso   1.00
O801   O     0.52567   0.81955   0.77800   0.00000  Uiso   1.00
O802   O     0.97034   0.67923   0.77840   0.00000  Uiso   1.00
O803   O     0.97433   0.81961   0.88860   0.00000  Uiso   1.00
O804   O     0.52967   0.67929   0.88836   0.00000  Uiso   1.00
O805   O     0.77439   0.53243   0.92022   0.00000  Uiso   1.00
O806   O     0.67194   0.96761   0.80548   0.00000  Uiso   1.00
O807   O     0.72560   0.53243   0.74644   0.00000  Uiso   1.00
O808   O     0.81427   0.70929   0.83333   0.00000  Uiso   1.00
O809   O     0.82806   0.96761   0.86119   0.00000  Uiso   1.00
O810   O     0.81427   0.79072   0.83333   0.00000  Uiso   1.00
O811   O     0.68573   0.70929   0.83334   0.00000  Uiso   1.00
O812   O     0.75000   0.79071   0.76280   0.00000  Uiso   1.00
O813   O     0.75000   0.70929   0.90387   0.00000  Uiso   1.00
O814   O     0.75000   0.79071   0.90387   0.00000  Uiso   1.00
O815   O     0.75000   0.70929   0.76280   0.00000  Uiso   1.00
O816   O     0.78878   0.62632   0.91183   0.00000  Uiso   1.00
loop_
_geom_bond_atom_site_label_1
_geom_bond_atom_site_label_2
_geom_bond_distance
_geom_bond_site_symmetry_2
_ccdc_geom_bond_type
C1     C18     1.457   .     S
C1     O63     1.299   .     A
C1     O49     1.300   .     A
C2     O61     1.382   .     S
C2     C25     1.411   .     A
C2     C6      1.420   .     A
C3     O64     1.294   .     A
C3     C7      1.409   .     S
C3     O67     1.294   .     A
C4     C8      1.409   .     S
C4     O65     1.294   .     A
C4     O66     1.294   .     A
C5     C26     1.420   .     A
C5     C28     1.420   .     A
C5     C142    1.525   1_545 S
C6     C27     1.420   .     A
C6     C141    1.525   .     S
C7     C552    1.191   1_554 S
C8     C279    1.191   .     S
C9     C14     1.391   .     A
C9     C20     1.421   .     A
C9     O53     1.383   .     S
C10    C15     1.391   .     A
C10    C21     1.422   .     A
C10    O54     1.383   .     S
C11    C16     1.391   .     A
C11    O55     1.383   .     S
C11    C21     1.421   .     A
C12    O62     1.300   .     A
C12    O60     1.299   .     A
C12    C19     1.457   .     S
C13    C20     1.422   .     A
C13    C17     1.391   .     A
C13    O56     1.383   .     S
C14    C18     1.396   .     A
C14    H31     1.083   .     S
C15    C19     1.396   .     A
C15    H39     1.084   .     S
C16    H40     1.083   .     S
C16    C19     1.396   .     A
C17    C18     1.396   .     A
C17    H41     1.084   .     S
C20    C89     1.471   1_455 S
C21    C88     1.471   .     S
C22    O68     1.373   .     S
C22    N47     1.380   .     A
C22    C26     1.411   .     A
C23    C27     1.411   .     A
C23    O50     1.372   .     S
C23    N48     1.380   .     A
C24    O51     1.373   .     S
C24    C28     1.411   .     A
C24    N47     1.380   .     A
C25    N48     1.380   .     A
C25    O52     1.372   .     S
C26    O57     1.382   .     S
C27    O58     1.382   .     S
C28    O59     1.382   .     S
Cu29   Cu30    2.699   .     S
Cu29   O64     1.932   .     S
Cu29   O49     1.954   .     S
Cu29   N48     2.028   .     S
Cu29   O66     1.932   .     S
Cu29   O62     1.954   .     S
Cu30   O65     1.932   .     S
Cu30   N47     2.028   .     S
Cu30   O63     1.954   .     S
Cu30   O67     1.932   .     S
Cu30   O60     1.954   .     S
H32    O122    0.988   1_455 S
H33    O123    0.988   1_455 S
H34    O124    0.988   .     S
H35    O57     0.989   .     S
H36    O58     0.989   .     S
H37    O59     0.989   .     S
H38    O61     0.989   .     S
H42    O68     0.987   .     S
H43    O50     0.986   .     S
H44    O51     0.987   .     S
H45    O52     0.986   .     S
H46    O121    0.988   .     S
O53    H114    0.988   1_455 S
O54    H100    0.988   .     S
O55    H101    0.988   .     S
O56    H102    0.988   1_455 S
C69    C86     1.457   .     S
C69    O131    1.299   .     A
C69    O117    1.300   .     A
C70    O129    1.382   .     S
C70    C93     1.411   .     A
C70    C74     1.420   .     A
C71    O132    1.294   .     A
C71    C75     1.409   .     S
C71    O135    1.294   .     A
C72    C76     1.409   .     S
C72    O133    1.294   .     A
C72    O134    1.294   .     A
C73    C94     1.420   .     A
C73    C96     1.420   .     A
C73    C210    1.525   1_545 S
C74    C95     1.420   .     A
C74    C209    1.525   .     S
C75    C620    1.191   1_554 S
C76    C347    1.191   .     S
C77    C82     1.391   .     A
C77    C88     1.421   .     A
C77    O121    1.383   .     S
C78    C83     1.391   .     A
C78    C89     1.422   .     A
C78    O122    1.383   .     S
C79    C84     1.391   .     A
C79    O123    1.383   .     S
C79    C89     1.421   .     A
C80    O130    1.300   .     A
C80    O128    1.299   .     A
C80    C87     1.457   .     S
C81    C88     1.422   .     A
C81    C85     1.391   .     A
C81    O124    1.383   .     S
C82    C86     1.396   .     A
C82    H99     1.083   .     S
C83    C87     1.396   .     A
C83    H107    1.084   .     S
C84    H108    1.083   .     S
C84    C87     1.396   .     A
C85    C86     1.396   .     A
C85    H109    1.084   .     S
C89    C20     1.471   1_655 S
C90    O136    1.373   .     S
C90    N115    1.380   .     A
C90    C94     1.411   .     A
C91    C95     1.411   .     A
C91    O118    1.372   .     S
C91    N116    1.380   .     A
C92    O119    1.373   .     S
C92    C96     1.411   .     A
C92    N115    1.380   .     A
C93    N116    1.380   .     A
C93    O120    1.372   .     S
C94    O125    1.382   .     S
C95    O126    1.382   .     S
C96    O127    1.382   .     S
Cu97   Cu98    2.699   .     S
Cu97   O132    1.932   .     S
Cu97   O117    1.954   .     S
Cu97   N116    2.028   .     S
Cu97   O134    1.932   .     S
Cu97   O130    1.954   .     S
Cu98   O133    1.932   .     S
Cu98   N115    2.028   .     S
Cu98   O131    1.954   .     S
Cu98   O135    1.932   .     S
Cu98   O128    1.954   .     S
H102   O56     0.988   1_655 S
H103   O125    0.989   .     S
H104   O126    0.989   .     S
H105   O127    0.989   .     S
H106   O129    0.989   .     S
H110   O136    0.987   .     S
H111   O118    0.986   .     S
H112   O119    0.987   .     S
H113   O120    0.986   .     S
H114   O53     0.988   1_655 S
O122   H32     0.988   1_655 S
O123   H33     0.988   1_655 S
C137   C154    1.457   .     S
C137   O199    1.299   .     A
C137   O185    1.300   .     A
C138   O197    1.382   .     S
C138   C161    1.411   .     A
C138   C142    1.420   .     A
C139   O200    1.294   .     A
C139   C143    1.409   .     S
C139   O203    1.294   .     A
C140   C144    1.409   .     S
C140   O201    1.294   .     A
C140   O202    1.294   .     A
C141   C162    1.420   .     A
C141   C164    1.420   .     A
C142   C163    1.420   .     A
C142   C5      1.525   1_565 S
C143   C688    1.191   1_554 S
C144   C415    1.191   .     S
C145   C150    1.391   .     A
C145   C156    1.421   .     A
C145   O189    1.383   .     S
C146   C151    1.391   .     A
C146   C157    1.422   .     A
C146   O190    1.383   .     S
C147   C152    1.391   .     A
C147   O191    1.383   .     S
C147   C157    1.421   .     A
C148   O198    1.300   .     A
C148   O196    1.299   .     A
C148   C155    1.457   .     S
C149   C156    1.422   .     A
C149   C153    1.391   .     A
C149   O192    1.383   .     S
C150   C154    1.396   .     A
C150   H167    1.083   .     S
C151   C155    1.396   .     A
C151   H175    1.084   .     S
C152   H176    1.083   .     S
C152   C155    1.396   .     A
C153   C154    1.396   .     A
C153   H177    1.084   .     S
C156   C225    1.471   1_455 S
C157   C224    1.471   .     S
C158   O204    1.373   .     S
C158   N183    1.380   .     A
C158   C162    1.411   .     A
C159   C163    1.411   .     A
C159   O186    1.372   .     S
C159   N184    1.380   .     A
C160   O187    1.373   .     S
C160   C164    1.411   .     A
C160   N183    1.380   .     A
C161   N184    1.380   .     A
C161   O188    1.372   .     S
C162   O193    1.382   .     S
C163   O194    1.382   .     S
C164   O195    1.382   .     S
Cu165  Cu166   2.699   .     S
Cu165  O200    1.932   .     S
Cu165  O185    1.954   .     S
Cu165  N184    2.028   .     S
Cu165  O202    1.932   .     S
Cu165  O198    1.954   .     S
Cu166  O201    1.932   .     S
Cu166  N183    2.028   .     S
Cu166  O199    1.954   .     S
Cu166  O203    1.932   .     S
Cu166  O196    1.954   .     S
H168   O258    0.988   1_455 S
H169   O259    0.988   1_455 S
H170   O260    0.988   .     S
H171   O193    0.989   .     S
H172   O194    0.989   .     S
H173   O195    0.989   .     S
H174   O197    0.989   .     S
H178   O204    0.987   .     S
H179   O186    0.986   .     S
H180   O187    0.987   .     S
H181   O188    0.986   .     S
H182   O257    0.988   .     S
O189   H250    0.988   1_455 S
O190   H236    0.988   .     S
O191   H237    0.988   .     S
O192   H238    0.988   1_455 S
C205   C222    1.457   .     S
C205   O267    1.299   .     A
C205   O253    1.300   .     A
C206   O265    1.382   .     S
C206   C229    1.411   .     A
C206   C210    1.420   .     A
C207   O268    1.294   .     A
C207   C211    1.409   .     S
C207   O271    1.294   .     A
C208   C212    1.409   .     S
C208   O269    1.294   .     A
C208   O270    1.294   .     A
C209   C230    1.420   .     A
C209   C232    1.420   .     A
C210   C231    1.420   .     A
C210   C73     1.525   1_565 S
C211   C756    1.191   1_554 S
C212   C483    1.191   .     S
C213   C218    1.391   .     A
C213   C224    1.421   .     A
C213   O257    1.383   .     S
C214   C219    1.391   .     A
C214   C225    1.422   .     A
C214   O258    1.383   .     S
C215   C220    1.391   .     A
C215   O259    1.383   .     S
C215   C225    1.421   .     A
C216   O266    1.300   .     A
C216   O264    1.299   .     A
C216   C223    1.457   .     S
C217   C224    1.422   .     A
C217   C221    1.391   .     A
C217   O260    1.383   .     S
C218   C222    1.396   .     A
C218   H235    1.083   .     S
C219   C223    1.396   .     A
C219   H243    1.084   .     S
C220   H244    1.083   .     S
C220   C223    1.396   .     A
C221   C222    1.396   .     A
C221   H245    1.084   .     S
C225   C156    1.471   1_655 S
C226   O272    1.373   .     S
C226   N251    1.380   .     A
C226   C230    1.411   .     A
C227   C231    1.411   .     A
C227   O254    1.372   .     S
C227   N252    1.380   .     A
C228   O255    1.373   .     S
C228   C232    1.411   .     A
C228   N251    1.380   .     A
C229   N252    1.380   .     A
C229   O256    1.372   .     S
C230   O261    1.382   .     S
C231   O262    1.382   .     S
C232   O263    1.382   .     S
Cu233  Cu234   2.699   .     S
Cu233  O268    1.932   .     S
Cu233  O253    1.954   .     S
Cu233  N252    2.028   .     S
Cu233  O270    1.932   .     S
Cu233  O266    1.954   .     S
Cu234  O269    1.932   .     S
Cu234  N251    2.028   .     S
Cu234  O267    1.954   .     S
Cu234  O271    1.932   .     S
Cu234  O264    1.954   .     S
H238   O192    0.988   1_655 S
H239   O261    0.989   .     S
H240   O262    0.989   .     S
H241   O263    0.989   .     S
H242   O265    0.989   .     S
H246   O272    0.987   .     S
H247   O254    0.986   .     S
H248   O255    0.987   .     S
H249   O256    0.986   .     S
H250   O189    0.988   1_655 S
O258   H168    0.988   1_655 S
O259   H169    0.988   1_655 S
C273   C290    1.457   .     S
C273   O335    1.299   .     A
C273   O321    1.300   .     A
C274   O333    1.382   .     S
C274   C297    1.411   .     A
C274   C278    1.420   .     A
C275   O336    1.294   .     A
C275   C279    1.409   .     S
C275   O339    1.294   .     A
C276   C280    1.409   .     S
C276   O337    1.294   .     A
C276   O338    1.294   .     A
C277   C298    1.420   .     A
C277   C300    1.420   .     A
C277   C414    1.525   1_545 S
C278   C299    1.420   .     A
C278   C413    1.525   .     S
C280   C551    1.191   .     S
C281   C286    1.391   .     A
C281   C292    1.421   .     A
C281   O325    1.383   .     S
C282   C287    1.391   .     A
C282   C293    1.422   .     A
C282   O326    1.383   .     S
C283   C288    1.391   .     A
C283   O327    1.383   .     S
C283   C293    1.421   .     A
C284   O334    1.300   .     A
C284   O332    1.299   .     A
C284   C291    1.457   .     S
C285   C292    1.422   .     A
C285   C289    1.391   .     A
C285   O328    1.383   .     S
C286   C290    1.396   .     A
C286   H303    1.083   .     S
C287   C291    1.396   .     A
C287   H311    1.084   .     S
C288   H312    1.083   .     S
C288   C291    1.396   .     A
C289   C290    1.396   .     A
C289   H313    1.084   .     S
C292   C361    1.471   1_455 S
C293   C360    1.471   .     S
C294   O340    1.373   .     S
C294   N319    1.380   .     A
C294   C298    1.411   .     A
C295   C299    1.411   .     A
C295   O322    1.372   .     S
C295   N320    1.380   .     A
C296   O323    1.373   .     S
C296   C300    1.411   .     A
C296   N319    1.380   .     A
C297   N320    1.380   .     A
C297   O324    1.372   .     S
C298   O329    1.382   .     S
C299   O330    1.382   .     S
C300   O331    1.382   .     S
Cu301  Cu302   2.699   .     S
Cu301  O336    1.932   .     S
Cu301  O321    1.954   .     S
Cu301  N320    2.028   .     S
Cu301  O338    1.932   .     S
Cu301  O334    1.954   .     S
Cu302  O337    1.932   .     S
Cu302  N319    2.028   .     S
Cu302  O335    1.954   .     S
Cu302  O339    1.932   .     S
Cu302  O332    1.954   .     S
H304   O394    0.988   1_455 S
H305   O395    0.988   1_455 S
H306   O396    0.988   .     S
H307   O329    0.989   .     S
H308   O330    0.989   .     S
H309   O331    0.989   .     S
H310   O333    0.989   .     S
H314   O340    0.987   .     S
H315   O322    0.986   .     S
H316   O323    0.987   .     S
H317   O324    0.986   .     S
H318   O393    0.988   .     S
O325   H386    0.988   1_455 S
O326   H372    0.988   .     S
O327   H373    0.988   .     S
O328   H374    0.988   1_455 S
C341   C358    1.457   .     S
C341   O403    1.299   .     A
C341   O389    1.300   .     A
C342   O401    1.382   .     S
C342   C365    1.411   .     A
C342   C346    1.420   .     A
C343   O404    1.294   .     A
C343   C347    1.409   .     S
C343   O407    1.294   .     A
C344   C348    1.409   .     S
C344   O405    1.294   .     A
C344   O406    1.294   .     A
C345   C366    1.420   .     A
C345   C368    1.420   .     A
C345   C482    1.525   1_545 S
C346   C367    1.420   .     A
C346   C481    1.525   .     S
C348   C619    1.191   .     S
C349   C354    1.391   .     A
C349   C360    1.421   .     A
C349   O393    1.383   .     S
C350   C355    1.391   .     A
C350   C361    1.422   .     A
C350   O394    1.383   .     S
C351   C356    1.391   .     A
C351   O395    1.383   .     S
C351   C361    1.421   .     A
C352   O402    1.300   .     A
C352   O400    1.299   .     A
C352   C359    1.457   .     S
C353   C360    1.422   .     A
C353   C357    1.391   .     A
C353   O396    1.383   .     S
C354   C358    1.396   .     A
C354   H371    1.083   .     S
C355   C359    1.396   .     A
C355   H379    1.084   .     S
C356   H380    1.083   .     S
C356   C359    1.396   .     A
C357   C358    1.396   .     A
C357   H381    1.084   .     S
C361   C292    1.471   1_655 S
C362   O408    1.373   .     S
C362   N387    1.380   .     A
C362   C366    1.411   .     A
C363   C367    1.411   .     A
C363   O390    1.372   .     S
C363   N388    1.380   .     A
C364   O391    1.373   .     S
C364   C368    1.411   .     A
C364   N387    1.380   .     A
C365   N388    1.380   .     A
C365   O392    1.372   .     S
C366   O397    1.382   .     S
C367   O398    1.382   .     S
C368   O399    1.382   .     S
Cu369  Cu370   2.699   .     S
Cu369  O404    1.932   .     S
Cu369  O389    1.954   .     S
Cu369  N388    2.028   .     S
Cu369  O406    1.932   .     S
Cu369  O402    1.954   .     S
Cu370  O405    1.932   .     S
Cu370  N387    2.028   .     S
Cu370  O403    1.954   .     S
Cu370  O407    1.932   .     S
Cu370  O400    1.954   .     S
H374   O328    0.988   1_655 S
H375   O397    0.989   .     S
H376   O398    0.989   .     S
H377   O399    0.989   .     S
H378   O401    0.989   .     S
H382   O408    0.987   .     S
H383   O390    0.986   .     S
H384   O391    0.987   .     S
H385   O392    0.986   .     S
H386   O325    0.988   1_655 S
O394   H304    0.988   1_655 S
O395   H305    0.988   1_655 S
C409   C426    1.457   .     S
C409   O471    1.299   .     A
C409   O457    1.300   .     A
C410   O469    1.382   .     S
C410   C433    1.411   .     A
C410   C414    1.420   .     A
C411   O472    1.294   .     A
C411   C415    1.409   .     S
C411   O475    1.294   .     A
C412   C416    1.409   .     S
C412   O473    1.294   .     A
C412   O474    1.294   .     A
C413   C434    1.420   .     A
C413   C436    1.420   .     A
C414   C435    1.420   .     A
C414   C277    1.525   1_565 S
C416   C687    1.191   .     S
C417   C422    1.391   .     A
C417   C428    1.421   .     A
C417   O461    1.383   .     S
C418   C423    1.391   .     A
C418   C429    1.422   .     A
C418   O462    1.383   .     S
C419   C424    1.391   .     A
C419   O463    1.383   .     S
C419   C429    1.421   .     A
C420   O470    1.300   .     A
C420   O468    1.299   .     A
C420   C427    1.457   .     S
C421   C428    1.422   .     A
C421   C425    1.391   .     A
C421   O464    1.383   .     S
C422   C426    1.396   .     A
C422   H439    1.083   .     S
C423   C427    1.396   .     A
C423   H447    1.084   .     S
C424   H448    1.083   .     S
C424   C427    1.396   .     A
C425   C426    1.396   .     A
C425   H449    1.084   .     S
C428   C497    1.471   1_455 S
C429   C496    1.471   .     S
C430   O476    1.373   .     S
C430   N455    1.380   .     A
C430   C434    1.411   .     A
C431   C435    1.411   .     A
C431   O458    1.372   .     S
C431   N456    1.380   .     A
C432   O459    1.373   .     S
C432   C436    1.411   .     A
C432   N455    1.380   .     A
C433   N456    1.380   .     A
C433   O460    1.372   .     S
C434   O465    1.382   .     S
C435   O466    1.382   .     S
C436   O467    1.382   .     S
Cu437  Cu438   2.699   .     S
Cu437  O472    1.932   .     S
Cu437  O457    1.954   .     S
Cu437  N456    2.028   .     S
Cu437  O474    1.932   .     S
Cu437  O470    1.954   .     S
Cu438  O473    1.932   .     S
Cu438  N455    2.028   .     S
Cu438  O471    1.954   .     S
Cu438  O475    1.932   .     S
Cu438  O468    1.954   .     S
H440   O530    0.988   1_455 S
H441   O531    0.988   1_455 S
H442   O532    0.988   .     S
H443   O465    0.989   .     S
H444   O466    0.989   .     S
H445   O467    0.989   .     S
H446   O469    0.989   .     S
H450   O476    0.987   .     S
H451   O458    0.986   .     S
H452   O459    0.987   .     S
H453   O460    0.986   .     S
H454   O529    0.988   .     S
O461   H522    0.988   1_455 S
O462   H508    0.988   .     S
O463   H509    0.988   .     S
O464   H510    0.988   1_455 S
C477   C494    1.457   .     S
C477   O539    1.299   .     A
C477   O525    1.300   .     A
C478   O537    1.382   .     S
C478   C501    1.411   .     A
C478   C482    1.420   .     A
C479   O540    1.294   .     A
C479   C483    1.409   .     S
C479   O543    1.294   .     A
C480   C484    1.409   .     S
C480   O541    1.294   .     A
C480   O542    1.294   .     A
C481   C502    1.420   .     A
C481   C504    1.420   .     A
C482   C503    1.420   .     A
C482   C345    1.525   1_565 S
C484   C755    1.191   .     S
C485   C490    1.391   .     A
C485   C496    1.421   .     A
C485   O529    1.383   .     S
C486   C491    1.391   .     A
C486   C497    1.422   .     A
C486   O530    1.383   .     S
C487   C492    1.391   .     A
C487   O531    1.383   .     S
C487   C497    1.421   .     A
C488   O538    1.300   .     A
C488   O536    1.299   .     A
C488   C495    1.457   .     S
C489   C496    1.422   .     A
C489   C493    1.391   .     A
C489   O532    1.383   .     S
C490   C494    1.396   .     A
C490   H507    1.083   .     S
C491   C495    1.396   .     A
C491   H515    1.084   .     S
C492   H516    1.083   .     S
C492   C495    1.396   .     A
C493   C494    1.396   .     A
C493   H517    1.084   .     S
C497   C428    1.471   1_655 S
C498   O544    1.373   .     S
C498   N523    1.380   .     A
C498   C502    1.411   .     A
C499   C503    1.411   .     A
C499   O526    1.372   .     S
C499   N524    1.380   .     A
C500   O527    1.373   .     S
C500   C504    1.411   .     A
C500   N523    1.380   .     A
C501   N524    1.380   .     A
C501   O528    1.372   .     S
C502   O533    1.382   .     S
C503   O534    1.382   .     S
C504   O535    1.382   .     S
Cu505  Cu506   2.699   .     S
Cu505  O540    1.932   .     S
Cu505  O525    1.954   .     S
Cu505  N524    2.028   .     S
Cu505  O542    1.932   .     S
Cu505  O538    1.954   .     S
Cu506  O541    1.932   .     S
Cu506  N523    2.028   .     S
Cu506  O539    1.954   .     S
Cu506  O543    1.932   .     S
Cu506  O536    1.954   .     S
H510   O464    0.988   1_655 S
H511   O533    0.989   .     S
H512   O534    0.989   .     S
H513   O535    0.989   .     S
H514   O537    0.989   .     S
H518   O544    0.987   .     S
H519   O526    0.986   .     S
H520   O527    0.987   .     S
H521   O528    0.986   .     S
H522   O461    0.988   1_655 S
O530   H440    0.988   1_655 S
O531   H441    0.988   1_655 S
C545   C562    1.457   .     S
C545   O607    1.299   .     A
C545   O593    1.300   .     A
C546   O605    1.382   .     S
C546   C569    1.411   .     A
C546   C550    1.420   .     A
C547   O608    1.294   .     A
C547   C551    1.409   .     S
C547   O611    1.294   .     A
C548   C552    1.409   .     S
C548   O609    1.294   .     A
C548   O610    1.294   .     A
C549   C570    1.420   .     A
C549   C572    1.420   .     A
C549   C686    1.525   1_545 S
C550   C571    1.420   .     A
C550   C685    1.525   .     S
C552   C7      1.191   1_556 S
C553   C558    1.391   .     A
C553   C564    1.421   .     A
C553   O597    1.383   .     S
C554   C559    1.391   .     A
C554   C565    1.422   .     A
C554   O598    1.383   .     S
C555   C560    1.391   .     A
C555   O599    1.383   .     S
C555   C565    1.421   .     A
C556   O606    1.300   .     A
C556   O604    1.299   .     A
C556   C563    1.457   .     S
C557   C564    1.422   .     A
C557   C561    1.391   .     A
C557   O600    1.383   .     S
C558   C562    1.396   .     A
C558   H575    1.083   .     S
C559   C563    1.396   .     A
C559   H583    1.084   .     S
C560   H584    1.083   .     S
C560   C563    1.396   .     A
C561   C562    1.396   .     A
C561   H585    1.084   .     S
C564   C633    1.471   1_455 S
C565   C632    1.471   .     S
C566   O612    1.373   .     S
C566   N591    1.380   .     A
C566   C570    1.411   .     A
C567   C571    1.411   .     A
C567   O594    1.372   .     S
C567   N592    1.380   .     A
C568   O595    1.373   .     S
C568   C572    1.411   .     A
C568   N591    1.380   .     A
C569   N592    1.380   .     A
C569   O596    1.372   .     S
C570   O601    1.382   .     S
C571   O602    1.382   .     S
C572   O603    1.382   .     S
Cu573  Cu574   2.699   .     S
Cu573  O608    1.932   .     S
Cu573  O593    1.954   .     S
Cu573  N592    2.028   .     S
Cu573  O610    1.932   .     S
Cu573  O606    1.954   .     S
Cu574  O609    1.932   .     S
Cu574  N591    2.028   .     S
Cu574  O607    1.954   .     S
Cu574  O611    1.932   .     S
Cu574  O604    1.954   .     S
H576   O666    0.988   1_455 S
H577   O667    0.988   1_455 S
H578   O668    0.988   .     S
H579   O601    0.989   .     S
H580   O602    0.989   .     S
H581   O603    0.989   .     S
H582   O605    0.989   .     S
H586   O612    0.987   .     S
H587   O594    0.986   .     S
H588   O595    0.987   .     S
H589   O596    0.986   .     S
H590   O665    0.988   .     S
O597   H658    0.988   1_455 S
O598   H644    0.988   .     S
O599   H645    0.988   .     S
O600   H646    0.988   1_455 S
C613   C630    1.457   .     S
C613   O675    1.299   .     A
C613   O661    1.300   .     A
C614   O673    1.382   .     S
C614   C637    1.411   .     A
C614   C618    1.420   .     A
C615   O676    1.294   .     A
C615   C619    1.409   .     S
C615   O679    1.294   .     A
C616   C620    1.409   .     S
C616   O677    1.294   .     A
C616   O678    1.294   .     A
C617   C638    1.420   .     A
C617   C640    1.420   .     A
C617   C754    1.525   1_545 S
C618   C639    1.420   .     A
C618   C753    1.525   .     S
C620   C75     1.191   1_556 S
C621   C626    1.391   .     A
C621   C632    1.421   .     A
C621   O665    1.383   .     S
C622   C627    1.391   .     A
C622   C633    1.422   .     A
C622   O666    1.383   .     S
C623   C628    1.391   .     A
C623   O667    1.383   .     S
C623   C633    1.421   .     A
C624   O674    1.300   .     A
C624   O672    1.299   .     A
C624   C631    1.457   .     S
C625   C632    1.422   .     A
C625   C629    1.391   .     A
C625   O668    1.383   .     S
C626   C630    1.396   .     A
C626   H643    1.083   .     S
C627   C631    1.396   .     A
C627   H651    1.084   .     S
C628   H652    1.083   .     S
C628   C631    1.396   .     A
C629   C630    1.396   .     A
C629   H653    1.084   .     S
C633   C564    1.471   1_655 S
C634   O680    1.373   .     S
C634   N659    1.380   .     A
C634   C638    1.411   .     A
C635   C639    1.411   .     A
C635   O662    1.372   .     S
C635   N660    1.380   .     A
C636   O663    1.373   .     S
C636   C640    1.411   .     A
C636   N659    1.380   .     A
C637   N660    1.380   .     A
C637   O664    1.372   .     S
C638   O669    1.382   .     S
C639   O670    1.382   .     S
C640   O671    1.382   .     S
Cu641  Cu642   2.699   .     S
Cu641  O676    1.932   .     S
Cu641  O661    1.954   .     S
Cu641  N660    2.028   .     S
Cu641  O678    1.932   .     S
Cu641  O674    1.954   .     S
Cu642  O677    1.932   .     S
Cu642  N659    2.028   .     S
Cu642  O675    1.954   .     S
Cu642  O679    1.932   .     S
Cu642  O672    1.954   .     S
H646   O600    0.988   1_655 S
H647   O669    0.989   .     S
H648   O670    0.989   .     S
H649   O671    0.989   .     S
H650   O673    0.989   .     S
H654   O680    0.987   .     S
H655   O662    0.986   .     S
H656   O663    0.987   .     S
H657   O664    0.986   .     S
H658   O597    0.988   1_655 S
O666   H576    0.988   1_655 S
O667   H577    0.988   1_655 S
C681   C698    1.457   .     S
C681   O743    1.299   .     A
C681   O729    1.300   .     A
C682   O741    1.382   .     S
C682   C705    1.411   .     A
C682   C686    1.420   .     A
C683   O744    1.294   .     A
C683   C687    1.409   .     S
C683   O747    1.294   .     A
C684   C688    1.409   .     S
C684   O745    1.294   .     A
C684   O746    1.294   .     A
C685   C706    1.420   .     A
C685   C708    1.420   .     A
C686   C707    1.420   .     A
C686   C549    1.525   1_565 S
C688   C143    1.191   1_556 S
C689   C694    1.391   .     A
C689   C700    1.421   .     A
C689   O733    1.383   .     S
C690   C695    1.391   .     A
C690   C701    1.422   .     A
C690   O734    1.383   .     S
C691   C696    1.391   .     A
C691   O735    1.383   .     S
C691   C701    1.421   .     A
C692   O742    1.300   .     A
C692   O740    1.299   .     A
C692   C699    1.457   .     S
C693   C700    1.422   .     A
C693   C697    1.391   .     A
C693   O736    1.383   .     S
C694   C698    1.396   .     A
C694   H711    1.083   .     S
C695   C699    1.396   .     A
C695   H719    1.084   .     S
C696   H720    1.083   .     S
C696   C699    1.396   .     A
C697   C698    1.396   .     A
C697   H721    1.084   .     S
C700   C769    1.471   1_455 S
C701   C768    1.471   .     S
C702   O748    1.373   .     S
C702   N727    1.380   .     A
C702   C706    1.411   .     A
C703   C707    1.411   .     A
C703   O730    1.372   .     S
C703   N728    1.380   .     A
C704   O731    1.373   .     S
C704   C708    1.411   .     A
C704   N727    1.380   .     A
C705   N728    1.380   .     A
C705   O732    1.372   .     S
C706   O737    1.382   .     S
C707   O738    1.382   .     S
C708   O739    1.382   .     S
Cu709  Cu710   2.699   .     S
Cu709  O744    1.932   .     S
Cu709  O729    1.954   .     S
Cu709  N728    2.028   .     S
Cu709  O746    1.932   .     S
Cu709  O742    1.954   .     S
Cu710  O745    1.932   .     S
Cu710  N727    2.028   .     S
Cu710  O743    1.954   .     S
Cu710  O747    1.932   .     S
Cu710  O740    1.954   .     S
H712   O802    0.988   1_455 S
H713   O803    0.988   1_455 S
H714   O804    0.988   .     S
H715   O737    0.989   .     S
H716   O738    0.989   .     S
H717   O739    0.989   .     S
H718   O741    0.989   .     S
H722   O748    0.987   .     S
H723   O730    0.986   .     S
H724   O731    0.987   .     S
H725   O732    0.986   .     S
H726   O801    0.988   .     S
O733   H794    0.988   1_455 S
O734   H780    0.988   .     S
O735   H781    0.988   .     S
O736   H782    0.988   1_455 S
C749   C766    1.457   .     S
C749   O811    1.299   .     A
C749   O797    1.300   .     A
C750   O809    1.382   .     S
C750   C773    1.411   .     A
C750   C754    1.420   .     A
C751   O812    1.294   .     A
C751   C755    1.409   .     S
C751   O815    1.294   .     A
C752   C756    1.409   .     S
C752   O813    1.294   .     A
C752   O814    1.294   .     A
C753   C774    1.420   .     A
C753   C776    1.420   .     A
C754   C775    1.420   .     A
C754   C617    1.525   1_565 S
C756   C211    1.191   1_556 S
C757   C762    1.391   .     A
C757   C768    1.421   .     A
C757   O801    1.383   .     S
C758   C763    1.391   .     A
C758   C769    1.422   .     A
C758   O802    1.383   .     S
C759   C764    1.391   .     A
C759   O803    1.383   .     S
C759   C769    1.421   .     A
C760   O810    1.300   .     A
C760   O808    1.299   .     A
C760   C767    1.457   .     S
C761   C768    1.422   .     A
C761   C765    1.391   .     A
C761   O804    1.383   .     S
C762   C766    1.396   .     A
C762   H779    1.083   .     S
C763   C767    1.396   .     A
C763   H787    1.084   .     S
C764   H788    1.083   .     S
C764   C767    1.396   .     A
C765   C766    1.396   .     A
C765   H789    1.084   .     S
C769   C700    1.471   1_655 S
C770   O816    1.373   .     S
C770   N795    1.380   .     A
C770   C774    1.411   .     A
C771   C775    1.411   .     A
C771   O798    1.372   .     S
C771   N796    1.380   .     A
C772   O799    1.373   .     S
C772   C776    1.411   .     A
C772   N795    1.380   .     A
C773   N796    1.380   .     A
C773   O800    1.372   .     S
C774   O805    1.382   .     S
C775   O806    1.382   .     S
C776   O807    1.382   .     S
Cu777  Cu778   2.699   .     S
Cu777  O812    1.932   .     S
Cu777  O797    1.954   .     S
Cu777  N796    2.028   .     S
Cu777  O814    1.932   .     S
Cu777  O810    1.954   .     S
Cu778  O813    1.932   .     S
Cu778  N795    2.028   .     S
Cu778  O811    1.954   .     S
Cu778  O815    1.932   .     S
Cu778  O808    1.954   .     S
H782   O736    0.988   1_655 S
H783   O805    0.989   .     S
H784   O806    0.989   .     S
H785   O807    0.989   .     S
H786   O809    0.989   .     S
H790   O816    0.987   .     S
H791   O798    0.986   .     S
H792   O799    0.987   .     S
H793   O800    0.986   .     S
H794   O733    0.988   1_655 S
O802   H712    0.988   1_655 S
O803   H713    0.988   1_655 S
