data_str_m3_o10_o18_pcu_sym.81
_audit_creation_date              2020-01-03
_audit_creation_method            'Materials Studio'
_symmetry_space_group_name_H-M    'P1'
_symmetry_Int_Tables_number       1
_symmetry_cell_setting            triclinic
loop_
_symmetry_equiv_pos_as_xyz
  x,y,z
_cell_length_a                    23.7313
_cell_length_b                    25.6296
_cell_length_c                    27.1126
_cell_angle_alpha                 94.4478
_cell_angle_beta                  92.7890
_cell_angle_gamma                 94.0135
loop_
_atom_site_label
_atom_site_type_symbol
_atom_site_fract_x
_atom_site_fract_y
_atom_site_fract_z
_atom_site_U_iso_or_equiv
_atom_site_adp_type
_atom_site_occupancy
C1     C     0.01493   0.26479   0.24894   0.00000  Uiso   1.00
C2     C     0.31249   0.16244   0.15849   0.00000  Uiso   1.00
C3     C     0.03403   0.18610   0.39419   0.00000  Uiso   1.00
C4     C     0.30337   0.15992   0.10461   0.00000  Uiso   1.00
C5     C     0.03260   0.24696   0.46710   0.00000  Uiso   1.00
C6     C     0.31853   0.12232   0.02212   0.00000  Uiso   1.00
C7     C     0.00856   0.22697   0.42047   0.00000  Uiso   1.00
C8     C     0.00231   0.12971   0.07252   0.00000  Uiso   1.00
C9     C     0.08272   0.16687   0.41404   0.00000  Uiso   1.00
C10    C     0.25856   0.18607   0.08567   0.00000  Uiso   1.00
C11    C     0.11215   0.19263   0.45570   0.00000  Uiso   1.00
C12    C     0.31845   0.06857   0.25132   0.00000  Uiso   1.00
C13    C     0.24117   0.17915   0.03544   0.00000  Uiso   1.00
C14    C     0.08514   0.23130   0.48400   0.00000  Uiso   1.00
C15    C     0.27091   0.14538   0.00387   0.00000  Uiso   1.00
C16    C     0.16749   0.18038   0.46993   0.00000  Uiso   1.00
C17    C     0.19142   0.20028   0.01704   0.00000  Uiso   1.00
C18    C     0.09674   0.11842   0.07468   0.00000  Uiso   1.00
C19    C     0.30812   0.29836   0.38752   0.00000  Uiso   1.00
C20    C     0.16388   0.23932   0.04453   0.00000  Uiso   1.00
C21    C     0.19996   0.14954   0.43823   0.00000  Uiso   1.00
C22    C     0.11172   0.25480   0.02792   0.00000  Uiso   1.00
C23    C     0.25124   0.13289   0.45493   0.00000  Uiso   1.00
C24    C     0.02271   0.31940   0.24849   0.00000  Uiso   1.00
C25    C     0.31073   0.01399   0.25225   0.00000  Uiso   1.00
C26    C     0.02119   0.17223   0.34141   0.00000  Uiso   1.00
H27    H     0.09200   0.28505   0.04969   0.00000  Uiso   1.00
H28    H     0.26798   0.33034   0.25590   0.00000  Uiso   1.00
H29    H     0.11034   0.15794   0.09284   0.00000  Uiso   1.00
H30    H     0.09654   0.11874   0.03374   0.00000  Uiso   1.00
H31    H     0.12869   0.09114   0.08503   0.00000  Uiso   1.00
H32    H     0.01094   0.29945   0.36278   0.00000  Uiso   1.00
H33    H     0.31762   0.32619   0.42091   0.00000  Uiso   1.00
H34    H     0.27133   0.31213   0.36681   0.00000  Uiso   1.00
H35    H     0.27441   0.10832   0.42997   0.00000  Uiso   1.00
H36    H     0.23495   0.20848   0.11170   0.00000  Uiso   1.00
H37    H     0.09877   0.13329   0.39431   0.00000  Uiso   1.00
H38    H     0.01187   0.27671   0.48861   0.00000  Uiso   1.00
H39    H     0.00695   0.09580   0.49783   0.00000  Uiso   1.00
H40    H     0.18241   0.25951   0.07849   0.00000  Uiso   1.00
H41    H     0.18718   0.13849   0.39989   0.00000  Uiso   1.00
H42    H     0.06548   0.00306   0.24495   0.00000  Uiso   1.00
I43    I     0.16599   0.08708   0.19285   0.00000  Uiso   1.00
I44    I     0.16723   0.24391   0.31027   0.00000  Uiso   1.00
N45    N     0.14695   0.15216   0.23739   0.00000  Uiso   1.00
N46    N     0.18638   0.18117   0.26260   0.00000  Uiso   1.00
O47    O     0.29719   0.24631   0.25309   0.00000  Uiso   1.00
O48    O     0.29390   0.24702   0.40064   0.00000  Uiso   1.00
O49    O     0.03614   0.08702   0.24690   0.00000  Uiso   1.00
O50    O     0.05822   0.23702   0.24501   0.00000  Uiso   1.00
O51    O     0.27512   0.09632   0.25498   0.00000  Uiso   1.00
O52    O     0.30328   0.17397   0.32247   0.00000  Uiso   1.00
O53    O     0.03005   0.15937   0.17753   0.00000  Uiso   1.00
O54    O     0.06431   0.16467   0.31439   0.00000  Uiso   1.00
O55    O     0.26902   0.16866   0.18561   0.00000  Uiso   1.00
O56    O     0.04403   0.10054   0.09144   0.00000  Uiso   1.00
Zn57   Zn    0.27033   0.17287   0.25539   0.00000  Uiso   1.00
Zn58   Zn    0.06300   0.16046   0.24460   0.00000  Uiso   1.00
C59    C     0.34826   0.26479   0.24894   0.00000  Uiso   1.00
C60    C     0.64582   0.16244   0.15849   0.00000  Uiso   1.00
C61    C     0.36736   0.18610   0.39419   0.00000  Uiso   1.00
C62    C     0.63670   0.15992   0.10461   0.00000  Uiso   1.00
C63    C     0.36593   0.24696   0.46710   0.00000  Uiso   1.00
C64    C     0.65186   0.12232   0.02212   0.00000  Uiso   1.00
C65    C     0.34189   0.22697   0.42047   0.00000  Uiso   1.00
C66    C     0.33564   0.12971   0.07252   0.00000  Uiso   1.00
C67    C     0.41605   0.16687   0.41404   0.00000  Uiso   1.00
C68    C     0.59189   0.18607   0.08567   0.00000  Uiso   1.00
C69    C     0.44548   0.19263   0.45570   0.00000  Uiso   1.00
C70    C     0.65178   0.06857   0.25132   0.00000  Uiso   1.00
C71    C     0.57451   0.17915   0.03544   0.00000  Uiso   1.00
C72    C     0.41847   0.23130   0.48400   0.00000  Uiso   1.00
C73    C     0.60424   0.14538   0.00387   0.00000  Uiso   1.00
C74    C     0.50083   0.18038   0.46993   0.00000  Uiso   1.00
C75    C     0.52475   0.20028   0.01704   0.00000  Uiso   1.00
C76    C     0.43007   0.11842   0.07468   0.00000  Uiso   1.00
C77    C     0.64146   0.29836   0.38752   0.00000  Uiso   1.00
C78    C     0.49721   0.23932   0.04453   0.00000  Uiso   1.00
C79    C     0.53329   0.14954   0.43823   0.00000  Uiso   1.00
C80    C     0.44505   0.25480   0.02792   0.00000  Uiso   1.00
C81    C     0.58457   0.13289   0.45493   0.00000  Uiso   1.00
C82    C     0.35605   0.31940   0.24849   0.00000  Uiso   1.00
C83    C     0.64407   0.01399   0.25225   0.00000  Uiso   1.00
C84    C     0.35453   0.17223   0.34141   0.00000  Uiso   1.00
H85    H     0.42533   0.28505   0.04969   0.00000  Uiso   1.00
H86    H     0.60131   0.33034   0.25590   0.00000  Uiso   1.00
H87    H     0.44367   0.15794   0.09284   0.00000  Uiso   1.00
H88    H     0.42987   0.11874   0.03374   0.00000  Uiso   1.00
H89    H     0.46202   0.09114   0.08503   0.00000  Uiso   1.00
H90    H     0.34427   0.29945   0.36278   0.00000  Uiso   1.00
H91    H     0.65095   0.32619   0.42091   0.00000  Uiso   1.00
H92    H     0.60466   0.31213   0.36681   0.00000  Uiso   1.00
H93    H     0.60775   0.10832   0.42997   0.00000  Uiso   1.00
H94    H     0.56829   0.20848   0.11170   0.00000  Uiso   1.00
H95    H     0.43210   0.13329   0.39431   0.00000  Uiso   1.00
H96    H     0.34521   0.27671   0.48861   0.00000  Uiso   1.00
H97    H     0.34028   0.09580   0.49783   0.00000  Uiso   1.00
H98    H     0.51575   0.25951   0.07849   0.00000  Uiso   1.00
H99    H     0.52051   0.13849   0.39989   0.00000  Uiso   1.00
H100   H     0.39881   0.00306   0.24495   0.00000  Uiso   1.00
I101   I     0.49933   0.08708   0.19285   0.00000  Uiso   1.00
I102   I     0.50056   0.24391   0.31027   0.00000  Uiso   1.00
N103   N     0.48029   0.15216   0.23739   0.00000  Uiso   1.00
N104   N     0.51971   0.18117   0.26260   0.00000  Uiso   1.00
O105   O     0.63052   0.24631   0.25309   0.00000  Uiso   1.00
O106   O     0.62724   0.24702   0.40064   0.00000  Uiso   1.00
O107   O     0.36948   0.08702   0.24690   0.00000  Uiso   1.00
O108   O     0.39155   0.23702   0.24501   0.00000  Uiso   1.00
O109   O     0.60845   0.09632   0.25498   0.00000  Uiso   1.00
O110   O     0.63662   0.17397   0.32247   0.00000  Uiso   1.00
O111   O     0.36338   0.15937   0.17753   0.00000  Uiso   1.00
O112   O     0.39764   0.16467   0.31439   0.00000  Uiso   1.00
O113   O     0.60236   0.16866   0.18561   0.00000  Uiso   1.00
O114   O     0.37737   0.10054   0.09144   0.00000  Uiso   1.00
Zn115  Zn    0.60366   0.17287   0.25539   0.00000  Uiso   1.00
Zn116  Zn    0.39634   0.16046   0.24460   0.00000  Uiso   1.00
C117   C     0.68159   0.26479   0.24894   0.00000  Uiso   1.00
C118   C     0.97915   0.16244   0.15849   0.00000  Uiso   1.00
C119   C     0.70070   0.18610   0.39419   0.00000  Uiso   1.00
C120   C     0.97003   0.15992   0.10461   0.00000  Uiso   1.00
C121   C     0.69926   0.24696   0.46710   0.00000  Uiso   1.00
C122   C     0.98519   0.12232   0.02212   0.00000  Uiso   1.00
C123   C     0.67523   0.22697   0.42047   0.00000  Uiso   1.00
C124   C     0.66897   0.12971   0.07252   0.00000  Uiso   1.00
C125   C     0.74938   0.16687   0.41404   0.00000  Uiso   1.00
C126   C     0.92523   0.18607   0.08567   0.00000  Uiso   1.00
C127   C     0.77882   0.19263   0.45570   0.00000  Uiso   1.00
C128   C     0.98511   0.06857   0.25132   0.00000  Uiso   1.00
C129   C     0.90784   0.17915   0.03544   0.00000  Uiso   1.00
C130   C     0.75181   0.23130   0.48400   0.00000  Uiso   1.00
C131   C     0.93757   0.14538   0.00387   0.00000  Uiso   1.00
C132   C     0.83416   0.18038   0.46993   0.00000  Uiso   1.00
C133   C     0.85808   0.20028   0.01704   0.00000  Uiso   1.00
C134   C     0.76340   0.11842   0.07468   0.00000  Uiso   1.00
C135   C     0.97479   0.29836   0.38752   0.00000  Uiso   1.00
C136   C     0.83054   0.23932   0.04453   0.00000  Uiso   1.00
C137   C     0.86663   0.14954   0.43823   0.00000  Uiso   1.00
C138   C     0.77839   0.25480   0.02792   0.00000  Uiso   1.00
C139   C     0.91790   0.13289   0.45493   0.00000  Uiso   1.00
C140   C     0.68938   0.31940   0.24849   0.00000  Uiso   1.00
C141   C     0.97740   0.01399   0.25225   0.00000  Uiso   1.00
C142   C     0.68786   0.17223   0.34141   0.00000  Uiso   1.00
H143   H     0.75866   0.28505   0.04969   0.00000  Uiso   1.00
H144   H     0.93465   0.33034   0.25590   0.00000  Uiso   1.00
H145   H     0.77701   0.15794   0.09284   0.00000  Uiso   1.00
H146   H     0.76320   0.11874   0.03374   0.00000  Uiso   1.00
H147   H     0.79536   0.09114   0.08503   0.00000  Uiso   1.00
H148   H     0.67760   0.29945   0.36278   0.00000  Uiso   1.00
H149   H     0.98429   0.32619   0.42091   0.00000  Uiso   1.00
H150   H     0.93800   0.31213   0.36681   0.00000  Uiso   1.00
H151   H     0.94108   0.10832   0.42997   0.00000  Uiso   1.00
H152   H     0.90162   0.20848   0.11170   0.00000  Uiso   1.00
H153   H     0.76544   0.13329   0.39431   0.00000  Uiso   1.00
H154   H     0.67854   0.27671   0.48861   0.00000  Uiso   1.00
H155   H     0.67362   0.09580   0.49783   0.00000  Uiso   1.00
H156   H     0.84908   0.25951   0.07849   0.00000  Uiso   1.00
H157   H     0.85384   0.13849   0.39989   0.00000  Uiso   1.00
H158   H     0.73215   0.00306   0.24495   0.00000  Uiso   1.00
I159   I     0.83266   0.08708   0.19285   0.00000  Uiso   1.00
I160   I     0.83389   0.24391   0.31027   0.00000  Uiso   1.00
N161   N     0.81362   0.15216   0.23739   0.00000  Uiso   1.00
N162   N     0.85305   0.18117   0.26260   0.00000  Uiso   1.00
O163   O     0.96386   0.24631   0.25309   0.00000  Uiso   1.00
O164   O     0.96057   0.24702   0.40064   0.00000  Uiso   1.00
O165   O     0.70281   0.08702   0.24690   0.00000  Uiso   1.00
O166   O     0.72488   0.23702   0.24501   0.00000  Uiso   1.00
O167   O     0.94178   0.09632   0.25498   0.00000  Uiso   1.00
O168   O     0.96995   0.17397   0.32247   0.00000  Uiso   1.00
O169   O     0.69672   0.15937   0.17753   0.00000  Uiso   1.00
O170   O     0.73098   0.16467   0.31439   0.00000  Uiso   1.00
O171   O     0.93569   0.16866   0.18561   0.00000  Uiso   1.00
O172   O     0.71070   0.10054   0.09144   0.00000  Uiso   1.00
Zn173  Zn    0.93700   0.17287   0.25539   0.00000  Uiso   1.00
Zn174  Zn    0.72967   0.16046   0.24460   0.00000  Uiso   1.00
C175   C     0.01493   0.59812   0.24894   0.00000  Uiso   1.00
C176   C     0.31249   0.49578   0.15849   0.00000  Uiso   1.00
C177   C     0.03403   0.51943   0.39419   0.00000  Uiso   1.00
C178   C     0.30337   0.49325   0.10461   0.00000  Uiso   1.00
C179   C     0.03260   0.58029   0.46710   0.00000  Uiso   1.00
C180   C     0.31853   0.45566   0.02212   0.00000  Uiso   1.00
C181   C     0.00856   0.56031   0.42047   0.00000  Uiso   1.00
C182   C     0.00231   0.46304   0.07252   0.00000  Uiso   1.00
C183   C     0.08272   0.50020   0.41404   0.00000  Uiso   1.00
C184   C     0.25856   0.51940   0.08567   0.00000  Uiso   1.00
C185   C     0.11215   0.52597   0.45570   0.00000  Uiso   1.00
C186   C     0.31845   0.40190   0.25132   0.00000  Uiso   1.00
C187   C     0.24117   0.51248   0.03544   0.00000  Uiso   1.00
C188   C     0.08514   0.56463   0.48400   0.00000  Uiso   1.00
C189   C     0.27091   0.47872   0.00387   0.00000  Uiso   1.00
C190   C     0.16749   0.51372   0.46993   0.00000  Uiso   1.00
C191   C     0.19142   0.53362   0.01704   0.00000  Uiso   1.00
C192   C     0.09674   0.45175   0.07468   0.00000  Uiso   1.00
C193   C     0.30812   0.63169   0.38752   0.00000  Uiso   1.00
C194   C     0.16388   0.57266   0.04453   0.00000  Uiso   1.00
C195   C     0.19996   0.48287   0.43823   0.00000  Uiso   1.00
C196   C     0.11172   0.58813   0.02792   0.00000  Uiso   1.00
C197   C     0.25124   0.46622   0.45493   0.00000  Uiso   1.00
C198   C     0.02271   0.65273   0.24849   0.00000  Uiso   1.00
C199   C     0.31073   0.34733   0.25225   0.00000  Uiso   1.00
C200   C     0.02119   0.50556   0.34141   0.00000  Uiso   1.00
H201   H     0.09200   0.61838   0.04969   0.00000  Uiso   1.00
H202   H     0.26798   0.66367   0.25590   0.00000  Uiso   1.00
H203   H     0.11034   0.49128   0.09284   0.00000  Uiso   1.00
H204   H     0.09654   0.45208   0.03374   0.00000  Uiso   1.00
H205   H     0.12869   0.42447   0.08503   0.00000  Uiso   1.00
H206   H     0.01094   0.63278   0.36278   0.00000  Uiso   1.00
H207   H     0.31762   0.65952   0.42091   0.00000  Uiso   1.00
H208   H     0.27133   0.64547   0.36681   0.00000  Uiso   1.00
H209   H     0.27441   0.44165   0.42997   0.00000  Uiso   1.00
H210   H     0.23495   0.54181   0.11170   0.00000  Uiso   1.00
H211   H     0.09877   0.46662   0.39431   0.00000  Uiso   1.00
H212   H     0.01187   0.61004   0.48861   0.00000  Uiso   1.00
H213   H     0.00695   0.42913   0.49783   0.00000  Uiso   1.00
H214   H     0.18241   0.59284   0.07849   0.00000  Uiso   1.00
H215   H     0.18718   0.47183   0.39989   0.00000  Uiso   1.00
H216   H     0.06548   0.33639   0.24495   0.00000  Uiso   1.00
I217   I     0.16599   0.42041   0.19285   0.00000  Uiso   1.00
I218   I     0.16723   0.57724   0.31027   0.00000  Uiso   1.00
N219   N     0.14695   0.48550   0.23739   0.00000  Uiso   1.00
N220   N     0.18638   0.51450   0.26260   0.00000  Uiso   1.00
O221   O     0.29719   0.57964   0.25309   0.00000  Uiso   1.00
O222   O     0.29390   0.58035   0.40064   0.00000  Uiso   1.00
O223   O     0.03614   0.42036   0.24690   0.00000  Uiso   1.00
O224   O     0.05822   0.57035   0.24501   0.00000  Uiso   1.00
O225   O     0.27512   0.42965   0.25498   0.00000  Uiso   1.00
O226   O     0.30328   0.50730   0.32247   0.00000  Uiso   1.00
O227   O     0.03005   0.49270   0.17753   0.00000  Uiso   1.00
O228   O     0.06431   0.49801   0.31439   0.00000  Uiso   1.00
O229   O     0.26902   0.50199   0.18561   0.00000  Uiso   1.00
O230   O     0.04403   0.43388   0.09144   0.00000  Uiso   1.00
Zn231  Zn    0.27033   0.50621   0.25539   0.00000  Uiso   1.00
Zn232  Zn    0.06300   0.49379   0.24460   0.00000  Uiso   1.00
C233   C     0.34826   0.59812   0.24894   0.00000  Uiso   1.00
C234   C     0.64582   0.49578   0.15849   0.00000  Uiso   1.00
C235   C     0.36736   0.51943   0.39419   0.00000  Uiso   1.00
C236   C     0.63670   0.49325   0.10461   0.00000  Uiso   1.00
C237   C     0.36593   0.58029   0.46710   0.00000  Uiso   1.00
C238   C     0.65186   0.45566   0.02212   0.00000  Uiso   1.00
C239   C     0.34189   0.56031   0.42047   0.00000  Uiso   1.00
C240   C     0.33564   0.46304   0.07252   0.00000  Uiso   1.00
C241   C     0.41605   0.50020   0.41404   0.00000  Uiso   1.00
C242   C     0.59189   0.51940   0.08567   0.00000  Uiso   1.00
C243   C     0.44548   0.52597   0.45570   0.00000  Uiso   1.00
C244   C     0.65178   0.40190   0.25132   0.00000  Uiso   1.00
C245   C     0.57451   0.51248   0.03544   0.00000  Uiso   1.00
C246   C     0.41847   0.56463   0.48400   0.00000  Uiso   1.00
C247   C     0.60424   0.47872   0.00387   0.00000  Uiso   1.00
C248   C     0.50083   0.51372   0.46993   0.00000  Uiso   1.00
C249   C     0.52475   0.53362   0.01704   0.00000  Uiso   1.00
C250   C     0.43007   0.45175   0.07468   0.00000  Uiso   1.00
C251   C     0.64146   0.63169   0.38752   0.00000  Uiso   1.00
C252   C     0.49721   0.57266   0.04453   0.00000  Uiso   1.00
C253   C     0.53329   0.48287   0.43823   0.00000  Uiso   1.00
C254   C     0.44505   0.58813   0.02792   0.00000  Uiso   1.00
C255   C     0.58457   0.46622   0.45493   0.00000  Uiso   1.00
C256   C     0.35605   0.65273   0.24849   0.00000  Uiso   1.00
C257   C     0.64407   0.34733   0.25225   0.00000  Uiso   1.00
C258   C     0.35453   0.50556   0.34141   0.00000  Uiso   1.00
H259   H     0.42533   0.61838   0.04969   0.00000  Uiso   1.00
H260   H     0.60131   0.66367   0.25590   0.00000  Uiso   1.00
H261   H     0.44367   0.49128   0.09284   0.00000  Uiso   1.00
H262   H     0.42987   0.45208   0.03374   0.00000  Uiso   1.00
H263   H     0.46202   0.42447   0.08503   0.00000  Uiso   1.00
H264   H     0.34427   0.63278   0.36278   0.00000  Uiso   1.00
H265   H     0.65095   0.65952   0.42091   0.00000  Uiso   1.00
H266   H     0.60466   0.64547   0.36681   0.00000  Uiso   1.00
H267   H     0.60775   0.44165   0.42997   0.00000  Uiso   1.00
H268   H     0.56829   0.54181   0.11170   0.00000  Uiso   1.00
H269   H     0.43210   0.46662   0.39431   0.00000  Uiso   1.00
H270   H     0.34521   0.61004   0.48861   0.00000  Uiso   1.00
H271   H     0.34028   0.42913   0.49783   0.00000  Uiso   1.00
H272   H     0.51575   0.59284   0.07849   0.00000  Uiso   1.00
H273   H     0.52051   0.47183   0.39989   0.00000  Uiso   1.00
H274   H     0.39881   0.33639   0.24495   0.00000  Uiso   1.00
I275   I     0.49933   0.42041   0.19285   0.00000  Uiso   1.00
I276   I     0.50056   0.57724   0.31027   0.00000  Uiso   1.00
N277   N     0.48029   0.48550   0.23739   0.00000  Uiso   1.00
N278   N     0.51971   0.51450   0.26260   0.00000  Uiso   1.00
O279   O     0.63052   0.57964   0.25309   0.00000  Uiso   1.00
O280   O     0.62724   0.58035   0.40064   0.00000  Uiso   1.00
O281   O     0.36948   0.42036   0.24690   0.00000  Uiso   1.00
O282   O     0.39155   0.57035   0.24501   0.00000  Uiso   1.00
O283   O     0.60845   0.42965   0.25498   0.00000  Uiso   1.00
O284   O     0.63662   0.50730   0.32247   0.00000  Uiso   1.00
O285   O     0.36338   0.49270   0.17753   0.00000  Uiso   1.00
O286   O     0.39764   0.49801   0.31439   0.00000  Uiso   1.00
O287   O     0.60236   0.50199   0.18561   0.00000  Uiso   1.00
O288   O     0.37737   0.43388   0.09144   0.00000  Uiso   1.00
Zn289  Zn    0.60366   0.50621   0.25539   0.00000  Uiso   1.00
Zn290  Zn    0.39634   0.49379   0.24460   0.00000  Uiso   1.00
C291   C     0.68159   0.59812   0.24894   0.00000  Uiso   1.00
C292   C     0.97915   0.49578   0.15849   0.00000  Uiso   1.00
C293   C     0.70070   0.51943   0.39419   0.00000  Uiso   1.00
C294   C     0.97003   0.49325   0.10461   0.00000  Uiso   1.00
C295   C     0.69926   0.58029   0.46710   0.00000  Uiso   1.00
C296   C     0.98519   0.45566   0.02212   0.00000  Uiso   1.00
C297   C     0.67523   0.56031   0.42047   0.00000  Uiso   1.00
C298   C     0.66897   0.46304   0.07252   0.00000  Uiso   1.00
C299   C     0.74938   0.50020   0.41404   0.00000  Uiso   1.00
C300   C     0.92523   0.51940   0.08567   0.00000  Uiso   1.00
C301   C     0.77882   0.52597   0.45570   0.00000  Uiso   1.00
C302   C     0.98511   0.40190   0.25132   0.00000  Uiso   1.00
C303   C     0.90784   0.51248   0.03544   0.00000  Uiso   1.00
C304   C     0.75181   0.56463   0.48400   0.00000  Uiso   1.00
C305   C     0.93757   0.47872   0.00387   0.00000  Uiso   1.00
C306   C     0.83416   0.51372   0.46993   0.00000  Uiso   1.00
C307   C     0.85808   0.53362   0.01704   0.00000  Uiso   1.00
C308   C     0.76340   0.45175   0.07468   0.00000  Uiso   1.00
C309   C     0.97479   0.63169   0.38752   0.00000  Uiso   1.00
C310   C     0.83054   0.57266   0.04453   0.00000  Uiso   1.00
C311   C     0.86663   0.48287   0.43823   0.00000  Uiso   1.00
C312   C     0.77839   0.58813   0.02792   0.00000  Uiso   1.00
C313   C     0.91790   0.46622   0.45493   0.00000  Uiso   1.00
C314   C     0.68938   0.65273   0.24849   0.00000  Uiso   1.00
C315   C     0.97740   0.34733   0.25225   0.00000  Uiso   1.00
C316   C     0.68786   0.50556   0.34141   0.00000  Uiso   1.00
H317   H     0.75866   0.61838   0.04969   0.00000  Uiso   1.00
H318   H     0.93465   0.66367   0.25590   0.00000  Uiso   1.00
H319   H     0.77701   0.49128   0.09284   0.00000  Uiso   1.00
H320   H     0.76320   0.45208   0.03374   0.00000  Uiso   1.00
H321   H     0.79536   0.42447   0.08503   0.00000  Uiso   1.00
H322   H     0.67760   0.63278   0.36278   0.00000  Uiso   1.00
H323   H     0.98429   0.65952   0.42091   0.00000  Uiso   1.00
H324   H     0.93800   0.64547   0.36681   0.00000  Uiso   1.00
H325   H     0.94108   0.44165   0.42997   0.00000  Uiso   1.00
H326   H     0.90162   0.54181   0.11170   0.00000  Uiso   1.00
H327   H     0.76544   0.46662   0.39431   0.00000  Uiso   1.00
H328   H     0.67854   0.61004   0.48861   0.00000  Uiso   1.00
H329   H     0.67362   0.42913   0.49783   0.00000  Uiso   1.00
H330   H     0.84908   0.59284   0.07849   0.00000  Uiso   1.00
H331   H     0.85384   0.47183   0.39989   0.00000  Uiso   1.00
H332   H     0.73215   0.33639   0.24495   0.00000  Uiso   1.00
I333   I     0.83266   0.42041   0.19285   0.00000  Uiso   1.00
I334   I     0.83389   0.57724   0.31027   0.00000  Uiso   1.00
N335   N     0.81362   0.48550   0.23739   0.00000  Uiso   1.00
N336   N     0.85305   0.51450   0.26260   0.00000  Uiso   1.00
O337   O     0.96386   0.57964   0.25309   0.00000  Uiso   1.00
O338   O     0.96057   0.58035   0.40064   0.00000  Uiso   1.00
O339   O     0.70281   0.42036   0.24690   0.00000  Uiso   1.00
O340   O     0.72488   0.57035   0.24501   0.00000  Uiso   1.00
O341   O     0.94178   0.42965   0.25498   0.00000  Uiso   1.00
O342   O     0.96995   0.50730   0.32247   0.00000  Uiso   1.00
O343   O     0.69672   0.49270   0.17753   0.00000  Uiso   1.00
O344   O     0.73098   0.49801   0.31439   0.00000  Uiso   1.00
O345   O     0.93569   0.50199   0.18561   0.00000  Uiso   1.00
O346   O     0.71070   0.43388   0.09144   0.00000  Uiso   1.00
Zn347  Zn    0.93700   0.50621   0.25539   0.00000  Uiso   1.00
Zn348  Zn    0.72967   0.49379   0.24460   0.00000  Uiso   1.00
C349   C     0.01493   0.93145   0.24894   0.00000  Uiso   1.00
C350   C     0.31249   0.82911   0.15849   0.00000  Uiso   1.00
C351   C     0.03403   0.85277   0.39419   0.00000  Uiso   1.00
C352   C     0.30337   0.82659   0.10461   0.00000  Uiso   1.00
C353   C     0.03260   0.91363   0.46710   0.00000  Uiso   1.00
C354   C     0.31853   0.78899   0.02212   0.00000  Uiso   1.00
C355   C     0.00856   0.89364   0.42047   0.00000  Uiso   1.00
C356   C     0.00231   0.79637   0.07252   0.00000  Uiso   1.00
C357   C     0.08272   0.83353   0.41404   0.00000  Uiso   1.00
C358   C     0.25856   0.85273   0.08567   0.00000  Uiso   1.00
C359   C     0.11215   0.85930   0.45570   0.00000  Uiso   1.00
C360   C     0.31845   0.73523   0.25132   0.00000  Uiso   1.00
C361   C     0.24117   0.84581   0.03544   0.00000  Uiso   1.00
C362   C     0.08514   0.89797   0.48400   0.00000  Uiso   1.00
C363   C     0.27091   0.81205   0.00387   0.00000  Uiso   1.00
C364   C     0.16749   0.84705   0.46993   0.00000  Uiso   1.00
C365   C     0.19142   0.86695   0.01704   0.00000  Uiso   1.00
C366   C     0.09674   0.78509   0.07468   0.00000  Uiso   1.00
C367   C     0.30812   0.96503   0.38752   0.00000  Uiso   1.00
C368   C     0.16388   0.90599   0.04453   0.00000  Uiso   1.00
C369   C     0.19996   0.81620   0.43823   0.00000  Uiso   1.00
C370   C     0.11172   0.92147   0.02792   0.00000  Uiso   1.00
C371   C     0.25124   0.79955   0.45493   0.00000  Uiso   1.00
C372   C     0.02271   0.98606   0.24849   0.00000  Uiso   1.00
C373   C     0.31073   0.68066   0.25225   0.00000  Uiso   1.00
C374   C     0.02119   0.83889   0.34141   0.00000  Uiso   1.00
H375   H     0.09200   0.95172   0.04969   0.00000  Uiso   1.00
H376   H     0.26798   0.99701   0.25590   0.00000  Uiso   1.00
H377   H     0.11034   0.82461   0.09284   0.00000  Uiso   1.00
H378   H     0.09654   0.78541   0.03374   0.00000  Uiso   1.00
H379   H     0.12869   0.75781   0.08503   0.00000  Uiso   1.00
H380   H     0.01094   0.96612   0.36278   0.00000  Uiso   1.00
H381   H     0.31762   0.99285   0.42091   0.00000  Uiso   1.00
H382   H     0.27133   0.97880   0.36681   0.00000  Uiso   1.00
H383   H     0.27441   0.77498   0.42997   0.00000  Uiso   1.00
H384   H     0.23495   0.87514   0.11170   0.00000  Uiso   1.00
H385   H     0.09877   0.79995   0.39431   0.00000  Uiso   1.00
H386   H     0.01187   0.94338   0.48861   0.00000  Uiso   1.00
H387   H     0.00695   0.76246   0.49783   0.00000  Uiso   1.00
H388   H     0.18241   0.92617   0.07849   0.00000  Uiso   1.00
H389   H     0.18718   0.80516   0.39989   0.00000  Uiso   1.00
H390   H     0.06548   0.66972   0.24495   0.00000  Uiso   1.00
I391   I     0.16599   0.75375   0.19285   0.00000  Uiso   1.00
I392   I     0.16723   0.91058   0.31027   0.00000  Uiso   1.00
N393   N     0.14695   0.81883   0.23739   0.00000  Uiso   1.00
N394   N     0.18638   0.84784   0.26260   0.00000  Uiso   1.00
O395   O     0.29719   0.91298   0.25309   0.00000  Uiso   1.00
O396   O     0.29390   0.91368   0.40064   0.00000  Uiso   1.00
O397   O     0.03614   0.75369   0.24690   0.00000  Uiso   1.00
O398   O     0.05822   0.90368   0.24501   0.00000  Uiso   1.00
O399   O     0.27512   0.76298   0.25498   0.00000  Uiso   1.00
O400   O     0.30328   0.84063   0.32247   0.00000  Uiso   1.00
O401   O     0.03005   0.82603   0.17753   0.00000  Uiso   1.00
O402   O     0.06431   0.83134   0.31439   0.00000  Uiso   1.00
O403   O     0.26902   0.83533   0.18561   0.00000  Uiso   1.00
O404   O     0.04403   0.76721   0.09144   0.00000  Uiso   1.00
Zn405  Zn    0.27033   0.83954   0.25539   0.00000  Uiso   1.00
Zn406  Zn    0.06300   0.82713   0.24460   0.00000  Uiso   1.00
C407   C     0.34826   0.93145   0.24894   0.00000  Uiso   1.00
C408   C     0.64582   0.82911   0.15849   0.00000  Uiso   1.00
C409   C     0.36736   0.85277   0.39419   0.00000  Uiso   1.00
C410   C     0.63670   0.82659   0.10461   0.00000  Uiso   1.00
C411   C     0.36593   0.91363   0.46710   0.00000  Uiso   1.00
C412   C     0.65186   0.78899   0.02212   0.00000  Uiso   1.00
C413   C     0.34189   0.89364   0.42047   0.00000  Uiso   1.00
C414   C     0.33564   0.79637   0.07252   0.00000  Uiso   1.00
C415   C     0.41605   0.83353   0.41404   0.00000  Uiso   1.00
C416   C     0.59189   0.85273   0.08567   0.00000  Uiso   1.00
C417   C     0.44548   0.85930   0.45570   0.00000  Uiso   1.00
C418   C     0.65178   0.73523   0.25132   0.00000  Uiso   1.00
C419   C     0.57451   0.84581   0.03544   0.00000  Uiso   1.00
C420   C     0.41847   0.89797   0.48400   0.00000  Uiso   1.00
C421   C     0.60424   0.81205   0.00387   0.00000  Uiso   1.00
C422   C     0.50083   0.84705   0.46993   0.00000  Uiso   1.00
C423   C     0.52475   0.86695   0.01704   0.00000  Uiso   1.00
C424   C     0.43007   0.78509   0.07468   0.00000  Uiso   1.00
C425   C     0.64146   0.96503   0.38752   0.00000  Uiso   1.00
C426   C     0.49721   0.90599   0.04453   0.00000  Uiso   1.00
C427   C     0.53329   0.81620   0.43823   0.00000  Uiso   1.00
C428   C     0.44505   0.92147   0.02792   0.00000  Uiso   1.00
C429   C     0.58457   0.79955   0.45493   0.00000  Uiso   1.00
C430   C     0.35605   0.98606   0.24849   0.00000  Uiso   1.00
C431   C     0.64407   0.68066   0.25225   0.00000  Uiso   1.00
C432   C     0.35453   0.83889   0.34141   0.00000  Uiso   1.00
H433   H     0.42533   0.95172   0.04969   0.00000  Uiso   1.00
H434   H     0.60131   0.99701   0.25590   0.00000  Uiso   1.00
H435   H     0.44367   0.82461   0.09284   0.00000  Uiso   1.00
H436   H     0.42987   0.78541   0.03374   0.00000  Uiso   1.00
H437   H     0.46202   0.75781   0.08503   0.00000  Uiso   1.00
H438   H     0.34427   0.96612   0.36278   0.00000  Uiso   1.00
H439   H     0.65095   0.99285   0.42091   0.00000  Uiso   1.00
H440   H     0.60466   0.97880   0.36681   0.00000  Uiso   1.00
H441   H     0.60775   0.77498   0.42997   0.00000  Uiso   1.00
H442   H     0.56829   0.87514   0.11170   0.00000  Uiso   1.00
H443   H     0.43210   0.79995   0.39431   0.00000  Uiso   1.00
H444   H     0.34521   0.94338   0.48861   0.00000  Uiso   1.00
H445   H     0.34028   0.76246   0.49783   0.00000  Uiso   1.00
H446   H     0.51575   0.92617   0.07849   0.00000  Uiso   1.00
H447   H     0.52051   0.80516   0.39989   0.00000  Uiso   1.00
H448   H     0.39881   0.66972   0.24495   0.00000  Uiso   1.00
I449   I     0.49933   0.75375   0.19285   0.00000  Uiso   1.00
I450   I     0.50056   0.91058   0.31027   0.00000  Uiso   1.00
N451   N     0.48029   0.81883   0.23739   0.00000  Uiso   1.00
N452   N     0.51971   0.84784   0.26260   0.00000  Uiso   1.00
O453   O     0.63052   0.91298   0.25309   0.00000  Uiso   1.00
O454   O     0.62724   0.91368   0.40064   0.00000  Uiso   1.00
O455   O     0.36948   0.75369   0.24690   0.00000  Uiso   1.00
O456   O     0.39155   0.90368   0.24501   0.00000  Uiso   1.00
O457   O     0.60845   0.76298   0.25498   0.00000  Uiso   1.00
O458   O     0.63662   0.84063   0.32247   0.00000  Uiso   1.00
O459   O     0.36338   0.82603   0.17753   0.00000  Uiso   1.00
O460   O     0.39764   0.83134   0.31439   0.00000  Uiso   1.00
O461   O     0.60236   0.83533   0.18561   0.00000  Uiso   1.00
O462   O     0.37737   0.76721   0.09144   0.00000  Uiso   1.00
Zn463  Zn    0.60366   0.83954   0.25539   0.00000  Uiso   1.00
Zn464  Zn    0.39634   0.82713   0.24460   0.00000  Uiso   1.00
C465   C     0.68159   0.93145   0.24894   0.00000  Uiso   1.00
C466   C     0.97915   0.82911   0.15849   0.00000  Uiso   1.00
C467   C     0.70070   0.85277   0.39419   0.00000  Uiso   1.00
C468   C     0.97003   0.82659   0.10461   0.00000  Uiso   1.00
C469   C     0.69926   0.91363   0.46710   0.00000  Uiso   1.00
C470   C     0.98519   0.78899   0.02212   0.00000  Uiso   1.00
C471   C     0.67523   0.89364   0.42047   0.00000  Uiso   1.00
C472   C     0.66897   0.79637   0.07252   0.00000  Uiso   1.00
C473   C     0.74938   0.83353   0.41404   0.00000  Uiso   1.00
C474   C     0.92523   0.85273   0.08567   0.00000  Uiso   1.00
C475   C     0.77882   0.85930   0.45570   0.00000  Uiso   1.00
C476   C     0.98511   0.73523   0.25132   0.00000  Uiso   1.00
C477   C     0.90784   0.84581   0.03544   0.00000  Uiso   1.00
C478   C     0.75181   0.89797   0.48400   0.00000  Uiso   1.00
C479   C     0.93757   0.81205   0.00387   0.00000  Uiso   1.00
C480   C     0.83416   0.84705   0.46993   0.00000  Uiso   1.00
C481   C     0.85808   0.86695   0.01704   0.00000  Uiso   1.00
C482   C     0.76340   0.78509   0.07468   0.00000  Uiso   1.00
C483   C     0.97479   0.96503   0.38752   0.00000  Uiso   1.00
C484   C     0.83054   0.90599   0.04453   0.00000  Uiso   1.00
C485   C     0.86663   0.81620   0.43823   0.00000  Uiso   1.00
C486   C     0.77839   0.92147   0.02792   0.00000  Uiso   1.00
C487   C     0.91790   0.79955   0.45493   0.00000  Uiso   1.00
C488   C     0.68938   0.98606   0.24849   0.00000  Uiso   1.00
C489   C     0.97740   0.68066   0.25225   0.00000  Uiso   1.00
C490   C     0.68786   0.83889   0.34141   0.00000  Uiso   1.00
H491   H     0.75866   0.95172   0.04969   0.00000  Uiso   1.00
H492   H     0.93465   0.99701   0.25590   0.00000  Uiso   1.00
H493   H     0.77701   0.82461   0.09284   0.00000  Uiso   1.00
H494   H     0.76320   0.78541   0.03374   0.00000  Uiso   1.00
H495   H     0.79536   0.75781   0.08503   0.00000  Uiso   1.00
H496   H     0.67760   0.96612   0.36278   0.00000  Uiso   1.00
H497   H     0.98429   0.99285   0.42091   0.00000  Uiso   1.00
H498   H     0.93800   0.97880   0.36681   0.00000  Uiso   1.00
H499   H     0.94108   0.77498   0.42997   0.00000  Uiso   1.00
H500   H     0.90162   0.87514   0.11170   0.00000  Uiso   1.00
H501   H     0.76544   0.79995   0.39431   0.00000  Uiso   1.00
H502   H     0.67854   0.94338   0.48861   0.00000  Uiso   1.00
H503   H     0.67362   0.76246   0.49783   0.00000  Uiso   1.00
H504   H     0.84908   0.92617   0.07849   0.00000  Uiso   1.00
H505   H     0.85384   0.80516   0.39989   0.00000  Uiso   1.00
H506   H     0.73215   0.66972   0.24495   0.00000  Uiso   1.00
I507   I     0.83266   0.75375   0.19285   0.00000  Uiso   1.00
I508   I     0.83389   0.91058   0.31027   0.00000  Uiso   1.00
N509   N     0.81362   0.81883   0.23739   0.00000  Uiso   1.00
N510   N     0.85305   0.84784   0.26260   0.00000  Uiso   1.00
O511   O     0.96386   0.91298   0.25309   0.00000  Uiso   1.00
O512   O     0.96057   0.91368   0.40064   0.00000  Uiso   1.00
O513   O     0.70281   0.75369   0.24690   0.00000  Uiso   1.00
O514   O     0.72488   0.90368   0.24501   0.00000  Uiso   1.00
O515   O     0.94178   0.76298   0.25498   0.00000  Uiso   1.00
O516   O     0.96995   0.84063   0.32247   0.00000  Uiso   1.00
O517   O     0.69672   0.82603   0.17753   0.00000  Uiso   1.00
O518   O     0.73098   0.83134   0.31439   0.00000  Uiso   1.00
O519   O     0.93569   0.83533   0.18561   0.00000  Uiso   1.00
O520   O     0.71070   0.76721   0.09144   0.00000  Uiso   1.00
Zn521  Zn    0.93700   0.83954   0.25539   0.00000  Uiso   1.00
Zn522  Zn    0.72967   0.82713   0.24460   0.00000  Uiso   1.00
C523   C     0.01493   0.26479   0.74894   0.00000  Uiso   1.00
C524   C     0.31249   0.16244   0.65849   0.00000  Uiso   1.00
C525   C     0.03403   0.18610   0.89419   0.00000  Uiso   1.00
C526   C     0.30337   0.15992   0.60461   0.00000  Uiso   1.00
C527   C     0.03260   0.24696   0.96710   0.00000  Uiso   1.00
C528   C     0.31853   0.12232   0.52212   0.00000  Uiso   1.00
C529   C     0.00856   0.22697   0.92047   0.00000  Uiso   1.00
C530   C     0.00231   0.12971   0.57252   0.00000  Uiso   1.00
C531   C     0.08272   0.16687   0.91404   0.00000  Uiso   1.00
C532   C     0.25856   0.18607   0.58567   0.00000  Uiso   1.00
C533   C     0.11215   0.19263   0.95570   0.00000  Uiso   1.00
C534   C     0.31845   0.06857   0.75132   0.00000  Uiso   1.00
C535   C     0.24117   0.17915   0.53544   0.00000  Uiso   1.00
C536   C     0.08514   0.23130   0.98400   0.00000  Uiso   1.00
C537   C     0.27091   0.14538   0.50387   0.00000  Uiso   1.00
C538   C     0.16749   0.18038   0.96993   0.00000  Uiso   1.00
C539   C     0.19142   0.20028   0.51704   0.00000  Uiso   1.00
C540   C     0.09674   0.11842   0.57468   0.00000  Uiso   1.00
C541   C     0.30812   0.29836   0.88752   0.00000  Uiso   1.00
C542   C     0.16388   0.23932   0.54453   0.00000  Uiso   1.00
C543   C     0.19996   0.14954   0.93823   0.00000  Uiso   1.00
C544   C     0.11172   0.25480   0.52792   0.00000  Uiso   1.00
C545   C     0.25124   0.13289   0.95493   0.00000  Uiso   1.00
C546   C     0.02271   0.31940   0.74849   0.00000  Uiso   1.00
C547   C     0.31073   0.01399   0.75225   0.00000  Uiso   1.00
C548   C     0.02119   0.17223   0.84141   0.00000  Uiso   1.00
H549   H     0.09200   0.28505   0.54969   0.00000  Uiso   1.00
H550   H     0.26798   0.33034   0.75590   0.00000  Uiso   1.00
H551   H     0.11034   0.15794   0.59284   0.00000  Uiso   1.00
H552   H     0.09654   0.11874   0.53374   0.00000  Uiso   1.00
H553   H     0.12869   0.09114   0.58503   0.00000  Uiso   1.00
H554   H     0.01094   0.29945   0.86278   0.00000  Uiso   1.00
H555   H     0.31762   0.32619   0.92091   0.00000  Uiso   1.00
H556   H     0.27133   0.31213   0.86681   0.00000  Uiso   1.00
H557   H     0.27441   0.10832   0.92997   0.00000  Uiso   1.00
H558   H     0.23495   0.20848   0.61170   0.00000  Uiso   1.00
H559   H     0.09877   0.13329   0.89431   0.00000  Uiso   1.00
H560   H     0.01187   0.27671   0.98861   0.00000  Uiso   1.00
H561   H     0.00695   0.09580   0.99783   0.00000  Uiso   1.00
H562   H     0.18241   0.25951   0.57849   0.00000  Uiso   1.00
H563   H     0.18718   0.13849   0.89989   0.00000  Uiso   1.00
H564   H     0.06548   0.00306   0.74495   0.00000  Uiso   1.00
I565   I     0.16599   0.08708   0.69285   0.00000  Uiso   1.00
I566   I     0.16723   0.24391   0.81027   0.00000  Uiso   1.00
N567   N     0.14695   0.15216   0.73739   0.00000  Uiso   1.00
N568   N     0.18638   0.18117   0.76260   0.00000  Uiso   1.00
O569   O     0.29719   0.24631   0.75309   0.00000  Uiso   1.00
O570   O     0.29390   0.24702   0.90064   0.00000  Uiso   1.00
O571   O     0.03614   0.08702   0.74690   0.00000  Uiso   1.00
O572   O     0.05822   0.23702   0.74501   0.00000  Uiso   1.00
O573   O     0.27512   0.09632   0.75498   0.00000  Uiso   1.00
O574   O     0.30328   0.17397   0.82247   0.00000  Uiso   1.00
O575   O     0.03005   0.15937   0.67753   0.00000  Uiso   1.00
O576   O     0.06431   0.16467   0.81439   0.00000  Uiso   1.00
O577   O     0.26902   0.16866   0.68561   0.00000  Uiso   1.00
O578   O     0.04403   0.10054   0.59144   0.00000  Uiso   1.00
Zn579  Zn    0.27033   0.17287   0.75539   0.00000  Uiso   1.00
Zn580  Zn    0.06300   0.16046   0.74460   0.00000  Uiso   1.00
C581   C     0.34826   0.26479   0.74894   0.00000  Uiso   1.00
C582   C     0.64582   0.16244   0.65849   0.00000  Uiso   1.00
C583   C     0.36736   0.18610   0.89419   0.00000  Uiso   1.00
C584   C     0.63670   0.15992   0.60461   0.00000  Uiso   1.00
C585   C     0.36593   0.24696   0.96710   0.00000  Uiso   1.00
C586   C     0.65186   0.12232   0.52212   0.00000  Uiso   1.00
C587   C     0.34189   0.22697   0.92047   0.00000  Uiso   1.00
C588   C     0.33564   0.12971   0.57252   0.00000  Uiso   1.00
C589   C     0.41605   0.16687   0.91404   0.00000  Uiso   1.00
C590   C     0.59189   0.18607   0.58567   0.00000  Uiso   1.00
C591   C     0.44548   0.19263   0.95570   0.00000  Uiso   1.00
C592   C     0.65178   0.06857   0.75132   0.00000  Uiso   1.00
C593   C     0.57451   0.17915   0.53544   0.00000  Uiso   1.00
C594   C     0.41847   0.23130   0.98400   0.00000  Uiso   1.00
C595   C     0.60424   0.14538   0.50387   0.00000  Uiso   1.00
C596   C     0.50083   0.18038   0.96993   0.00000  Uiso   1.00
C597   C     0.52475   0.20028   0.51704   0.00000  Uiso   1.00
C598   C     0.43007   0.11842   0.57468   0.00000  Uiso   1.00
C599   C     0.64146   0.29836   0.88752   0.00000  Uiso   1.00
C600   C     0.49721   0.23932   0.54453   0.00000  Uiso   1.00
C601   C     0.53329   0.14954   0.93823   0.00000  Uiso   1.00
C602   C     0.44505   0.25480   0.52792   0.00000  Uiso   1.00
C603   C     0.58457   0.13289   0.95493   0.00000  Uiso   1.00
C604   C     0.35605   0.31940   0.74849   0.00000  Uiso   1.00
C605   C     0.64407   0.01399   0.75225   0.00000  Uiso   1.00
C606   C     0.35453   0.17223   0.84141   0.00000  Uiso   1.00
H607   H     0.42533   0.28505   0.54969   0.00000  Uiso   1.00
H608   H     0.60131   0.33034   0.75590   0.00000  Uiso   1.00
H609   H     0.44367   0.15794   0.59284   0.00000  Uiso   1.00
H610   H     0.42987   0.11874   0.53374   0.00000  Uiso   1.00
H611   H     0.46202   0.09114   0.58503   0.00000  Uiso   1.00
H612   H     0.34427   0.29945   0.86278   0.00000  Uiso   1.00
H613   H     0.65095   0.32619   0.92091   0.00000  Uiso   1.00
H614   H     0.60466   0.31213   0.86681   0.00000  Uiso   1.00
H615   H     0.60775   0.10832   0.92997   0.00000  Uiso   1.00
H616   H     0.56829   0.20848   0.61170   0.00000  Uiso   1.00
H617   H     0.43210   0.13329   0.89431   0.00000  Uiso   1.00
H618   H     0.34521   0.27671   0.98861   0.00000  Uiso   1.00
H619   H     0.34028   0.09580   0.99783   0.00000  Uiso   1.00
H620   H     0.51575   0.25951   0.57849   0.00000  Uiso   1.00
H621   H     0.52051   0.13849   0.89989   0.00000  Uiso   1.00
H622   H     0.39881   0.00306   0.74495   0.00000  Uiso   1.00
I623   I     0.49933   0.08708   0.69285   0.00000  Uiso   1.00
I624   I     0.50056   0.24391   0.81027   0.00000  Uiso   1.00
N625   N     0.48029   0.15216   0.73739   0.00000  Uiso   1.00
N626   N     0.51971   0.18117   0.76260   0.00000  Uiso   1.00
O627   O     0.63052   0.24631   0.75309   0.00000  Uiso   1.00
O628   O     0.62724   0.24702   0.90064   0.00000  Uiso   1.00
O629   O     0.36948   0.08702   0.74690   0.00000  Uiso   1.00
O630   O     0.39155   0.23702   0.74501   0.00000  Uiso   1.00
O631   O     0.60845   0.09632   0.75498   0.00000  Uiso   1.00
O632   O     0.63662   0.17397   0.82247   0.00000  Uiso   1.00
O633   O     0.36338   0.15937   0.67753   0.00000  Uiso   1.00
O634   O     0.39764   0.16467   0.81439   0.00000  Uiso   1.00
O635   O     0.60236   0.16866   0.68561   0.00000  Uiso   1.00
O636   O     0.37737   0.10054   0.59144   0.00000  Uiso   1.00
Zn637  Zn    0.60366   0.17287   0.75539   0.00000  Uiso   1.00
Zn638  Zn    0.39634   0.16046   0.74460   0.00000  Uiso   1.00
C639   C     0.68159   0.26479   0.74894   0.00000  Uiso   1.00
C640   C     0.97915   0.16244   0.65849   0.00000  Uiso   1.00
C641   C     0.70070   0.18610   0.89419   0.00000  Uiso   1.00
C642   C     0.97003   0.15992   0.60461   0.00000  Uiso   1.00
C643   C     0.69926   0.24696   0.96710   0.00000  Uiso   1.00
C644   C     0.98519   0.12232   0.52212   0.00000  Uiso   1.00
C645   C     0.67523   0.22697   0.92047   0.00000  Uiso   1.00
C646   C     0.66897   0.12971   0.57252   0.00000  Uiso   1.00
C647   C     0.74938   0.16687   0.91404   0.00000  Uiso   1.00
C648   C     0.92523   0.18607   0.58567   0.00000  Uiso   1.00
C649   C     0.77882   0.19263   0.95570   0.00000  Uiso   1.00
C650   C     0.98511   0.06857   0.75132   0.00000  Uiso   1.00
C651   C     0.90784   0.17915   0.53544   0.00000  Uiso   1.00
C652   C     0.75181   0.23130   0.98400   0.00000  Uiso   1.00
C653   C     0.93757   0.14538   0.50387   0.00000  Uiso   1.00
C654   C     0.83416   0.18038   0.96993   0.00000  Uiso   1.00
C655   C     0.85808   0.20028   0.51704   0.00000  Uiso   1.00
C656   C     0.76340   0.11842   0.57468   0.00000  Uiso   1.00
C657   C     0.97479   0.29836   0.88752   0.00000  Uiso   1.00
C658   C     0.83054   0.23932   0.54453   0.00000  Uiso   1.00
C659   C     0.86663   0.14954   0.93823   0.00000  Uiso   1.00
C660   C     0.77839   0.25480   0.52792   0.00000  Uiso   1.00
C661   C     0.91790   0.13289   0.95493   0.00000  Uiso   1.00
C662   C     0.68938   0.31940   0.74849   0.00000  Uiso   1.00
C663   C     0.97740   0.01399   0.75225   0.00000  Uiso   1.00
C664   C     0.68786   0.17223   0.84141   0.00000  Uiso   1.00
H665   H     0.75866   0.28505   0.54969   0.00000  Uiso   1.00
H666   H     0.93465   0.33034   0.75590   0.00000  Uiso   1.00
H667   H     0.77701   0.15794   0.59284   0.00000  Uiso   1.00
H668   H     0.76320   0.11874   0.53374   0.00000  Uiso   1.00
H669   H     0.79536   0.09114   0.58503   0.00000  Uiso   1.00
H670   H     0.67760   0.29945   0.86278   0.00000  Uiso   1.00
H671   H     0.98429   0.32619   0.92091   0.00000  Uiso   1.00
H672   H     0.93800   0.31213   0.86681   0.00000  Uiso   1.00
H673   H     0.94108   0.10832   0.92997   0.00000  Uiso   1.00
H674   H     0.90162   0.20848   0.61170   0.00000  Uiso   1.00
H675   H     0.76544   0.13329   0.89431   0.00000  Uiso   1.00
H676   H     0.67854   0.27671   0.98861   0.00000  Uiso   1.00
H677   H     0.67362   0.09580   0.99783   0.00000  Uiso   1.00
H678   H     0.84908   0.25951   0.57849   0.00000  Uiso   1.00
H679   H     0.85384   0.13849   0.89989   0.00000  Uiso   1.00
H680   H     0.73215   0.00306   0.74495   0.00000  Uiso   1.00
I681   I     0.83266   0.08708   0.69285   0.00000  Uiso   1.00
I682   I     0.83389   0.24391   0.81027   0.00000  Uiso   1.00
N683   N     0.81362   0.15216   0.73739   0.00000  Uiso   1.00
N684   N     0.85305   0.18117   0.76260   0.00000  Uiso   1.00
O685   O     0.96386   0.24631   0.75309   0.00000  Uiso   1.00
O686   O     0.96057   0.24702   0.90064   0.00000  Uiso   1.00
O687   O     0.70281   0.08702   0.74690   0.00000  Uiso   1.00
O688   O     0.72488   0.23702   0.74501   0.00000  Uiso   1.00
O689   O     0.94178   0.09632   0.75498   0.00000  Uiso   1.00
O690   O     0.96995   0.17397   0.82247   0.00000  Uiso   1.00
O691   O     0.69672   0.15937   0.67753   0.00000  Uiso   1.00
O692   O     0.73098   0.16467   0.81439   0.00000  Uiso   1.00
O693   O     0.93569   0.16866   0.68561   0.00000  Uiso   1.00
O694   O     0.71070   0.10054   0.59144   0.00000  Uiso   1.00
Zn695  Zn    0.93700   0.17287   0.75539   0.00000  Uiso   1.00
Zn696  Zn    0.72967   0.16046   0.74460   0.00000  Uiso   1.00
C697   C     0.01493   0.59812   0.74894   0.00000  Uiso   1.00
C698   C     0.31249   0.49578   0.65849   0.00000  Uiso   1.00
C699   C     0.03403   0.51943   0.89419   0.00000  Uiso   1.00
C700   C     0.30337   0.49325   0.60461   0.00000  Uiso   1.00
C701   C     0.03260   0.58029   0.96710   0.00000  Uiso   1.00
C702   C     0.31853   0.45566   0.52212   0.00000  Uiso   1.00
C703   C     0.00856   0.56031   0.92047   0.00000  Uiso   1.00
C704   C     0.00231   0.46304   0.57252   0.00000  Uiso   1.00
C705   C     0.08272   0.50020   0.91404   0.00000  Uiso   1.00
C706   C     0.25856   0.51940   0.58567   0.00000  Uiso   1.00
C707   C     0.11215   0.52597   0.95570   0.00000  Uiso   1.00
C708   C     0.31845   0.40190   0.75132   0.00000  Uiso   1.00
C709   C     0.24117   0.51248   0.53544   0.00000  Uiso   1.00
C710   C     0.08514   0.56463   0.98400   0.00000  Uiso   1.00
C711   C     0.27091   0.47872   0.50387   0.00000  Uiso   1.00
C712   C     0.16749   0.51372   0.96993   0.00000  Uiso   1.00
C713   C     0.19142   0.53362   0.51704   0.00000  Uiso   1.00
C714   C     0.09674   0.45175   0.57468   0.00000  Uiso   1.00
C715   C     0.30812   0.63169   0.88752   0.00000  Uiso   1.00
C716   C     0.16388   0.57266   0.54453   0.00000  Uiso   1.00
C717   C     0.19996   0.48287   0.93823   0.00000  Uiso   1.00
C718   C     0.11172   0.58813   0.52792   0.00000  Uiso   1.00
C719   C     0.25124   0.46622   0.95493   0.00000  Uiso   1.00
C720   C     0.02271   0.65273   0.74849   0.00000  Uiso   1.00
C721   C     0.31073   0.34733   0.75225   0.00000  Uiso   1.00
C722   C     0.02119   0.50556   0.84141   0.00000  Uiso   1.00
H723   H     0.09200   0.61838   0.54969   0.00000  Uiso   1.00
H724   H     0.26798   0.66367   0.75590   0.00000  Uiso   1.00
H725   H     0.11034   0.49128   0.59284   0.00000  Uiso   1.00
H726   H     0.09654   0.45208   0.53374   0.00000  Uiso   1.00
H727   H     0.12869   0.42447   0.58503   0.00000  Uiso   1.00
H728   H     0.01094   0.63278   0.86278   0.00000  Uiso   1.00
H729   H     0.31762   0.65952   0.92091   0.00000  Uiso   1.00
H730   H     0.27133   0.64547   0.86681   0.00000  Uiso   1.00
H731   H     0.27441   0.44165   0.92997   0.00000  Uiso   1.00
H732   H     0.23495   0.54181   0.61170   0.00000  Uiso   1.00
H733   H     0.09877   0.46662   0.89431   0.00000  Uiso   1.00
H734   H     0.01187   0.61004   0.98861   0.00000  Uiso   1.00
H735   H     0.00695   0.42913   0.99783   0.00000  Uiso   1.00
H736   H     0.18241   0.59284   0.57849   0.00000  Uiso   1.00
H737   H     0.18718   0.47183   0.89989   0.00000  Uiso   1.00
H738   H     0.06548   0.33639   0.74495   0.00000  Uiso   1.00
I739   I     0.16599   0.42041   0.69285   0.00000  Uiso   1.00
I740   I     0.16723   0.57724   0.81027   0.00000  Uiso   1.00
N741   N     0.14695   0.48550   0.73739   0.00000  Uiso   1.00
N742   N     0.18638   0.51450   0.76260   0.00000  Uiso   1.00
O743   O     0.29719   0.57964   0.75309   0.00000  Uiso   1.00
O744   O     0.29390   0.58035   0.90064   0.00000  Uiso   1.00
O745   O     0.03614   0.42036   0.74690   0.00000  Uiso   1.00
O746   O     0.05822   0.57035   0.74501   0.00000  Uiso   1.00
O747   O     0.27512   0.42965   0.75498   0.00000  Uiso   1.00
O748   O     0.30328   0.50730   0.82247   0.00000  Uiso   1.00
O749   O     0.03005   0.49270   0.67753   0.00000  Uiso   1.00
O750   O     0.06431   0.49801   0.81439   0.00000  Uiso   1.00
O751   O     0.26902   0.50199   0.68561   0.00000  Uiso   1.00
O752   O     0.04403   0.43388   0.59144   0.00000  Uiso   1.00
Zn753  Zn    0.27033   0.50621   0.75539   0.00000  Uiso   1.00
Zn754  Zn    0.06300   0.49379   0.74460   0.00000  Uiso   1.00
C755   C     0.34826   0.59812   0.74894   0.00000  Uiso   1.00
C756   C     0.64582   0.49578   0.65849   0.00000  Uiso   1.00
C757   C     0.36736   0.51943   0.89419   0.00000  Uiso   1.00
C758   C     0.63670   0.49325   0.60461   0.00000  Uiso   1.00
C759   C     0.36593   0.58029   0.96710   0.00000  Uiso   1.00
C760   C     0.65186   0.45566   0.52212   0.00000  Uiso   1.00
C761   C     0.34189   0.56031   0.92047   0.00000  Uiso   1.00
C762   C     0.33564   0.46304   0.57252   0.00000  Uiso   1.00
C763   C     0.41605   0.50020   0.91404   0.00000  Uiso   1.00
C764   C     0.59189   0.51940   0.58567   0.00000  Uiso   1.00
C765   C     0.44548   0.52597   0.95570   0.00000  Uiso   1.00
C766   C     0.65178   0.40190   0.75132   0.00000  Uiso   1.00
C767   C     0.57451   0.51248   0.53544   0.00000  Uiso   1.00
C768   C     0.41847   0.56463   0.98400   0.00000  Uiso   1.00
C769   C     0.60424   0.47872   0.50387   0.00000  Uiso   1.00
C770   C     0.50083   0.51372   0.96993   0.00000  Uiso   1.00
C771   C     0.52475   0.53362   0.51704   0.00000  Uiso   1.00
C772   C     0.43007   0.45175   0.57468   0.00000  Uiso   1.00
C773   C     0.64146   0.63169   0.88752   0.00000  Uiso   1.00
C774   C     0.49721   0.57266   0.54453   0.00000  Uiso   1.00
C775   C     0.53329   0.48287   0.93823   0.00000  Uiso   1.00
C776   C     0.44505   0.58813   0.52792   0.00000  Uiso   1.00
C777   C     0.58457   0.46622   0.95493   0.00000  Uiso   1.00
C778   C     0.35605   0.65273   0.74849   0.00000  Uiso   1.00
C779   C     0.64407   0.34733   0.75225   0.00000  Uiso   1.00
C780   C     0.35453   0.50556   0.84141   0.00000  Uiso   1.00
H781   H     0.42533   0.61838   0.54969   0.00000  Uiso   1.00
H782   H     0.60131   0.66367   0.75590   0.00000  Uiso   1.00
H783   H     0.44367   0.49128   0.59284   0.00000  Uiso   1.00
H784   H     0.42987   0.45208   0.53374   0.00000  Uiso   1.00
H785   H     0.46202   0.42447   0.58503   0.00000  Uiso   1.00
H786   H     0.34427   0.63278   0.86278   0.00000  Uiso   1.00
H787   H     0.65095   0.65952   0.92091   0.00000  Uiso   1.00
H788   H     0.60466   0.64547   0.86681   0.00000  Uiso   1.00
H789   H     0.60775   0.44165   0.92997   0.00000  Uiso   1.00
H790   H     0.56829   0.54181   0.61170   0.00000  Uiso   1.00
H791   H     0.43210   0.46662   0.89431   0.00000  Uiso   1.00
H792   H     0.34521   0.61004   0.98861   0.00000  Uiso   1.00
H793   H     0.34028   0.42913   0.99783   0.00000  Uiso   1.00
H794   H     0.51575   0.59284   0.57849   0.00000  Uiso   1.00
H795   H     0.52051   0.47183   0.89989   0.00000  Uiso   1.00
H796   H     0.39881   0.33639   0.74495   0.00000  Uiso   1.00
I797   I     0.49933   0.42041   0.69285   0.00000  Uiso   1.00
I798   I     0.50056   0.57724   0.81027   0.00000  Uiso   1.00
N799   N     0.48029   0.48550   0.73739   0.00000  Uiso   1.00
N800   N     0.51971   0.51450   0.76260   0.00000  Uiso   1.00
O801   O     0.63052   0.57964   0.75309   0.00000  Uiso   1.00
O802   O     0.62724   0.58035   0.90064   0.00000  Uiso   1.00
O803   O     0.36948   0.42036   0.74690   0.00000  Uiso   1.00
O804   O     0.39155   0.57035   0.74501   0.00000  Uiso   1.00
O805   O     0.60845   0.42965   0.75498   0.00000  Uiso   1.00
O806   O     0.63662   0.50730   0.82247   0.00000  Uiso   1.00
O807   O     0.36338   0.49270   0.67753   0.00000  Uiso   1.00
O808   O     0.39764   0.49801   0.81439   0.00000  Uiso   1.00
O809   O     0.60236   0.50199   0.68561   0.00000  Uiso   1.00
O810   O     0.37737   0.43388   0.59144   0.00000  Uiso   1.00
Zn811  Zn    0.60366   0.50621   0.75539   0.00000  Uiso   1.00
Zn812  Zn    0.39634   0.49379   0.74460   0.00000  Uiso   1.00
C813   C     0.68159   0.59812   0.74894   0.00000  Uiso   1.00
C814   C     0.97915   0.49578   0.65849   0.00000  Uiso   1.00
C815   C     0.70070   0.51943   0.89419   0.00000  Uiso   1.00
C816   C     0.97003   0.49325   0.60461   0.00000  Uiso   1.00
C817   C     0.69926   0.58029   0.96710   0.00000  Uiso   1.00
C818   C     0.98519   0.45566   0.52212   0.00000  Uiso   1.00
C819   C     0.67523   0.56031   0.92047   0.00000  Uiso   1.00
C820   C     0.66897   0.46304   0.57252   0.00000  Uiso   1.00
C821   C     0.74938   0.50020   0.91404   0.00000  Uiso   1.00
C822   C     0.92523   0.51940   0.58567   0.00000  Uiso   1.00
C823   C     0.77882   0.52597   0.95570   0.00000  Uiso   1.00
C824   C     0.98511   0.40190   0.75132   0.00000  Uiso   1.00
C825   C     0.90784   0.51248   0.53544   0.00000  Uiso   1.00
C826   C     0.75181   0.56463   0.98400   0.00000  Uiso   1.00
C827   C     0.93757   0.47872   0.50387   0.00000  Uiso   1.00
C828   C     0.83416   0.51372   0.96993   0.00000  Uiso   1.00
C829   C     0.85808   0.53362   0.51704   0.00000  Uiso   1.00
C830   C     0.76340   0.45175   0.57468   0.00000  Uiso   1.00
C831   C     0.97479   0.63169   0.88752   0.00000  Uiso   1.00
C832   C     0.83054   0.57266   0.54453   0.00000  Uiso   1.00
C833   C     0.86663   0.48287   0.93823   0.00000  Uiso   1.00
C834   C     0.77839   0.58813   0.52792   0.00000  Uiso   1.00
C835   C     0.91790   0.46622   0.95493   0.00000  Uiso   1.00
C836   C     0.68938   0.65273   0.74849   0.00000  Uiso   1.00
C837   C     0.97740   0.34733   0.75225   0.00000  Uiso   1.00
C838   C     0.68786   0.50556   0.84141   0.00000  Uiso   1.00
H839   H     0.75866   0.61838   0.54969   0.00000  Uiso   1.00
H840   H     0.93465   0.66367   0.75590   0.00000  Uiso   1.00
H841   H     0.77701   0.49128   0.59284   0.00000  Uiso   1.00
H842   H     0.76320   0.45208   0.53374   0.00000  Uiso   1.00
H843   H     0.79536   0.42447   0.58503   0.00000  Uiso   1.00
H844   H     0.67760   0.63278   0.86278   0.00000  Uiso   1.00
H845   H     0.98429   0.65952   0.92091   0.00000  Uiso   1.00
H846   H     0.93800   0.64547   0.86681   0.00000  Uiso   1.00
H847   H     0.94108   0.44165   0.92997   0.00000  Uiso   1.00
H848   H     0.90162   0.54181   0.61170   0.00000  Uiso   1.00
H849   H     0.76544   0.46662   0.89431   0.00000  Uiso   1.00
H850   H     0.67854   0.61004   0.98861   0.00000  Uiso   1.00
H851   H     0.67362   0.42913   0.99783   0.00000  Uiso   1.00
H852   H     0.84908   0.59284   0.57849   0.00000  Uiso   1.00
H853   H     0.85384   0.47183   0.89989   0.00000  Uiso   1.00
H854   H     0.73215   0.33639   0.74495   0.00000  Uiso   1.00
I855   I     0.83266   0.42041   0.69285   0.00000  Uiso   1.00
I856   I     0.83389   0.57724   0.81027   0.00000  Uiso   1.00
N857   N     0.81362   0.48550   0.73739   0.00000  Uiso   1.00
N858   N     0.85305   0.51450   0.76260   0.00000  Uiso   1.00
O859   O     0.96386   0.57964   0.75309   0.00000  Uiso   1.00
O860   O     0.96057   0.58035   0.90064   0.00000  Uiso   1.00
O861   O     0.70281   0.42036   0.74690   0.00000  Uiso   1.00
O862   O     0.72488   0.57035   0.74501   0.00000  Uiso   1.00
O863   O     0.94178   0.42965   0.75498   0.00000  Uiso   1.00
O864   O     0.96995   0.50730   0.82247   0.00000  Uiso   1.00
O865   O     0.69672   0.49270   0.67753   0.00000  Uiso   1.00
O866   O     0.73098   0.49801   0.81439   0.00000  Uiso   1.00
O867   O     0.93569   0.50199   0.68561   0.00000  Uiso   1.00
O868   O     0.71070   0.43388   0.59144   0.00000  Uiso   1.00
Zn869  Zn    0.93700   0.50621   0.75539   0.00000  Uiso   1.00
Zn870  Zn    0.72967   0.49379   0.74460   0.00000  Uiso   1.00
C871   C     0.01493   0.93145   0.74894   0.00000  Uiso   1.00
C872   C     0.31249   0.82911   0.65849   0.00000  Uiso   1.00
C873   C     0.03403   0.85277   0.89419   0.00000  Uiso   1.00
C874   C     0.30337   0.82659   0.60461   0.00000  Uiso   1.00
C875   C     0.03260   0.91363   0.96710   0.00000  Uiso   1.00
C876   C     0.31853   0.78899   0.52212   0.00000  Uiso   1.00
C877   C     0.00856   0.89364   0.92047   0.00000  Uiso   1.00
C878   C     0.00231   0.79637   0.57252   0.00000  Uiso   1.00
C879   C     0.08272   0.83353   0.91404   0.00000  Uiso   1.00
C880   C     0.25856   0.85273   0.58567   0.00000  Uiso   1.00
C881   C     0.11215   0.85930   0.95570   0.00000  Uiso   1.00
C882   C     0.31845   0.73523   0.75132   0.00000  Uiso   1.00
C883   C     0.24117   0.84581   0.53544   0.00000  Uiso   1.00
C884   C     0.08514   0.89797   0.98400   0.00000  Uiso   1.00
C885   C     0.27091   0.81205   0.50387   0.00000  Uiso   1.00
C886   C     0.16749   0.84705   0.96993   0.00000  Uiso   1.00
C887   C     0.19142   0.86695   0.51704   0.00000  Uiso   1.00
C888   C     0.09674   0.78509   0.57468   0.00000  Uiso   1.00
C889   C     0.30812   0.96503   0.88752   0.00000  Uiso   1.00
C890   C     0.16388   0.90599   0.54453   0.00000  Uiso   1.00
C891   C     0.19996   0.81620   0.93823   0.00000  Uiso   1.00
C892   C     0.11172   0.92147   0.52792   0.00000  Uiso   1.00
C893   C     0.25124   0.79955   0.95493   0.00000  Uiso   1.00
C894   C     0.02271   0.98606   0.74849   0.00000  Uiso   1.00
C895   C     0.31073   0.68066   0.75225   0.00000  Uiso   1.00
C896   C     0.02119   0.83889   0.84141   0.00000  Uiso   1.00
H897   H     0.09200   0.95172   0.54969   0.00000  Uiso   1.00
H898   H     0.26798   0.99701   0.75590   0.00000  Uiso   1.00
H899   H     0.11034   0.82461   0.59284   0.00000  Uiso   1.00
H900   H     0.09654   0.78541   0.53374   0.00000  Uiso   1.00
H901   H     0.12869   0.75781   0.58503   0.00000  Uiso   1.00
H902   H     0.01094   0.96612   0.86278   0.00000  Uiso   1.00
H903   H     0.31762   0.99285   0.92091   0.00000  Uiso   1.00
H904   H     0.27133   0.97880   0.86681   0.00000  Uiso   1.00
H905   H     0.27441   0.77498   0.92997   0.00000  Uiso   1.00
H906   H     0.23495   0.87514   0.61170   0.00000  Uiso   1.00
H907   H     0.09877   0.79995   0.89431   0.00000  Uiso   1.00
H908   H     0.01187   0.94338   0.98861   0.00000  Uiso   1.00
H909   H     0.00695   0.76246   0.99783   0.00000  Uiso   1.00
H910   H     0.18241   0.92617   0.57849   0.00000  Uiso   1.00
H911   H     0.18718   0.80516   0.89989   0.00000  Uiso   1.00
H912   H     0.06548   0.66972   0.74495   0.00000  Uiso   1.00
I913   I     0.16599   0.75375   0.69285   0.00000  Uiso   1.00
I914   I     0.16723   0.91058   0.81027   0.00000  Uiso   1.00
N915   N     0.14695   0.81883   0.73739   0.00000  Uiso   1.00
N916   N     0.18638   0.84784   0.76260   0.00000  Uiso   1.00
O917   O     0.29719   0.91298   0.75309   0.00000  Uiso   1.00
O918   O     0.29390   0.91368   0.90064   0.00000  Uiso   1.00
O919   O     0.03614   0.75369   0.74690   0.00000  Uiso   1.00
O920   O     0.05822   0.90368   0.74501   0.00000  Uiso   1.00
O921   O     0.27512   0.76298   0.75498   0.00000  Uiso   1.00
O922   O     0.30328   0.84063   0.82247   0.00000  Uiso   1.00
O923   O     0.03005   0.82603   0.67753   0.00000  Uiso   1.00
O924   O     0.06431   0.83134   0.81439   0.00000  Uiso   1.00
O925   O     0.26902   0.83533   0.68561   0.00000  Uiso   1.00
O926   O     0.04403   0.76721   0.59144   0.00000  Uiso   1.00
Zn927  Zn    0.27033   0.83954   0.75539   0.00000  Uiso   1.00
Zn928  Zn    0.06300   0.82713   0.74460   0.00000  Uiso   1.00
C929   C     0.34826   0.93145   0.74894   0.00000  Uiso   1.00
C930   C     0.64582   0.82911   0.65849   0.00000  Uiso   1.00
C931   C     0.36736   0.85277   0.89419   0.00000  Uiso   1.00
C932   C     0.63670   0.82659   0.60461   0.00000  Uiso   1.00
C933   C     0.36593   0.91363   0.96710   0.00000  Uiso   1.00
C934   C     0.65186   0.78899   0.52212   0.00000  Uiso   1.00
C935   C     0.34189   0.89364   0.92047   0.00000  Uiso   1.00
C936   C     0.33564   0.79637   0.57252   0.00000  Uiso   1.00
C937   C     0.41605   0.83353   0.91404   0.00000  Uiso   1.00
C938   C     0.59189   0.85273   0.58567   0.00000  Uiso   1.00
C939   C     0.44548   0.85930   0.95570   0.00000  Uiso   1.00
C940   C     0.65178   0.73523   0.75132   0.00000  Uiso   1.00
C941   C     0.57451   0.84581   0.53544   0.00000  Uiso   1.00
C942   C     0.41847   0.89797   0.98400   0.00000  Uiso   1.00
C943   C     0.60424   0.81205   0.50387   0.00000  Uiso   1.00
C944   C     0.50083   0.84705   0.96993   0.00000  Uiso   1.00
C945   C     0.52475   0.86695   0.51704   0.00000  Uiso   1.00
C946   C     0.43007   0.78509   0.57468   0.00000  Uiso   1.00
C947   C     0.64146   0.96503   0.88752   0.00000  Uiso   1.00
C948   C     0.49721   0.90599   0.54453   0.00000  Uiso   1.00
C949   C     0.53329   0.81620   0.93823   0.00000  Uiso   1.00
C950   C     0.44505   0.92147   0.52792   0.00000  Uiso   1.00
C951   C     0.58457   0.79955   0.95493   0.00000  Uiso   1.00
C952   C     0.35605   0.98606   0.74849   0.00000  Uiso   1.00
C953   C     0.64407   0.68066   0.75225   0.00000  Uiso   1.00
C954   C     0.35453   0.83889   0.84141   0.00000  Uiso   1.00
H955   H     0.42533   0.95172   0.54969   0.00000  Uiso   1.00
H956   H     0.60131   0.99701   0.75590   0.00000  Uiso   1.00
H957   H     0.44367   0.82461   0.59284   0.00000  Uiso   1.00
H958   H     0.42987   0.78541   0.53374   0.00000  Uiso   1.00
H959   H     0.46202   0.75781   0.58503   0.00000  Uiso   1.00
H960   H     0.34427   0.96612   0.86278   0.00000  Uiso   1.00
H961   H     0.65095   0.99285   0.92091   0.00000  Uiso   1.00
H962   H     0.60466   0.97880   0.86681   0.00000  Uiso   1.00
H963   H     0.60775   0.77498   0.92997   0.00000  Uiso   1.00
H964   H     0.56829   0.87514   0.61170   0.00000  Uiso   1.00
H965   H     0.43210   0.79995   0.89431   0.00000  Uiso   1.00
H966   H     0.34521   0.94338   0.98861   0.00000  Uiso   1.00
H967   H     0.34028   0.76246   0.99783   0.00000  Uiso   1.00
H968   H     0.51575   0.92617   0.57849   0.00000  Uiso   1.00
H969   H     0.52051   0.80516   0.89989   0.00000  Uiso   1.00
H970   H     0.39881   0.66972   0.74495   0.00000  Uiso   1.00
I971   I     0.49933   0.75375   0.69285   0.00000  Uiso   1.00
I972   I     0.50056   0.91058   0.81027   0.00000  Uiso   1.00
N973   N     0.48029   0.81883   0.73739   0.00000  Uiso   1.00
N974   N     0.51971   0.84784   0.76260   0.00000  Uiso   1.00
O975   O     0.63052   0.91298   0.75309   0.00000  Uiso   1.00
O976   O     0.62724   0.91368   0.90064   0.00000  Uiso   1.00
O977   O     0.36948   0.75369   0.74690   0.00000  Uiso   1.00
O978   O     0.39155   0.90368   0.74501   0.00000  Uiso   1.00
O979   O     0.60845   0.76298   0.75498   0.00000  Uiso   1.00
O980   O     0.63662   0.84063   0.82247   0.00000  Uiso   1.00
O981   O     0.36338   0.82603   0.67753   0.00000  Uiso   1.00
O982   O     0.39764   0.83134   0.81439   0.00000  Uiso   1.00
O983   O     0.60236   0.83533   0.68561   0.00000  Uiso   1.00
O984   O     0.37737   0.76721   0.59144   0.00000  Uiso   1.00
Zn985  Zn    0.60366   0.83954   0.75539   0.00000  Uiso   1.00
Zn986  Zn    0.39634   0.82713   0.74460   0.00000  Uiso   1.00
C987   C     0.68159   0.93145   0.74894   0.00000  Uiso   1.00
C988   C     0.97915   0.82911   0.65849   0.00000  Uiso   1.00
C989   C     0.70070   0.85277   0.89419   0.00000  Uiso   1.00
C990   C     0.97003   0.82659   0.60461   0.00000  Uiso   1.00
C991   C     0.69926   0.91363   0.96710   0.00000  Uiso   1.00
C992   C     0.98519   0.78899   0.52212   0.00000  Uiso   1.00
C993   C     0.67523   0.89364   0.92047   0.00000  Uiso   1.00
C994   C     0.66897   0.79637   0.57252   0.00000  Uiso   1.00
C995   C     0.74938   0.83353   0.91404   0.00000  Uiso   1.00
C996   C     0.92523   0.85273   0.58567   0.00000  Uiso   1.00
C997   C     0.77882   0.85930   0.95570   0.00000  Uiso   1.00
C998   C     0.98511   0.73523   0.75132   0.00000  Uiso   1.00
C999   C     0.90784   0.84581   0.53544   0.00000  Uiso   1.00
C1000  C     0.75181   0.89797   0.98400   0.00000  Uiso   1.00
C1001  C     0.93757   0.81205   0.50387   0.00000  Uiso   1.00
C1002  C     0.83416   0.84705   0.96993   0.00000  Uiso   1.00
C1003  C     0.85808   0.86695   0.51704   0.00000  Uiso   1.00
C1004  C     0.76340   0.78509   0.57468   0.00000  Uiso   1.00
C1005  C     0.97479   0.96503   0.88752   0.00000  Uiso   1.00
C1006  C     0.83054   0.90599   0.54453   0.00000  Uiso   1.00
C1007  C     0.86663   0.81620   0.93823   0.00000  Uiso   1.00
C1008  C     0.77839   0.92147   0.52792   0.00000  Uiso   1.00
C1009  C     0.91790   0.79955   0.95493   0.00000  Uiso   1.00
C1010  C     0.68938   0.98606   0.74849   0.00000  Uiso   1.00
C1011  C     0.97740   0.68066   0.75225   0.00000  Uiso   1.00
C1012  C     0.68786   0.83889   0.84141   0.00000  Uiso   1.00
H1013  H     0.75866   0.95172   0.54969   0.00000  Uiso   1.00
H1014  H     0.93465   0.99701   0.75590   0.00000  Uiso   1.00
H1015  H     0.77701   0.82461   0.59284   0.00000  Uiso   1.00
H1016  H     0.76320   0.78541   0.53374   0.00000  Uiso   1.00
H1017  H     0.79536   0.75781   0.58503   0.00000  Uiso   1.00
H1018  H     0.67760   0.96612   0.86278   0.00000  Uiso   1.00
H1019  H     0.98429   0.99285   0.92091   0.00000  Uiso   1.00
H1020  H     0.93800   0.97880   0.86681   0.00000  Uiso   1.00
H1021  H     0.94108   0.77498   0.92997   0.00000  Uiso   1.00
H1022  H     0.90162   0.87514   0.61170   0.00000  Uiso   1.00
H1023  H     0.76544   0.79995   0.89431   0.00000  Uiso   1.00
H1024  H     0.67854   0.94338   0.98861   0.00000  Uiso   1.00
H1025  H     0.67362   0.76246   0.99783   0.00000  Uiso   1.00
H1026  H     0.84908   0.92617   0.57849   0.00000  Uiso   1.00
H1027  H     0.85384   0.80516   0.89989   0.00000  Uiso   1.00
H1028  H     0.73215   0.66972   0.74495   0.00000  Uiso   1.00
I1029  I     0.83266   0.75375   0.69285   0.00000  Uiso   1.00
I1030  I     0.83389   0.91058   0.81027   0.00000  Uiso   1.00
N1031  N     0.81362   0.81883   0.73739   0.00000  Uiso   1.00
N1032  N     0.85305   0.84784   0.76260   0.00000  Uiso   1.00
O1033  O     0.96386   0.91298   0.75309   0.00000  Uiso   1.00
O1034  O     0.96057   0.91368   0.90064   0.00000  Uiso   1.00
O1035  O     0.70281   0.75369   0.74690   0.00000  Uiso   1.00
O1036  O     0.72488   0.90368   0.74501   0.00000  Uiso   1.00
O1037  O     0.94178   0.76298   0.75498   0.00000  Uiso   1.00
O1038  O     0.96995   0.84063   0.82247   0.00000  Uiso   1.00
O1039  O     0.69672   0.82603   0.67753   0.00000  Uiso   1.00
O1040  O     0.73098   0.83134   0.81439   0.00000  Uiso   1.00
O1041  O     0.93569   0.83533   0.68561   0.00000  Uiso   1.00
O1042  O     0.71070   0.76721   0.59144   0.00000  Uiso   1.00
Zn1043 Zn    0.93700   0.83954   0.75539   0.00000  Uiso   1.00
Zn1044 Zn    0.72967   0.82713   0.74460   0.00000  Uiso   1.00
loop_
_geom_bond_atom_site_label_1
_geom_bond_atom_site_label_2
_geom_bond_distance
_geom_bond_site_symmetry_2
_ccdc_geom_bond_type
C1     C24     1.400   .     S
C1     O50     1.294   .     A
C1     O163    1.283   1_455 S
C2     C4      1.462   .     S
C2     O55     1.307   .     A
C2     O111    1.300   .     S
C3     C9      1.389   .     A
C3     C7      1.409   .     A
C3     C26     1.460   .     S
C4     C10     1.394   .     A
C4     C66     1.409   .     S
C5     H38     1.084   .     S
C5     C14     1.403   .     A
C5     C7      1.405   .     A
C6     C15     1.398   .     A
C6     C66     1.401   .     S
C6     H619    1.084   1_554 S
C7     O164    1.384   1_455 S
C8     O56     1.384   .     S
C8     C120    1.409   1_455 S
C8     C122    1.401   1_455 S
C9     C11     1.394   .     A
C9     H37     1.080   .     S
C10    C13     1.398   .     A
C10    H36     1.078   .     S
C11    C16     1.414   .     A
C11    C14     1.414   .     A
C12    C25     1.400   .     S
C12    O51     1.294   .     A
C12    O107    1.283   .     S
C13    C15     1.417   .     A
C13    C17     1.418   .     A
C14    C544    1.393   .     S
C15    C545    1.391   1_554 S
C16    C21     1.415   .     A
C16    C539    1.415   .     S
C17    C20     1.417   .     A
C17    C538    1.415   1_554 S
C18    O56     1.410   .     S
C18    H29     1.111   .     S
C18    H30     1.110   .     S
C18    H31     1.108   .     S
C19    H33     1.112   .     S
C19    O48     1.412   .     S
C19    H34     1.108   .     S
C19    H90     1.114   .     S
C20    C22     1.391   .     A
C20    H40     1.079   .     S
C21    C23     1.385   .     A
C21    H41     1.079   .     S
C22    H27     1.084   .     S
C22    C536    1.393   1_554 S
C23    H35     1.084   .     S
C23    C537    1.391   .     S
C24    C315    1.337   1_455 S
C24    H216    1.088   .     S
C25    C430    1.337   1_545 S
C25    H376    1.088   1_545 S
C26    O54     1.304   .     A
C26    O168    1.302   1_455 S
H28    C199    1.088   .     S
H32    C135    1.114   1_455 S
H39    C644    1.084   1_455 S
H42    C372    1.088   1_545 S
I43    N45     2.072   .     S
I44    N46     2.073   .     S
N45    Zn58    2.035   .     S
N45    N46     1.287   .     D
N46    Zn57    2.035   .     S
O47    Zn57    1.951   .     S
O47    C59     1.283   .     S
O48    C65     1.384   .     S
O49    Zn58    1.951   .     S
O49    C128    1.283   1_455 S
O50    Zn58    1.973   .     S
O51    Zn57    1.973   .     S
O52    Zn57    1.942   .     S
O52    C84     1.302   .     S
O53    Zn58    1.942   .     S
O53    C118    1.300   1_455 S
O54    Zn58    1.885   .     S
O55    Zn57    1.885   .     S
C59    C82     1.400   .     S
C59    O108    1.294   .     A
C60    C62     1.462   .     S
C60    O113    1.307   .     A
C60    O169    1.300   .     S
C61    C67     1.389   .     A
C61    C65     1.409   .     A
C61    C84     1.460   .     S
C62    C68     1.394   .     A
C62    C124    1.409   .     S
C63    H96     1.084   .     S
C63    C72     1.403   .     A
C63    C65     1.405   .     A
C64    C73     1.398   .     A
C64    C124    1.401   .     S
C64    H677    1.084   1_554 S
C66    O114    1.384   .     S
C67    C69     1.394   .     A
C67    H95     1.080   .     S
C68    C71     1.398   .     A
C68    H94     1.078   .     S
C69    C74     1.414   .     A
C69    C72     1.414   .     A
C70    C83     1.400   .     S
C70    O109    1.294   .     A
C70    O165    1.283   .     S
C71    C73     1.417   .     A
C71    C75     1.418   .     A
C72    C602    1.393   .     S
C73    C603    1.391   1_554 S
C74    C79     1.415   .     A
C74    C597    1.415   .     S
C75    C78     1.417   .     A
C75    C596    1.415   1_554 S
C76    O114    1.410   .     S
C76    H87     1.111   .     S
C76    H88     1.110   .     S
C76    H89     1.108   .     S
C77    H91     1.112   .     S
C77    O106    1.412   .     S
C77    H92     1.108   .     S
C77    H148    1.114   .     S
C78    C80     1.391   .     A
C78    H98     1.079   .     S
C79    C81     1.385   .     A
C79    H99     1.079   .     S
C80    H85     1.084   .     S
C80    C594    1.393   1_554 S
C81    H93     1.084   .     S
C81    C595    1.391   .     S
C82    C199    1.337   .     S
C82    H274    1.088   .     S
C83    C488    1.337   1_545 S
C83    H434    1.088   1_545 S
C84    O112    1.304   .     A
H86    C257    1.088   .     S
H97    C528    1.084   .     S
H100   C430    1.088   1_545 S
I101   N103    2.072   .     S
I102   N104    2.073   .     S
N103   Zn116   2.035   .     S
N103   N104    1.287   .     D
N104   Zn115   2.035   .     S
O105   Zn115   1.951   .     S
O105   C117    1.283   .     S
O106   C123    1.384   .     S
O107   Zn116   1.951   .     S
O108   Zn116   1.973   .     S
O109   Zn115   1.973   .     S
O110   Zn115   1.942   .     S
O110   C142    1.302   .     S
O111   Zn116   1.942   .     S
O112   Zn116   1.885   .     S
O113   Zn115   1.885   .     S
C117   C140    1.400   .     S
C117   O166    1.294   .     A
C118   C120    1.462   .     S
C118   O171    1.307   .     A
C118   O53     1.300   1_655 S
C119   C125    1.389   .     A
C119   C123    1.409   .     A
C119   C142    1.460   .     S
C120   C126    1.394   .     A
C120   C8      1.409   1_655 S
C121   H154    1.084   .     S
C121   C130    1.403   .     A
C121   C123    1.405   .     A
C122   C131    1.398   .     A
C122   C8      1.401   1_655 S
C122   H561    1.084   1_654 S
C124   O172    1.384   .     S
C125   C127    1.394   .     A
C125   H153    1.080   .     S
C126   C129    1.398   .     A
C126   H152    1.078   .     S
C127   C132    1.414   .     A
C127   C130    1.414   .     A
C128   C141    1.400   .     S
C128   O167    1.294   .     A
C128   O49     1.283   1_655 S
C129   C131    1.417   .     A
C129   C133    1.418   .     A
C130   C660    1.393   .     S
C131   C661    1.391   1_554 S
C132   C137    1.415   .     A
C132   C655    1.415   .     S
C133   C136    1.417   .     A
C133   C654    1.415   1_554 S
C134   O172    1.410   .     S
C134   H145    1.111   .     S
C134   H146    1.110   .     S
C134   H147    1.108   .     S
C135   H149    1.112   .     S
C135   O164    1.412   .     S
C135   H150    1.108   .     S
C135   H32     1.114   1_655 S
C136   C138    1.391   .     A
C136   H156    1.079   .     S
C137   C139    1.385   .     A
C137   H157    1.079   .     S
C138   H143    1.084   .     S
C138   C652    1.393   1_554 S
C139   H151    1.084   .     S
C139   C653    1.391   .     S
C140   C257    1.337   .     S
C140   H332    1.088   .     S
C141   C372    1.337   1_645 S
C141   H492    1.088   1_545 S
C142   O170    1.304   .     A
H144   C315    1.088   .     S
H155   C586    1.084   .     S
H158   C488    1.088   1_545 S
I159   N161    2.072   .     S
I160   N162    2.073   .     S
N161   Zn174   2.035   .     S
N161   N162    1.287   .     D
N162   Zn173   2.035   .     S
O163   Zn173   1.951   .     S
O163   C1      1.283   1_655 S
O164   C7      1.384   1_655 S
O165   Zn174   1.951   .     S
O166   Zn174   1.973   .     S
O167   Zn173   1.973   .     S
O168   Zn173   1.942   .     S
O168   C26     1.302   1_655 S
O169   Zn174   1.942   .     S
O170   Zn174   1.885   .     S
O171   Zn173   1.885   .     S
C175   C198    1.400   .     S
C175   O224    1.294   .     A
C175   O337    1.283   1_455 S
C176   C178    1.462   .     S
C176   O229    1.307   .     A
C176   O285    1.300   .     S
C177   C183    1.389   .     A
C177   C181    1.409   .     A
C177   C200    1.460   .     S
C178   C184    1.394   .     A
C178   C240    1.409   .     S
C179   H212    1.084   .     S
C179   C188    1.403   .     A
C179   C181    1.405   .     A
C180   C189    1.398   .     A
C180   C240    1.401   .     S
C180   H793    1.084   1_554 S
C181   O338    1.384   1_455 S
C182   O230    1.384   .     S
C182   C294    1.409   1_455 S
C182   C296    1.401   1_455 S
C183   C185    1.394   .     A
C183   H211    1.080   .     S
C184   C187    1.398   .     A
C184   H210    1.078   .     S
C185   C190    1.414   .     A
C185   C188    1.414   .     A
C186   C199    1.400   .     S
C186   O225    1.294   .     A
C186   O281    1.283   .     S
C187   C189    1.417   .     A
C187   C191    1.418   .     A
C188   C718    1.393   .     S
C189   C719    1.391   1_554 S
C190   C195    1.415   .     A
C190   C713    1.415   .     S
C191   C194    1.417   .     A
C191   C712    1.415   1_554 S
C192   O230    1.410   .     S
C192   H203    1.111   .     S
C192   H204    1.110   .     S
C192   H205    1.108   .     S
C193   H207    1.112   .     S
C193   O222    1.412   .     S
C193   H208    1.108   .     S
C193   H264    1.114   .     S
C194   C196    1.391   .     A
C194   H214    1.079   .     S
C195   C197    1.385   .     A
C195   H215    1.079   .     S
C196   H201    1.084   .     S
C196   C710    1.393   1_554 S
C197   H209    1.084   .     S
C197   C711    1.391   .     S
C198   C489    1.337   1_455 S
C198   H390    1.088   .     S
C200   O228    1.304   .     A
C200   O342    1.302   1_455 S
H202   C373    1.088   .     S
H206   C309    1.114   1_455 S
H213   C818    1.084   1_455 S
I217   N219    2.072   .     S
I218   N220    2.073   .     S
N219   Zn232   2.035   .     S
N219   N220    1.287   .     D
N220   Zn231   2.035   .     S
O221   Zn231   1.951   .     S
O221   C233    1.283   .     S
O222   C239    1.384   .     S
O223   Zn232   1.951   .     S
O223   C302    1.283   1_455 S
O224   Zn232   1.973   .     S
O225   Zn231   1.973   .     S
O226   Zn231   1.942   .     S
O226   C258    1.302   .     S
O227   Zn232   1.942   .     S
O227   C292    1.300   1_455 S
O228   Zn232   1.885   .     S
O229   Zn231   1.885   .     S
C233   C256    1.400   .     S
C233   O282    1.294   .     A
C234   C236    1.462   .     S
C234   O287    1.307   .     A
C234   O343    1.300   .     S
C235   C241    1.389   .     A
C235   C239    1.409   .     A
C235   C258    1.460   .     S
C236   C242    1.394   .     A
C236   C298    1.409   .     S
C237   H270    1.084   .     S
C237   C246    1.403   .     A
C237   C239    1.405   .     A
C238   C247    1.398   .     A
C238   C298    1.401   .     S
C238   H851    1.084   1_554 S
C240   O288    1.384   .     S
C241   C243    1.394   .     A
C241   H269    1.080   .     S
C242   C245    1.398   .     A
C242   H268    1.078   .     S
C243   C248    1.414   .     A
C243   C246    1.414   .     A
C244   C257    1.400   .     S
C244   O283    1.294   .     A
C244   O339    1.283   .     S
C245   C247    1.417   .     A
C245   C249    1.418   .     A
C246   C776    1.393   .     S
C247   C777    1.391   1_554 S
C248   C253    1.415   .     A
C248   C771    1.415   .     S
C249   C252    1.417   .     A
C249   C770    1.415   1_554 S
C250   O288    1.410   .     S
C250   H261    1.111   .     S
C250   H262    1.110   .     S
C250   H263    1.108   .     S
C251   H265    1.112   .     S
C251   O280    1.412   .     S
C251   H266    1.108   .     S
C251   H322    1.114   .     S
C252   C254    1.391   .     A
C252   H272    1.079   .     S
C253   C255    1.385   .     A
C253   H273    1.079   .     S
C254   H259    1.084   .     S
C254   C768    1.393   1_554 S
C255   H267    1.084   .     S
C255   C769    1.391   .     S
C256   C373    1.337   .     S
C256   H448    1.088   .     S
C258   O286    1.304   .     A
H260   C431    1.088   .     S
H271   C702    1.084   .     S
I275   N277    2.072   .     S
I276   N278    2.073   .     S
N277   Zn290   2.035   .     S
N277   N278    1.287   .     D
N278   Zn289   2.035   .     S
O279   Zn289   1.951   .     S
O279   C291    1.283   .     S
O280   C297    1.384   .     S
O281   Zn290   1.951   .     S
O282   Zn290   1.973   .     S
O283   Zn289   1.973   .     S
O284   Zn289   1.942   .     S
O284   C316    1.302   .     S
O285   Zn290   1.942   .     S
O286   Zn290   1.885   .     S
O287   Zn289   1.885   .     S
C291   C314    1.400   .     S
C291   O340    1.294   .     A
C292   C294    1.462   .     S
C292   O345    1.307   .     A
C292   O227    1.300   1_655 S
C293   C299    1.389   .     A
C293   C297    1.409   .     A
C293   C316    1.460   .     S
C294   C300    1.394   .     A
C294   C182    1.409   1_655 S
C295   H328    1.084   .     S
C295   C304    1.403   .     A
C295   C297    1.405   .     A
C296   C305    1.398   .     A
C296   C182    1.401   1_655 S
C296   H735    1.084   1_654 S
C298   O346    1.384   .     S
C299   C301    1.394   .     A
C299   H327    1.080   .     S
C300   C303    1.398   .     A
C300   H326    1.078   .     S
C301   C306    1.414   .     A
C301   C304    1.414   .     A
C302   C315    1.400   .     S
C302   O341    1.294   .     A
C302   O223    1.283   1_655 S
C303   C305    1.417   .     A
C303   C307    1.418   .     A
C304   C834    1.393   .     S
C305   C835    1.391   1_554 S
C306   C311    1.415   .     A
C306   C829    1.415   .     S
C307   C310    1.417   .     A
C307   C828    1.415   1_554 S
C308   O346    1.410   .     S
C308   H319    1.111   .     S
C308   H320    1.110   .     S
C308   H321    1.108   .     S
C309   H323    1.112   .     S
C309   O338    1.412   .     S
C309   H324    1.108   .     S
C309   H206    1.114   1_655 S
C310   C312    1.391   .     A
C310   H330    1.079   .     S
C311   C313    1.385   .     A
C311   H331    1.079   .     S
C312   H317    1.084   .     S
C312   C826    1.393   1_554 S
C313   H325    1.084   .     S
C313   C827    1.391   .     S
C314   C431    1.337   .     S
C314   H506    1.088   .     S
C315   C24     1.337   1_655 S
C316   O344    1.304   .     A
H318   C489    1.088   .     S
H329   C760    1.084   .     S
I333   N335    2.072   .     S
I334   N336    2.073   .     S
N335   Zn348   2.035   .     S
N335   N336    1.287   .     D
N336   Zn347   2.035   .     S
O337   Zn347   1.951   .     S
O337   C175    1.283   1_655 S
O338   C181    1.384   1_655 S
O339   Zn348   1.951   .     S
O340   Zn348   1.973   .     S
O341   Zn347   1.973   .     S
O342   Zn347   1.942   .     S
O342   C200    1.302   1_655 S
O343   Zn348   1.942   .     S
O344   Zn348   1.885   .     S
O345   Zn347   1.885   .     S
C349   C372    1.400   .     S
C349   O398    1.294   .     A
C349   O511    1.283   1_455 S
C350   C352    1.462   .     S
C350   O403    1.307   .     A
C350   O459    1.300   .     S
C351   C357    1.389   .     A
C351   C355    1.409   .     A
C351   C374    1.460   .     S
C352   C358    1.394   .     A
C352   C414    1.409   .     S
C353   H386    1.084   .     S
C353   C362    1.403   .     A
C353   C355    1.405   .     A
C354   C363    1.398   .     A
C354   C414    1.401   .     S
C354   H967    1.084   1_554 S
C355   O512    1.384   1_455 S
C356   O404    1.384   .     S
C356   C468    1.409   1_455 S
C356   C470    1.401   1_455 S
C357   C359    1.394   .     A
C357   H385    1.080   .     S
C358   C361    1.398   .     A
C358   H384    1.078   .     S
C359   C364    1.414   .     A
C359   C362    1.414   .     A
C360   C373    1.400   .     S
C360   O399    1.294   .     A
C360   O455    1.283   .     S
C361   C363    1.417   .     A
C361   C365    1.418   .     A
C362   C892    1.393   .     S
C363   C893    1.391   1_554 S
C364   C369    1.415   .     A
C364   C887    1.415   .     S
C365   C368    1.417   .     A
C365   C886    1.415   1_554 S
C366   O404    1.410   .     S
C366   H377    1.111   .     S
C366   H378    1.110   .     S
C366   H379    1.108   .     S
C367   H381    1.112   .     S
C367   O396    1.412   .     S
C367   H382    1.108   .     S
C367   H438    1.114   .     S
C368   C370    1.391   .     A
C368   H388    1.079   .     S
C369   C371    1.385   .     A
C369   H389    1.079   .     S
C370   H375    1.084   .     S
C370   C884    1.393   1_554 S
C371   H383    1.084   .     S
C371   C885    1.391   .     S
C372   C141    1.337   1_465 S
C372   H42     1.088   1_565 S
C374   O402    1.304   .     A
C374   O516    1.302   1_455 S
H376   C25     1.088   1_565 S
H380   C483    1.114   1_455 S
H387   C992    1.084   1_455 S
I391   N393    2.072   .     S
I392   N394    2.073   .     S
N393   Zn406   2.035   .     S
N393   N394    1.287   .     D
N394   Zn405   2.035   .     S
O395   Zn405   1.951   .     S
O395   C407    1.283   .     S
O396   C413    1.384   .     S
O397   Zn406   1.951   .     S
O397   C476    1.283   1_455 S
O398   Zn406   1.973   .     S
O399   Zn405   1.973   .     S
O400   Zn405   1.942   .     S
O400   C432    1.302   .     S
O401   Zn406   1.942   .     S
O401   C466    1.300   1_455 S
O402   Zn406   1.885   .     S
O403   Zn405   1.885   .     S
C407   C430    1.400   .     S
C407   O456    1.294   .     A
C408   C410    1.462   .     S
C408   O461    1.307   .     A
C408   O517    1.300   .     S
C409   C415    1.389   .     A
C409   C413    1.409   .     A
C409   C432    1.460   .     S
C410   C416    1.394   .     A
C410   C472    1.409   .     S
C411   H444    1.084   .     S
C411   C420    1.403   .     A
C411   C413    1.405   .     A
C412   C421    1.398   .     A
C412   C472    1.401   .     S
C412   H1025   1.084   1_554 S
C414   O462    1.384   .     S
C415   C417    1.394   .     A
C415   H443    1.080   .     S
C416   C419    1.398   .     A
C416   H442    1.078   .     S
C417   C422    1.414   .     A
C417   C420    1.414   .     A
C418   C431    1.400   .     S
C418   O457    1.294   .     A
C418   O513    1.283   .     S
C419   C421    1.417   .     A
C419   C423    1.418   .     A
C420   C950    1.393   .     S
C421   C951    1.391   1_554 S
C422   C427    1.415   .     A
C422   C945    1.415   .     S
C423   C426    1.417   .     A
C423   C944    1.415   1_554 S
C424   O462    1.410   .     S
C424   H435    1.111   .     S
C424   H436    1.110   .     S
C424   H437    1.108   .     S
C425   H439    1.112   .     S
C425   O454    1.412   .     S
C425   H440    1.108   .     S
C425   H496    1.114   .     S
C426   C428    1.391   .     A
C426   H446    1.079   .     S
C427   C429    1.385   .     A
C427   H447    1.079   .     S
C428   H433    1.084   .     S
C428   C942    1.393   1_554 S
C429   H441    1.084   .     S
C429   C943    1.391   .     S
C430   C25     1.337   1_565 S
C430   H100    1.088   1_565 S
C432   O460    1.304   .     A
H434   C83     1.088   1_565 S
H445   C876    1.084   .     S
I449   N451    2.072   .     S
I450   N452    2.073   .     S
N451   Zn464   2.035   .     S
N451   N452    1.287   .     D
N452   Zn463   2.035   .     S
O453   Zn463   1.951   .     S
O453   C465    1.283   .     S
O454   C471    1.384   .     S
O455   Zn464   1.951   .     S
O456   Zn464   1.973   .     S
O457   Zn463   1.973   .     S
O458   Zn463   1.942   .     S
O458   C490    1.302   .     S
O459   Zn464   1.942   .     S
O460   Zn464   1.885   .     S
O461   Zn463   1.885   .     S
C465   C488    1.400   .     S
C465   O514    1.294   .     A
C466   C468    1.462   .     S
C466   O519    1.307   .     A
C466   O401    1.300   1_655 S
C467   C473    1.389   .     A
C467   C471    1.409   .     A
C467   C490    1.460   .     S
C468   C474    1.394   .     A
C468   C356    1.409   1_655 S
C469   H502    1.084   .     S
C469   C478    1.403   .     A
C469   C471    1.405   .     A
C470   C479    1.398   .     A
C470   C356    1.401   1_655 S
C470   H909    1.084   1_654 S
C472   O520    1.384   .     S
C473   C475    1.394   .     A
C473   H501    1.080   .     S
C474   C477    1.398   .     A
C474   H500    1.078   .     S
C475   C480    1.414   .     A
C475   C478    1.414   .     A
C476   C489    1.400   .     S
C476   O515    1.294   .     A
C476   O397    1.283   1_655 S
C477   C479    1.417   .     A
C477   C481    1.418   .     A
C478   C1008   1.393   .     S
C479   C1009   1.391   1_554 S
C480   C485    1.415   .     A
C480   C1003   1.415   .     S
C481   C484    1.417   .     A
C481   C1002   1.415   1_554 S
C482   O520    1.410   .     S
C482   H493    1.111   .     S
C482   H494    1.110   .     S
C482   H495    1.108   .     S
C483   H497    1.112   .     S
C483   O512    1.412   .     S
C483   H498    1.108   .     S
C483   H380    1.114   1_655 S
C484   C486    1.391   .     A
C484   H504    1.079   .     S
C485   C487    1.385   .     A
C485   H505    1.079   .     S
C486   H491    1.084   .     S
C486   C1000   1.393   1_554 S
C487   H499    1.084   .     S
C487   C1001   1.391   .     S
C488   C83     1.337   1_565 S
C488   H158    1.088   1_565 S
C489   C198    1.337   1_655 S
C490   O518    1.304   .     A
H492   C141    1.088   1_565 S
H503   C934    1.084   .     S
I507   N509    2.072   .     S
I508   N510    2.073   .     S
N509   Zn522   2.035   .     S
N509   N510    1.287   .     D
N510   Zn521   2.035   .     S
O511   Zn521   1.951   .     S
O511   C349    1.283   1_655 S
O512   C355    1.384   1_655 S
O513   Zn522   1.951   .     S
O514   Zn522   1.973   .     S
O515   Zn521   1.973   .     S
O516   Zn521   1.942   .     S
O516   C374    1.302   1_655 S
O517   Zn522   1.942   .     S
O518   Zn522   1.885   .     S
O519   Zn521   1.885   .     S
C523   C546    1.400   .     S
C523   O572    1.294   .     A
C523   O685    1.283   1_455 S
C524   C526    1.462   .     S
C524   O577    1.307   .     A
C524   O633    1.300   .     S
C525   C531    1.389   .     A
C525   C529    1.409   .     A
C525   C548    1.460   .     S
C526   C532    1.394   .     A
C526   C588    1.409   .     S
C527   H560    1.084   .     S
C527   C536    1.403   .     A
C527   C529    1.405   .     A
C528   C537    1.398   .     A
C528   C588    1.401   .     S
C529   O686    1.384   1_455 S
C530   O578    1.384   .     S
C530   C642    1.409   1_455 S
C530   C644    1.401   1_455 S
C531   C533    1.394   .     A
C531   H559    1.080   .     S
C532   C535    1.398   .     A
C532   H558    1.078   .     S
C533   C538    1.414   .     A
C533   C536    1.414   .     A
C534   C547    1.400   .     S
C534   O573    1.294   .     A
C534   O629    1.283   .     S
C535   C537    1.417   .     A
C535   C539    1.418   .     A
C536   C22     1.393   1_556 S
C538   C543    1.415   .     A
C538   C17     1.415   1_556 S
C539   C542    1.417   .     A
C540   O578    1.410   .     S
C540   H551    1.111   .     S
C540   H552    1.110   .     S
C540   H553    1.108   .     S
C541   H555    1.112   .     S
C541   O570    1.412   .     S
C541   H556    1.108   .     S
C541   H612    1.114   .     S
C542   C544    1.391   .     A
C542   H562    1.079   .     S
C543   C545    1.385   .     A
C543   H563    1.079   .     S
C544   H549    1.084   .     S
C545   H557    1.084   .     S
C545   C15     1.391   1_556 S
C546   C837    1.337   1_455 S
C546   H738    1.088   .     S
C547   C952    1.337   1_545 S
C547   H898    1.088   1_545 S
C548   O576    1.304   .     A
C548   O690    1.302   1_455 S
H550   C721    1.088   .     S
H554   C657    1.114   1_455 S
H561   C122    1.084   1_456 S
H564   C894    1.088   1_545 S
I565   N567    2.072   .     S
I566   N568    2.073   .     S
N567   Zn580   2.035   .     S
N567   N568    1.287   .     D
N568   Zn579   2.035   .     S
O569   Zn579   1.951   .     S
O569   C581    1.283   .     S
O570   C587    1.384   .     S
O571   Zn580   1.951   .     S
O571   C650    1.283   1_455 S
O572   Zn580   1.973   .     S
O573   Zn579   1.973   .     S
O574   Zn579   1.942   .     S
O574   C606    1.302   .     S
O575   Zn580   1.942   .     S
O575   C640    1.300   1_455 S
O576   Zn580   1.885   .     S
O577   Zn579   1.885   .     S
C581   C604    1.400   .     S
C581   O630    1.294   .     A
C582   C584    1.462   .     S
C582   O635    1.307   .     A
C582   O691    1.300   .     S
C583   C589    1.389   .     A
C583   C587    1.409   .     A
C583   C606    1.460   .     S
C584   C590    1.394   .     A
C584   C646    1.409   .     S
C585   H618    1.084   .     S
C585   C594    1.403   .     A
C585   C587    1.405   .     A
C586   C595    1.398   .     A
C586   C646    1.401   .     S
C588   O636    1.384   .     S
C589   C591    1.394   .     A
C589   H617    1.080   .     S
C590   C593    1.398   .     A
C590   H616    1.078   .     S
C591   C596    1.414   .     A
C591   C594    1.414   .     A
C592   C605    1.400   .     S
C592   O631    1.294   .     A
C592   O687    1.283   .     S
C593   C595    1.417   .     A
C593   C597    1.418   .     A
C594   C80     1.393   1_556 S
C596   C601    1.415   .     A
C596   C75     1.415   1_556 S
C597   C600    1.417   .     A
C598   O636    1.410   .     S
C598   H609    1.111   .     S
C598   H610    1.110   .     S
C598   H611    1.108   .     S
C599   H613    1.112   .     S
C599   O628    1.412   .     S
C599   H614    1.108   .     S
C599   H670    1.114   .     S
C600   C602    1.391   .     A
C600   H620    1.079   .     S
C601   C603    1.385   .     A
C601   H621    1.079   .     S
C602   H607    1.084   .     S
C603   H615    1.084   .     S
C603   C73     1.391   1_556 S
C604   C721    1.337   .     S
C604   H796    1.088   .     S
C605   C1010   1.337   1_545 S
C605   H956    1.088   1_545 S
C606   O634    1.304   .     A
H608   C779    1.088   .     S
H619   C6      1.084   1_556 S
H622   C952    1.088   1_545 S
I623   N625    2.072   .     S
I624   N626    2.073   .     S
N625   Zn638   2.035   .     S
N625   N626    1.287   .     D
N626   Zn637   2.035   .     S
O627   Zn637   1.951   .     S
O627   C639    1.283   .     S
O628   C645    1.384   .     S
O629   Zn638   1.951   .     S
O630   Zn638   1.973   .     S
O631   Zn637   1.973   .     S
O632   Zn637   1.942   .     S
O632   C664    1.302   .     S
O633   Zn638   1.942   .     S
O634   Zn638   1.885   .     S
O635   Zn637   1.885   .     S
C639   C662    1.400   .     S
C639   O688    1.294   .     A
C640   C642    1.462   .     S
C640   O693    1.307   .     A
C640   O575    1.300   1_655 S
C641   C647    1.389   .     A
C641   C645    1.409   .     A
C641   C664    1.460   .     S
C642   C648    1.394   .     A
C642   C530    1.409   1_655 S
C643   H676    1.084   .     S
C643   C652    1.403   .     A
C643   C645    1.405   .     A
C644   C653    1.398   .     A
C644   C530    1.401   1_655 S
C644   H39     1.084   1_655 S
C646   O694    1.384   .     S
C647   C649    1.394   .     A
C647   H675    1.080   .     S
C648   C651    1.398   .     A
C648   H674    1.078   .     S
C649   C654    1.414   .     A
C649   C652    1.414   .     A
C650   C663    1.400   .     S
C650   O689    1.294   .     A
C650   O571    1.283   1_655 S
C651   C653    1.417   .     A
C651   C655    1.418   .     A
C652   C138    1.393   1_556 S
C654   C659    1.415   .     A
C654   C133    1.415   1_556 S
C655   C658    1.417   .     A
C656   O694    1.410   .     S
C656   H667    1.111   .     S
C656   H668    1.110   .     S
C656   H669    1.108   .     S
C657   H671    1.112   .     S
C657   O686    1.412   .     S
C657   H672    1.108   .     S
C657   H554    1.114   1_655 S
C658   C660    1.391   .     A
C658   H678    1.079   .     S
C659   C661    1.385   .     A
C659   H679    1.079   .     S
C660   H665    1.084   .     S
C661   H673    1.084   .     S
C661   C131    1.391   1_556 S
C662   C779    1.337   .     S
C662   H854    1.088   .     S
C663   C894    1.337   1_645 S
C663   H1014   1.088   1_545 S
C664   O692    1.304   .     A
H666   C837    1.088   .     S
H677   C64     1.084   1_556 S
H680   C1010   1.088   1_545 S
I681   N683    2.072   .     S
I682   N684    2.073   .     S
N683   Zn696   2.035   .     S
N683   N684    1.287   .     D
N684   Zn695   2.035   .     S
O685   Zn695   1.951   .     S
O685   C523    1.283   1_655 S
O686   C529    1.384   1_655 S
O687   Zn696   1.951   .     S
O688   Zn696   1.973   .     S
O689   Zn695   1.973   .     S
O690   Zn695   1.942   .     S
O690   C548    1.302   1_655 S
O691   Zn696   1.942   .     S
O692   Zn696   1.885   .     S
O693   Zn695   1.885   .     S
C697   C720    1.400   .     S
C697   O746    1.294   .     A
C697   O859    1.283   1_455 S
C698   C700    1.462   .     S
C698   O751    1.307   .     A
C698   O807    1.300   .     S
C699   C705    1.389   .     A
C699   C703    1.409   .     A
C699   C722    1.460   .     S
C700   C706    1.394   .     A
C700   C762    1.409   .     S
C701   H734    1.084   .     S
C701   C710    1.403   .     A
C701   C703    1.405   .     A
C702   C711    1.398   .     A
C702   C762    1.401   .     S
C703   O860    1.384   1_455 S
C704   O752    1.384   .     S
C704   C816    1.409   1_455 S
C704   C818    1.401   1_455 S
C705   C707    1.394   .     A
C705   H733    1.080   .     S
C706   C709    1.398   .     A
C706   H732    1.078   .     S
C707   C712    1.414   .     A
C707   C710    1.414   .     A
C708   C721    1.400   .     S
C708   O747    1.294   .     A
C708   O803    1.283   .     S
C709   C711    1.417   .     A
C709   C713    1.418   .     A
C710   C196    1.393   1_556 S
C712   C717    1.415   .     A
C712   C191    1.415   1_556 S
C713   C716    1.417   .     A
C714   O752    1.410   .     S
C714   H725    1.111   .     S
C714   H726    1.110   .     S
C714   H727    1.108   .     S
C715   H729    1.112   .     S
C715   O744    1.412   .     S
C715   H730    1.108   .     S
C715   H786    1.114   .     S
C716   C718    1.391   .     A
C716   H736    1.079   .     S
C717   C719    1.385   .     A
C717   H737    1.079   .     S
C718   H723    1.084   .     S
C719   H731    1.084   .     S
C719   C189    1.391   1_556 S
C720   C1011   1.337   1_455 S
C720   H912    1.088   .     S
C722   O750    1.304   .     A
C722   O864    1.302   1_455 S
H724   C895    1.088   .     S
H728   C831    1.114   1_455 S
H735   C296    1.084   1_456 S
I739   N741    2.072   .     S
I740   N742    2.073   .     S
N741   Zn754   2.035   .     S
N741   N742    1.287   .     D
N742   Zn753   2.035   .     S
O743   Zn753   1.951   .     S
O743   C755    1.283   .     S
O744   C761    1.384   .     S
O745   Zn754   1.951   .     S
O745   C824    1.283   1_455 S
O746   Zn754   1.973   .     S
O747   Zn753   1.973   .     S
O748   Zn753   1.942   .     S
O748   C780    1.302   .     S
O749   Zn754   1.942   .     S
O749   C814    1.300   1_455 S
O750   Zn754   1.885   .     S
O751   Zn753   1.885   .     S
C755   C778    1.400   .     S
C755   O804    1.294   .     A
C756   C758    1.462   .     S
C756   O809    1.307   .     A
C756   O865    1.300   .     S
C757   C763    1.389   .     A
C757   C761    1.409   .     A
C757   C780    1.460   .     S
C758   C764    1.394   .     A
C758   C820    1.409   .     S
C759   H792    1.084   .     S
C759   C768    1.403   .     A
C759   C761    1.405   .     A
C760   C769    1.398   .     A
C760   C820    1.401   .     S
C762   O810    1.384   .     S
C763   C765    1.394   .     A
C763   H791    1.080   .     S
C764   C767    1.398   .     A
C764   H790    1.078   .     S
C765   C770    1.414   .     A
C765   C768    1.414   .     A
C766   C779    1.400   .     S
C766   O805    1.294   .     A
C766   O861    1.283   .     S
C767   C769    1.417   .     A
C767   C771    1.418   .     A
C768   C254    1.393   1_556 S
C770   C775    1.415   .     A
C770   C249    1.415   1_556 S
C771   C774    1.417   .     A
C772   O810    1.410   .     S
C772   H783    1.111   .     S
C772   H784    1.110   .     S
C772   H785    1.108   .     S
C773   H787    1.112   .     S
C773   O802    1.412   .     S
C773   H788    1.108   .     S
C773   H844    1.114   .     S
C774   C776    1.391   .     A
C774   H794    1.079   .     S
C775   C777    1.385   .     A
C775   H795    1.079   .     S
C776   H781    1.084   .     S
C777   H789    1.084   .     S
C777   C247    1.391   1_556 S
C778   C895    1.337   .     S
C778   H970    1.088   .     S
C780   O808    1.304   .     A
H782   C953    1.088   .     S
H793   C180    1.084   1_556 S
I797   N799    2.072   .     S
I798   N800    2.073   .     S
N799   Zn812   2.035   .     S
N799   N800    1.287   .     D
N800   Zn811   2.035   .     S
O801   Zn811   1.951   .     S
O801   C813    1.283   .     S
O802   C819    1.384   .     S
O803   Zn812   1.951   .     S
O804   Zn812   1.973   .     S
O805   Zn811   1.973   .     S
O806   Zn811   1.942   .     S
O806   C838    1.302   .     S
O807   Zn812   1.942   .     S
O808   Zn812   1.885   .     S
O809   Zn811   1.885   .     S
C813   C836    1.400   .     S
C813   O862    1.294   .     A
C814   C816    1.462   .     S
C814   O867    1.307   .     A
C814   O749    1.300   1_655 S
C815   C821    1.389   .     A
C815   C819    1.409   .     A
C815   C838    1.460   .     S
C816   C822    1.394   .     A
C816   C704    1.409   1_655 S
C817   H850    1.084   .     S
C817   C826    1.403   .     A
C817   C819    1.405   .     A
C818   C827    1.398   .     A
C818   C704    1.401   1_655 S
C818   H213    1.084   1_655 S
C820   O868    1.384   .     S
C821   C823    1.394   .     A
C821   H849    1.080   .     S
C822   C825    1.398   .     A
C822   H848    1.078   .     S
C823   C828    1.414   .     A
C823   C826    1.414   .     A
C824   C837    1.400   .     S
C824   O863    1.294   .     A
C824   O745    1.283   1_655 S
C825   C827    1.417   .     A
C825   C829    1.418   .     A
C826   C312    1.393   1_556 S
C828   C833    1.415   .     A
C828   C307    1.415   1_556 S
C829   C832    1.417   .     A
C830   O868    1.410   .     S
C830   H841    1.111   .     S
C830   H842    1.110   .     S
C830   H843    1.108   .     S
C831   H845    1.112   .     S
C831   O860    1.412   .     S
C831   H846    1.108   .     S
C831   H728    1.114   1_655 S
C832   C834    1.391   .     A
C832   H852    1.079   .     S
C833   C835    1.385   .     A
C833   H853    1.079   .     S
C834   H839    1.084   .     S
C835   H847    1.084   .     S
C835   C305    1.391   1_556 S
C836   C953    1.337   .     S
C836   H1028   1.088   .     S
C837   C546    1.337   1_655 S
C838   O866    1.304   .     A
H840   C1011   1.088   .     S
H851   C238    1.084   1_556 S
I855   N857    2.072   .     S
I856   N858    2.073   .     S
N857   Zn870   2.035   .     S
N857   N858    1.287   .     D
N858   Zn869   2.035   .     S
O859   Zn869   1.951   .     S
O859   C697    1.283   1_655 S
O860   C703    1.384   1_655 S
O861   Zn870   1.951   .     S
O862   Zn870   1.973   .     S
O863   Zn869   1.973   .     S
O864   Zn869   1.942   .     S
O864   C722    1.302   1_655 S
O865   Zn870   1.942   .     S
O866   Zn870   1.885   .     S
O867   Zn869   1.885   .     S
C871   C894    1.400   .     S
C871   O920    1.294   .     A
C871   O1033   1.283   1_455 S
C872   C874    1.462   .     S
C872   O925    1.307   .     A
C872   O981    1.300   .     S
C873   C879    1.389   .     A
C873   C877    1.409   .     A
C873   C896    1.460   .     S
C874   C880    1.394   .     A
C874   C936    1.409   .     S
C875   H908    1.084   .     S
C875   C884    1.403   .     A
C875   C877    1.405   .     A
C876   C885    1.398   .     A
C876   C936    1.401   .     S
C877   O1034   1.384   1_455 S
C878   O926    1.384   .     S
C878   C990    1.409   1_455 S
C878   C992    1.401   1_455 S
C879   C881    1.394   .     A
C879   H907    1.080   .     S
C880   C883    1.398   .     A
C880   H906    1.078   .     S
C881   C886    1.414   .     A
C881   C884    1.414   .     A
C882   C895    1.400   .     S
C882   O921    1.294   .     A
C882   O977    1.283   .     S
C883   C885    1.417   .     A
C883   C887    1.418   .     A
C884   C370    1.393   1_556 S
C886   C891    1.415   .     A
C886   C365    1.415   1_556 S
C887   C890    1.417   .     A
C888   O926    1.410   .     S
C888   H899    1.111   .     S
C888   H900    1.110   .     S
C888   H901    1.108   .     S
C889   H903    1.112   .     S
C889   O918    1.412   .     S
C889   H904    1.108   .     S
C889   H960    1.114   .     S
C890   C892    1.391   .     A
C890   H910    1.079   .     S
C891   C893    1.385   .     A
C891   H911    1.079   .     S
C892   H897    1.084   .     S
C893   H905    1.084   .     S
C893   C363    1.391   1_556 S
C894   C663    1.337   1_465 S
C894   H564    1.088   1_565 S
C896   O924    1.304   .     A
C896   O1038   1.302   1_455 S
H898   C547    1.088   1_565 S
H902   C1005   1.114   1_455 S
H909   C470    1.084   1_456 S
I913   N915    2.072   .     S
I914   N916    2.073   .     S
N915   Zn928   2.035   .     S
N915   N916    1.287   .     D
N916   Zn927   2.035   .     S
O917   Zn927   1.951   .     S
O917   C929    1.283   .     S
O918   C935    1.384   .     S
O919   Zn928   1.951   .     S
O919   C998    1.283   1_455 S
O920   Zn928   1.973   .     S
O921   Zn927   1.973   .     S
O922   Zn927   1.942   .     S
O922   C954    1.302   .     S
O923   Zn928   1.942   .     S
O923   C988    1.300   1_455 S
O924   Zn928   1.885   .     S
O925   Zn927   1.885   .     S
C929   C952    1.400   .     S
C929   O978    1.294   .     A
C930   C932    1.462   .     S
C930   O983    1.307   .     A
C930   O1039   1.300   .     S
C931   C937    1.389   .     A
C931   C935    1.409   .     A
C931   C954    1.460   .     S
C932   C938    1.394   .     A
C932   C994    1.409   .     S
C933   H966    1.084   .     S
C933   C942    1.403   .     A
C933   C935    1.405   .     A
C934   C943    1.398   .     A
C934   C994    1.401   .     S
C936   O984    1.384   .     S
C937   C939    1.394   .     A
C937   H965    1.080   .     S
C938   C941    1.398   .     A
C938   H964    1.078   .     S
C939   C944    1.414   .     A
C939   C942    1.414   .     A
C940   C953    1.400   .     S
C940   O979    1.294   .     A
C940   O1035   1.283   .     S
C941   C943    1.417   .     A
C941   C945    1.418   .     A
C942   C428    1.393   1_556 S
C944   C949    1.415   .     A
C944   C423    1.415   1_556 S
C945   C948    1.417   .     A
C946   O984    1.410   .     S
C946   H957    1.111   .     S
C946   H958    1.110   .     S
C946   H959    1.108   .     S
C947   H961    1.112   .     S
C947   O976    1.412   .     S
C947   H962    1.108   .     S
C947   H1018   1.114   .     S
C948   C950    1.391   .     A
C948   H968    1.079   .     S
C949   C951    1.385   .     A
C949   H969    1.079   .     S
C950   H955    1.084   .     S
C951   H963    1.084   .     S
C951   C421    1.391   1_556 S
C952   C547    1.337   1_565 S
C952   H622    1.088   1_565 S
C954   O982    1.304   .     A
H956   C605    1.088   1_565 S
H967   C354    1.084   1_556 S
I971   N973    2.072   .     S
I972   N974    2.073   .     S
N973   Zn986   2.035   .     S
N973   N974    1.287   .     D
N974   Zn985   2.035   .     S
O975   Zn985   1.951   .     S
O975   C987    1.283   .     S
O976   C993    1.384   .     S
O977   Zn986   1.951   .     S
O978   Zn986   1.973   .     S
O979   Zn985   1.973   .     S
O980   Zn985   1.942   .     S
O980   C1012   1.302   .     S
O981   Zn986   1.942   .     S
O982   Zn986   1.885   .     S
O983   Zn985   1.885   .     S
C987   C1010   1.400   .     S
C987   O1036   1.294   .     A
C988   C990    1.462   .     S
C988   O1041   1.307   .     A
C988   O923    1.300   1_655 S
C989   C995    1.389   .     A
C989   C993    1.409   .     A
C989   C1012   1.460   .     S
C990   C996    1.394   .     A
C990   C878    1.409   1_655 S
C991   H1024   1.084   .     S
C991   C1000   1.403   .     A
C991   C993    1.405   .     A
C992   C1001   1.398   .     A
C992   C878    1.401   1_655 S
C992   H387    1.084   1_655 S
C994   O1042   1.384   .     S
C995   C997    1.394   .     A
C995   H1023   1.080   .     S
C996   C999    1.398   .     A
C996   H1022   1.078   .     S
C997   C1002   1.414   .     A
C997   C1000   1.414   .     A
C998   C1011   1.400   .     S
C998   O1037   1.294   .     A
C998   O919    1.283   1_655 S
C999   C1001   1.417   .     A
C999   C1003   1.418   .     A
C1000  C486    1.393   1_556 S
C1002  C1007   1.415   .     A
C1002  C481    1.415   1_556 S
C1003  C1006   1.417   .     A
C1004  O1042   1.410   .     S
C1004  H1015   1.111   .     S
C1004  H1016   1.110   .     S
C1004  H1017   1.108   .     S
C1005  H1019   1.112   .     S
C1005  O1034   1.412   .     S
C1005  H1020   1.108   .     S
C1005  H902    1.114   1_655 S
C1006  C1008   1.391   .     A
C1006  H1026   1.079   .     S
C1007  C1009   1.385   .     A
C1007  H1027   1.079   .     S
C1008  H1013   1.084   .     S
C1009  H1021   1.084   .     S
C1009  C479    1.391   1_556 S
C1010  C605    1.337   1_565 S
C1010  H680    1.088   1_565 S
C1011  C720    1.337   1_655 S
C1012  O1040   1.304   .     A
H1014  C663    1.088   1_565 S
H1025  C412    1.084   1_556 S
I1029  N1031   2.072   .     S
I1030  N1032   2.073   .     S
N1031  Zn1044  2.035   .     S
N1031  N1032   1.287   .     D
N1032  Zn1043  2.035   .     S
O1033  Zn1043  1.951   .     S
O1033  C871    1.283   1_655 S
O1034  C877    1.384   1_655 S
O1035  Zn1044  1.951   .     S
O1036  Zn1044  1.973   .     S
O1037  Zn1043  1.973   .     S
O1038  Zn1043  1.942   .     S
O1038  C896    1.302   1_655 S
O1039  Zn1044  1.942   .     S
O1040  Zn1044  1.885   .     S
O1041  Zn1043  1.885   .     S
