data_str_m2_o1_o17_pcu_sym.45
_audit_creation_date              2020-01-03
_audit_creation_method            'Materials Studio'
_symmetry_space_group_name_H-M    'P1'
_symmetry_Int_Tables_number       1
_symmetry_cell_setting            triclinic
loop_
_symmetry_equiv_pos_as_xyz
  x,y,z
_cell_length_a                    32.5766
_cell_length_b                    29.0201
_cell_length_c                    29.9863
_cell_angle_alpha                 90.0000
_cell_angle_beta                  94.0265
_cell_angle_gamma                 90.0000
loop_
_atom_site_label
_atom_site_type_symbol
_atom_site_fract_x
_atom_site_fract_y
_atom_site_fract_z
_atom_site_U_iso_or_equiv
_atom_site_adp_type
_atom_site_occupancy
C1     C     0.08748   0.16667   0.24984   0.00000  Uiso   1.00
C2     C     0.04279   0.16667   0.25000   0.00000  Uiso   1.00
C3     C     0.14001   0.02464   0.22132   0.00000  Uiso   1.00
C4     C     0.19327   0.30868   0.27878   0.00000  Uiso   1.00
C5     C     0.19333   0.02464   0.27868   0.00000  Uiso   1.00
C6     C     0.14007   0.30868   0.22122   0.00000  Uiso   1.00
C7     C     0.16587   0.16659   0.16452   0.00000  Uiso   1.00
C8     C     0.16746   0.16659   0.33547   0.00000  Uiso   1.00
C9     C     0.20531   0.15960   0.40998   0.00000  Uiso   1.00
C10    C     0.12802   0.15960   0.09002   0.00000  Uiso   1.00
C11    C     0.16774   0.16536   0.38420   0.00000  Uiso   1.00
C12    C     0.24585   0.16667   0.25016   0.00000  Uiso   1.00
C13    C     0.16559   0.16536   0.11580   0.00000  Uiso   1.00
C14    C     0.12998   0.16559   0.40425   0.00000  Uiso   1.00
C15    C     0.20335   0.16559   0.09575   0.00000  Uiso   1.00
C16    C     0.12923   0.15405   0.45006   0.00000  Uiso   1.00
C17    C     0.20411   0.15405   0.04994   0.00000  Uiso   1.00
C18    C     0.16683   0.15200   0.47653   0.00000  Uiso   1.00
C19    C     0.16651   0.15200   0.02347   0.00000  Uiso   1.00
C20    C     0.20468   0.15020   0.45636   0.00000  Uiso   1.00
C21    C     0.12865   0.15020   0.04364   0.00000  Uiso   1.00
C22    C     0.09277   0.14040   0.46987   0.00000  Uiso   1.00
C23    C     0.09336   0.13564   0.01684   0.00000  Uiso   1.00
C24    C     0.24057   0.14040   0.03013   0.00000  Uiso   1.00
C25    C     0.24447   0.16997   0.38894   0.00000  Uiso   1.00
C26    C     0.08887   0.16997   0.11106   0.00000  Uiso   1.00
C27    C     0.09278   0.18340   0.37797   0.00000  Uiso   1.00
C28    C     0.24055   0.18340   0.12203   0.00000  Uiso   1.00
C29    C     0.05630   0.12379   0.44190   0.00000  Uiso   1.00
C30    C     0.27704   0.12379   0.05810   0.00000  Uiso   1.00
C31    C     0.06124   0.10678   0.03625   0.00000  Uiso   1.00
C32    C     0.27209   0.10678   0.46375   0.00000  Uiso   1.00
C33    C     0.23997   0.13564   0.48315   0.00000  Uiso   1.00
C34    C     0.02127   0.12485   0.25011   0.00000  Uiso   1.00
C35    C     0.31206   0.20849   0.24991   0.00000  Uiso   1.00
C36    C     0.31207   0.12485   0.24989   0.00000  Uiso   1.00
C37    C     0.02127   0.20849   0.25009   0.00000  Uiso   1.00
C38    C     0.29055   0.16667   0.25000   0.00000  Uiso   1.00
Cu39   Cu    0.16667   0.21355   0.25000   0.00000  Uiso   1.00
Cu40   Cu    0.16667   0.11978   0.25000   0.00000  Uiso   1.00
H41    H     0.03717   0.09209   0.25038   0.00000  Uiso   1.00
H42    H     0.30746   0.13573   0.05140   0.00000  Uiso   1.00
H43    H     0.03049   0.10514   0.02062   0.00000  Uiso   1.00
H44    H     0.30285   0.10514   0.47938   0.00000  Uiso   1.00
H45    H     0.29616   0.24125   0.24967   0.00000  Uiso   1.00
H46    H     0.29617   0.09209   0.24962   0.00000  Uiso   1.00
H47    H     0.03718   0.24125   0.25033   0.00000  Uiso   1.00
H48    H     0.24727   0.16338   0.35370   0.00000  Uiso   1.00
H49    H     0.08606   0.16338   0.14630   0.00000  Uiso   1.00
H50    H     0.08770   0.17580   0.34267   0.00000  Uiso   1.00
H51    H     0.24563   0.17580   0.15733   0.00000  Uiso   1.00
H52    H     0.02587   0.13573   0.44860   0.00000  Uiso   1.00
I53    I     0.09706   0.05916   0.17545   0.00000  Uiso   1.00
I54    I     0.23585   0.27421   0.32528   0.00000  Uiso   1.00
I55    I     0.23627   0.05916   0.32455   0.00000  Uiso   1.00
I56    I     0.09748   0.27421   0.17472   0.00000  Uiso   1.00
N57    N     0.16667   0.28402   0.25000   0.00000  Uiso   1.00
N58    N     0.16667   0.04931   0.25000   0.00000  Uiso   1.00
O59    O     0.10655   0.20625   0.24999   0.00000  Uiso   1.00
O60    O     0.06001   0.18829   0.08971   0.00000  Uiso   1.00
O61    O     0.06833   0.20842   0.39534   0.00000  Uiso   1.00
O62    O     0.26501   0.20842   0.10466   0.00000  Uiso   1.00
O63    O     0.06016   0.09637   0.41158   0.00000  Uiso   1.00
O64    O     0.27317   0.09637   0.08842   0.00000  Uiso   1.00
O65    O     0.06967   0.08222   0.06862   0.00000  Uiso   1.00
O66    O     0.26367   0.08222   0.43138   0.00000  Uiso   1.00
O67    O     0.22679   0.12709   0.25000   0.00000  Uiso   1.00
O68    O     0.22679   0.20625   0.25000   0.00000  Uiso   1.00
O69    O     0.10655   0.12709   0.24999   0.00000  Uiso   1.00
O70    O     0.16666   0.20627   0.18513   0.00000  Uiso   1.00
O71    O     0.16668   0.12707   0.31487   0.00000  Uiso   1.00
O72    O     0.16668   0.20627   0.31487   0.00000  Uiso   1.00
O73    O     0.16666   0.12707   0.18513   0.00000  Uiso   1.00
O74    O     0.27333   0.18828   0.41029   0.00000  Uiso   1.00
C75    C     0.42082   0.16667   0.24984   0.00000  Uiso   1.00
C76    C     0.37612   0.16667   0.25000   0.00000  Uiso   1.00
C77    C     0.47334   0.02464   0.22132   0.00000  Uiso   1.00
C78    C     0.52660   0.30868   0.27878   0.00000  Uiso   1.00
C79    C     0.52666   0.02464   0.27868   0.00000  Uiso   1.00
C80    C     0.47340   0.30868   0.22122   0.00000  Uiso   1.00
C81    C     0.49921   0.16659   0.16452   0.00000  Uiso   1.00
C82    C     0.50079   0.16659   0.33547   0.00000  Uiso   1.00
C83    C     0.53865   0.15960   0.40998   0.00000  Uiso   1.00
C84    C     0.46135   0.15960   0.09002   0.00000  Uiso   1.00
C85    C     0.50108   0.16536   0.38420   0.00000  Uiso   1.00
C86    C     0.57918   0.16667   0.25016   0.00000  Uiso   1.00
C87    C     0.49892   0.16536   0.11580   0.00000  Uiso   1.00
C88    C     0.46332   0.16559   0.40425   0.00000  Uiso   1.00
C89    C     0.53668   0.16559   0.09575   0.00000  Uiso   1.00
C90    C     0.46256   0.15405   0.45006   0.00000  Uiso   1.00
C91    C     0.53744   0.15405   0.04994   0.00000  Uiso   1.00
C92    C     0.50016   0.15200   0.47653   0.00000  Uiso   1.00
C93    C     0.49984   0.15200   0.02347   0.00000  Uiso   1.00
C94    C     0.53801   0.15020   0.45636   0.00000  Uiso   1.00
C95    C     0.46199   0.15020   0.04364   0.00000  Uiso   1.00
C96    C     0.42610   0.14040   0.46987   0.00000  Uiso   1.00
C97    C     0.42669   0.13564   0.01684   0.00000  Uiso   1.00
C98    C     0.57390   0.14040   0.03013   0.00000  Uiso   1.00
C99    C     0.57780   0.16997   0.38894   0.00000  Uiso   1.00
C100   C     0.42220   0.16997   0.11106   0.00000  Uiso   1.00
C101   C     0.42611   0.18340   0.37797   0.00000  Uiso   1.00
C102   C     0.57389   0.18340   0.12203   0.00000  Uiso   1.00
C103   C     0.38963   0.12379   0.44190   0.00000  Uiso   1.00
C104   C     0.61037   0.12379   0.05810   0.00000  Uiso   1.00
C105   C     0.39458   0.10678   0.03625   0.00000  Uiso   1.00
C106   C     0.60542   0.10678   0.46375   0.00000  Uiso   1.00
C107   C     0.57331   0.13564   0.48315   0.00000  Uiso   1.00
C108   C     0.35460   0.12485   0.25011   0.00000  Uiso   1.00
C109   C     0.64540   0.20849   0.24991   0.00000  Uiso   1.00
C110   C     0.64540   0.12485   0.24989   0.00000  Uiso   1.00
C111   C     0.35460   0.20849   0.25009   0.00000  Uiso   1.00
C112   C     0.62388   0.16667   0.25000   0.00000  Uiso   1.00
Cu113  Cu    0.50000   0.21355   0.25000   0.00000  Uiso   1.00
Cu114  Cu    0.50000   0.11978   0.25000   0.00000  Uiso   1.00
H115   H     0.37050   0.09209   0.25038   0.00000  Uiso   1.00
H116   H     0.64079   0.13573   0.05140   0.00000  Uiso   1.00
H117   H     0.36382   0.10514   0.02062   0.00000  Uiso   1.00
H118   H     0.63618   0.10514   0.47938   0.00000  Uiso   1.00
H119   H     0.62949   0.24125   0.24967   0.00000  Uiso   1.00
H120   H     0.62950   0.09209   0.24962   0.00000  Uiso   1.00
H121   H     0.37051   0.24125   0.25033   0.00000  Uiso   1.00
H122   H     0.58061   0.16338   0.35370   0.00000  Uiso   1.00
H123   H     0.41939   0.16338   0.14630   0.00000  Uiso   1.00
H124   H     0.42103   0.17580   0.34267   0.00000  Uiso   1.00
H125   H     0.57897   0.17580   0.15733   0.00000  Uiso   1.00
H126   H     0.35921   0.13573   0.44860   0.00000  Uiso   1.00
I127   I     0.43039   0.05916   0.17545   0.00000  Uiso   1.00
I128   I     0.56919   0.27421   0.32528   0.00000  Uiso   1.00
I129   I     0.56961   0.05916   0.32455   0.00000  Uiso   1.00
I130   I     0.43081   0.27421   0.17472   0.00000  Uiso   1.00
N131   N     0.50000   0.28402   0.25000   0.00000  Uiso   1.00
N132   N     0.50000   0.04931   0.25000   0.00000  Uiso   1.00
O133   O     0.43988   0.20625   0.24999   0.00000  Uiso   1.00
O134   O     0.39334   0.18829   0.08971   0.00000  Uiso   1.00
O135   O     0.40166   0.20842   0.39534   0.00000  Uiso   1.00
O136   O     0.59834   0.20842   0.10466   0.00000  Uiso   1.00
O137   O     0.39349   0.09637   0.41158   0.00000  Uiso   1.00
O138   O     0.60651   0.09637   0.08842   0.00000  Uiso   1.00
O139   O     0.40300   0.08222   0.06862   0.00000  Uiso   1.00
O140   O     0.59700   0.08222   0.43138   0.00000  Uiso   1.00
O141   O     0.56012   0.12709   0.25000   0.00000  Uiso   1.00
O142   O     0.56012   0.20625   0.25000   0.00000  Uiso   1.00
O143   O     0.43988   0.12709   0.24999   0.00000  Uiso   1.00
O144   O     0.49999   0.20627   0.18513   0.00000  Uiso   1.00
O145   O     0.50001   0.12707   0.31487   0.00000  Uiso   1.00
O146   O     0.50001   0.20627   0.31487   0.00000  Uiso   1.00
O147   O     0.49999   0.12707   0.18513   0.00000  Uiso   1.00
O148   O     0.60666   0.18828   0.41029   0.00000  Uiso   1.00
C149   C     0.75415   0.16667   0.24984   0.00000  Uiso   1.00
C150   C     0.70945   0.16667   0.25000   0.00000  Uiso   1.00
C151   C     0.80667   0.02464   0.22132   0.00000  Uiso   1.00
C152   C     0.85993   0.30868   0.27878   0.00000  Uiso   1.00
C153   C     0.85999   0.02464   0.27868   0.00000  Uiso   1.00
C154   C     0.80673   0.30868   0.22122   0.00000  Uiso   1.00
C155   C     0.83254   0.16659   0.16452   0.00000  Uiso   1.00
C156   C     0.83413   0.16659   0.33547   0.00000  Uiso   1.00
C157   C     0.87198   0.15960   0.40998   0.00000  Uiso   1.00
C158   C     0.79469   0.15960   0.09002   0.00000  Uiso   1.00
C159   C     0.83441   0.16536   0.38420   0.00000  Uiso   1.00
C160   C     0.91252   0.16667   0.25016   0.00000  Uiso   1.00
C161   C     0.83226   0.16536   0.11580   0.00000  Uiso   1.00
C162   C     0.79665   0.16559   0.40425   0.00000  Uiso   1.00
C163   C     0.87002   0.16559   0.09575   0.00000  Uiso   1.00
C164   C     0.79589   0.15405   0.45006   0.00000  Uiso   1.00
C165   C     0.87077   0.15405   0.04994   0.00000  Uiso   1.00
C166   C     0.83349   0.15200   0.47653   0.00000  Uiso   1.00
C167   C     0.83317   0.15200   0.02347   0.00000  Uiso   1.00
C168   C     0.87135   0.15020   0.45636   0.00000  Uiso   1.00
C169   C     0.79532   0.15020   0.04364   0.00000  Uiso   1.00
C170   C     0.75943   0.14040   0.46987   0.00000  Uiso   1.00
C171   C     0.76003   0.13564   0.01684   0.00000  Uiso   1.00
C172   C     0.90723   0.14040   0.03013   0.00000  Uiso   1.00
C173   C     0.91113   0.16997   0.38894   0.00000  Uiso   1.00
C174   C     0.75553   0.16997   0.11106   0.00000  Uiso   1.00
C175   C     0.75945   0.18340   0.37797   0.00000  Uiso   1.00
C176   C     0.90722   0.18340   0.12203   0.00000  Uiso   1.00
C177   C     0.72296   0.12379   0.44190   0.00000  Uiso   1.00
C178   C     0.94370   0.12379   0.05810   0.00000  Uiso   1.00
C179   C     0.72791   0.10678   0.03625   0.00000  Uiso   1.00
C180   C     0.93876   0.10678   0.46375   0.00000  Uiso   1.00
C181   C     0.90664   0.13564   0.48315   0.00000  Uiso   1.00
C182   C     0.68793   0.12485   0.25011   0.00000  Uiso   1.00
C183   C     0.97873   0.20849   0.24991   0.00000  Uiso   1.00
C184   C     0.97873   0.12485   0.24989   0.00000  Uiso   1.00
C185   C     0.68793   0.20849   0.25009   0.00000  Uiso   1.00
C186   C     0.95721   0.16667   0.25000   0.00000  Uiso   1.00
Cu187  Cu    0.83333   0.21355   0.25000   0.00000  Uiso   1.00
Cu188  Cu    0.83333   0.11978   0.25000   0.00000  Uiso   1.00
H189   H     0.70383   0.09209   0.25038   0.00000  Uiso   1.00
H190   H     0.97413   0.13573   0.05140   0.00000  Uiso   1.00
H191   H     0.69715   0.10514   0.02062   0.00000  Uiso   1.00
H192   H     0.96951   0.10514   0.47938   0.00000  Uiso   1.00
H193   H     0.96282   0.24125   0.24967   0.00000  Uiso   1.00
H194   H     0.96283   0.09209   0.24962   0.00000  Uiso   1.00
H195   H     0.70384   0.24125   0.25033   0.00000  Uiso   1.00
H196   H     0.91394   0.16338   0.35370   0.00000  Uiso   1.00
H197   H     0.75273   0.16338   0.14630   0.00000  Uiso   1.00
H198   H     0.75437   0.17580   0.34267   0.00000  Uiso   1.00
H199   H     0.91230   0.17580   0.15733   0.00000  Uiso   1.00
H200   H     0.69254   0.13573   0.44860   0.00000  Uiso   1.00
I201   I     0.76373   0.05916   0.17545   0.00000  Uiso   1.00
I202   I     0.90252   0.27421   0.32528   0.00000  Uiso   1.00
I203   I     0.90294   0.05916   0.32455   0.00000  Uiso   1.00
I204   I     0.76415   0.27421   0.17472   0.00000  Uiso   1.00
N205   N     0.83333   0.28402   0.25000   0.00000  Uiso   1.00
N206   N     0.83333   0.04931   0.25000   0.00000  Uiso   1.00
O207   O     0.77321   0.20625   0.24999   0.00000  Uiso   1.00
O208   O     0.72667   0.18829   0.08971   0.00000  Uiso   1.00
O209   O     0.73499   0.20842   0.39534   0.00000  Uiso   1.00
O210   O     0.93167   0.20842   0.10466   0.00000  Uiso   1.00
O211   O     0.72682   0.09637   0.41158   0.00000  Uiso   1.00
O212   O     0.93984   0.09637   0.08842   0.00000  Uiso   1.00
O213   O     0.73633   0.08222   0.06862   0.00000  Uiso   1.00
O214   O     0.93033   0.08222   0.43138   0.00000  Uiso   1.00
O215   O     0.89345   0.12709   0.25000   0.00000  Uiso   1.00
O216   O     0.89345   0.20625   0.25000   0.00000  Uiso   1.00
O217   O     0.77321   0.12709   0.24999   0.00000  Uiso   1.00
O218   O     0.83332   0.20627   0.18513   0.00000  Uiso   1.00
O219   O     0.83334   0.12707   0.31487   0.00000  Uiso   1.00
O220   O     0.83334   0.20627   0.31487   0.00000  Uiso   1.00
O221   O     0.83332   0.12707   0.18513   0.00000  Uiso   1.00
O222   O     0.93999   0.18828   0.41029   0.00000  Uiso   1.00
C223   C     0.08748   0.50000   0.24984   0.00000  Uiso   1.00
C224   C     0.04279   0.50000   0.25000   0.00000  Uiso   1.00
C225   C     0.14001   0.35798   0.22132   0.00000  Uiso   1.00
C226   C     0.19327   0.64201   0.27878   0.00000  Uiso   1.00
C227   C     0.19333   0.35798   0.27868   0.00000  Uiso   1.00
C228   C     0.14007   0.64201   0.22122   0.00000  Uiso   1.00
C229   C     0.16587   0.49992   0.16452   0.00000  Uiso   1.00
C230   C     0.16746   0.49992   0.33547   0.00000  Uiso   1.00
C231   C     0.20531   0.49293   0.40998   0.00000  Uiso   1.00
C232   C     0.12802   0.49293   0.09002   0.00000  Uiso   1.00
C233   C     0.16774   0.49869   0.38420   0.00000  Uiso   1.00
C234   C     0.24585   0.50000   0.25016   0.00000  Uiso   1.00
C235   C     0.16559   0.49869   0.11580   0.00000  Uiso   1.00
C236   C     0.12998   0.49893   0.40425   0.00000  Uiso   1.00
C237   C     0.20335   0.49893   0.09575   0.00000  Uiso   1.00
C238   C     0.12923   0.48738   0.45006   0.00000  Uiso   1.00
C239   C     0.20411   0.48738   0.04994   0.00000  Uiso   1.00
C240   C     0.16683   0.48533   0.47653   0.00000  Uiso   1.00
C241   C     0.16651   0.48533   0.02347   0.00000  Uiso   1.00
C242   C     0.20468   0.48353   0.45636   0.00000  Uiso   1.00
C243   C     0.12865   0.48353   0.04364   0.00000  Uiso   1.00
C244   C     0.09277   0.47373   0.46987   0.00000  Uiso   1.00
C245   C     0.09336   0.46897   0.01684   0.00000  Uiso   1.00
C246   C     0.24057   0.47373   0.03013   0.00000  Uiso   1.00
C247   C     0.24447   0.50330   0.38894   0.00000  Uiso   1.00
C248   C     0.08887   0.50330   0.11106   0.00000  Uiso   1.00
C249   C     0.09278   0.51673   0.37797   0.00000  Uiso   1.00
C250   C     0.24055   0.51673   0.12203   0.00000  Uiso   1.00
C251   C     0.05630   0.45713   0.44190   0.00000  Uiso   1.00
C252   C     0.27704   0.45712   0.05810   0.00000  Uiso   1.00
C253   C     0.06124   0.44011   0.03625   0.00000  Uiso   1.00
C254   C     0.27209   0.44011   0.46375   0.00000  Uiso   1.00
C255   C     0.23997   0.46897   0.48315   0.00000  Uiso   1.00
C256   C     0.02127   0.45819   0.25011   0.00000  Uiso   1.00
C257   C     0.31206   0.54182   0.24991   0.00000  Uiso   1.00
C258   C     0.31207   0.45819   0.24989   0.00000  Uiso   1.00
C259   C     0.02127   0.54182   0.25009   0.00000  Uiso   1.00
C260   C     0.29055   0.50000   0.25000   0.00000  Uiso   1.00
Cu261  Cu    0.16667   0.54689   0.25000   0.00000  Uiso   1.00
Cu262  Cu    0.16667   0.45311   0.25000   0.00000  Uiso   1.00
H263   H     0.03717   0.42543   0.25038   0.00000  Uiso   1.00
H264   H     0.30746   0.46906   0.05140   0.00000  Uiso   1.00
H265   H     0.03049   0.43847   0.02062   0.00000  Uiso   1.00
H266   H     0.30285   0.43847   0.47938   0.00000  Uiso   1.00
H267   H     0.29616   0.57458   0.24967   0.00000  Uiso   1.00
H268   H     0.29617   0.42543   0.24962   0.00000  Uiso   1.00
H269   H     0.03718   0.57458   0.25033   0.00000  Uiso   1.00
H270   H     0.24727   0.49671   0.35370   0.00000  Uiso   1.00
H271   H     0.08606   0.49672   0.14630   0.00000  Uiso   1.00
H272   H     0.08770   0.50914   0.34267   0.00000  Uiso   1.00
H273   H     0.24563   0.50914   0.15733   0.00000  Uiso   1.00
H274   H     0.02587   0.46906   0.44860   0.00000  Uiso   1.00
I275   I     0.09706   0.39249   0.17545   0.00000  Uiso   1.00
I276   I     0.23585   0.60754   0.32528   0.00000  Uiso   1.00
I277   I     0.23627   0.39249   0.32455   0.00000  Uiso   1.00
I278   I     0.09748   0.60754   0.17472   0.00000  Uiso   1.00
N279   N     0.16667   0.61736   0.25000   0.00000  Uiso   1.00
N280   N     0.16667   0.38264   0.25000   0.00000  Uiso   1.00
O281   O     0.10655   0.53958   0.24999   0.00000  Uiso   1.00
O282   O     0.06001   0.52162   0.08971   0.00000  Uiso   1.00
O283   O     0.06833   0.54175   0.39534   0.00000  Uiso   1.00
O284   O     0.26501   0.54175   0.10466   0.00000  Uiso   1.00
O285   O     0.06016   0.42970   0.41158   0.00000  Uiso   1.00
O286   O     0.27317   0.42970   0.08842   0.00000  Uiso   1.00
O287   O     0.06967   0.41555   0.06862   0.00000  Uiso   1.00
O288   O     0.26367   0.41555   0.43138   0.00000  Uiso   1.00
O289   O     0.22679   0.46042   0.25000   0.00000  Uiso   1.00
O290   O     0.22679   0.53958   0.25000   0.00000  Uiso   1.00
O291   O     0.10655   0.46042   0.24999   0.00000  Uiso   1.00
O292   O     0.16666   0.53960   0.18513   0.00000  Uiso   1.00
O293   O     0.16668   0.46040   0.31487   0.00000  Uiso   1.00
O294   O     0.16668   0.53960   0.31487   0.00000  Uiso   1.00
O295   O     0.16666   0.46040   0.18513   0.00000  Uiso   1.00
O296   O     0.27333   0.52162   0.41029   0.00000  Uiso   1.00
C297   C     0.42082   0.50000   0.24984   0.00000  Uiso   1.00
C298   C     0.37612   0.50000   0.25000   0.00000  Uiso   1.00
C299   C     0.47334   0.35798   0.22132   0.00000  Uiso   1.00
C300   C     0.52660   0.64201   0.27878   0.00000  Uiso   1.00
C301   C     0.52666   0.35798   0.27868   0.00000  Uiso   1.00
C302   C     0.47340   0.64201   0.22122   0.00000  Uiso   1.00
C303   C     0.49921   0.49992   0.16452   0.00000  Uiso   1.00
C304   C     0.50079   0.49992   0.33547   0.00000  Uiso   1.00
C305   C     0.53865   0.49293   0.40998   0.00000  Uiso   1.00
C306   C     0.46135   0.49293   0.09002   0.00000  Uiso   1.00
C307   C     0.50108   0.49869   0.38420   0.00000  Uiso   1.00
C308   C     0.57918   0.50000   0.25016   0.00000  Uiso   1.00
C309   C     0.49892   0.49869   0.11580   0.00000  Uiso   1.00
C310   C     0.46332   0.49893   0.40425   0.00000  Uiso   1.00
C311   C     0.53668   0.49893   0.09575   0.00000  Uiso   1.00
C312   C     0.46256   0.48738   0.45006   0.00000  Uiso   1.00
C313   C     0.53744   0.48738   0.04994   0.00000  Uiso   1.00
C314   C     0.50016   0.48533   0.47653   0.00000  Uiso   1.00
C315   C     0.49984   0.48533   0.02347   0.00000  Uiso   1.00
C316   C     0.53801   0.48353   0.45636   0.00000  Uiso   1.00
C317   C     0.46199   0.48353   0.04364   0.00000  Uiso   1.00
C318   C     0.42610   0.47373   0.46987   0.00000  Uiso   1.00
C319   C     0.42669   0.46897   0.01684   0.00000  Uiso   1.00
C320   C     0.57390   0.47373   0.03013   0.00000  Uiso   1.00
C321   C     0.57780   0.50330   0.38894   0.00000  Uiso   1.00
C322   C     0.42220   0.50330   0.11106   0.00000  Uiso   1.00
C323   C     0.42611   0.51673   0.37797   0.00000  Uiso   1.00
C324   C     0.57389   0.51673   0.12203   0.00000  Uiso   1.00
C325   C     0.38963   0.45713   0.44190   0.00000  Uiso   1.00
C326   C     0.61037   0.45712   0.05810   0.00000  Uiso   1.00
C327   C     0.39458   0.44011   0.03625   0.00000  Uiso   1.00
C328   C     0.60542   0.44011   0.46375   0.00000  Uiso   1.00
C329   C     0.57331   0.46897   0.48315   0.00000  Uiso   1.00
C330   C     0.35460   0.45819   0.25011   0.00000  Uiso   1.00
C331   C     0.64540   0.54182   0.24991   0.00000  Uiso   1.00
C332   C     0.64540   0.45819   0.24989   0.00000  Uiso   1.00
C333   C     0.35460   0.54182   0.25009   0.00000  Uiso   1.00
C334   C     0.62388   0.50000   0.25000   0.00000  Uiso   1.00
Cu335  Cu    0.50000   0.54689   0.25000   0.00000  Uiso   1.00
Cu336  Cu    0.50000   0.45311   0.25000   0.00000  Uiso   1.00
H337   H     0.37050   0.42543   0.25038   0.00000  Uiso   1.00
H338   H     0.64079   0.46906   0.05140   0.00000  Uiso   1.00
H339   H     0.36382   0.43847   0.02062   0.00000  Uiso   1.00
H340   H     0.63618   0.43847   0.47938   0.00000  Uiso   1.00
H341   H     0.62949   0.57458   0.24967   0.00000  Uiso   1.00
H342   H     0.62950   0.42543   0.24962   0.00000  Uiso   1.00
H343   H     0.37051   0.57458   0.25033   0.00000  Uiso   1.00
H344   H     0.58061   0.49671   0.35370   0.00000  Uiso   1.00
H345   H     0.41939   0.49672   0.14630   0.00000  Uiso   1.00
H346   H     0.42103   0.50914   0.34267   0.00000  Uiso   1.00
H347   H     0.57897   0.50914   0.15733   0.00000  Uiso   1.00
H348   H     0.35921   0.46906   0.44860   0.00000  Uiso   1.00
I349   I     0.43039   0.39249   0.17545   0.00000  Uiso   1.00
I350   I     0.56919   0.60754   0.32528   0.00000  Uiso   1.00
I351   I     0.56961   0.39249   0.32455   0.00000  Uiso   1.00
I352   I     0.43081   0.60754   0.17472   0.00000  Uiso   1.00
N353   N     0.50000   0.61736   0.25000   0.00000  Uiso   1.00
N354   N     0.50000   0.38264   0.25000   0.00000  Uiso   1.00
O355   O     0.43988   0.53958   0.24999   0.00000  Uiso   1.00
O356   O     0.39334   0.52162   0.08971   0.00000  Uiso   1.00
O357   O     0.40166   0.54175   0.39534   0.00000  Uiso   1.00
O358   O     0.59834   0.54175   0.10466   0.00000  Uiso   1.00
O359   O     0.39349   0.42970   0.41158   0.00000  Uiso   1.00
O360   O     0.60651   0.42970   0.08842   0.00000  Uiso   1.00
O361   O     0.40300   0.41555   0.06862   0.00000  Uiso   1.00
O362   O     0.59700   0.41555   0.43138   0.00000  Uiso   1.00
O363   O     0.56012   0.46042   0.25000   0.00000  Uiso   1.00
O364   O     0.56012   0.53958   0.25000   0.00000  Uiso   1.00
O365   O     0.43988   0.46042   0.24999   0.00000  Uiso   1.00
O366   O     0.49999   0.53960   0.18513   0.00000  Uiso   1.00
O367   O     0.50001   0.46040   0.31487   0.00000  Uiso   1.00
O368   O     0.50001   0.53960   0.31487   0.00000  Uiso   1.00
O369   O     0.49999   0.46040   0.18513   0.00000  Uiso   1.00
O370   O     0.60666   0.52162   0.41029   0.00000  Uiso   1.00
C371   C     0.75415   0.50000   0.24984   0.00000  Uiso   1.00
C372   C     0.70945   0.50000   0.25000   0.00000  Uiso   1.00
C373   C     0.80667   0.35798   0.22132   0.00000  Uiso   1.00
C374   C     0.85993   0.64201   0.27878   0.00000  Uiso   1.00
C375   C     0.85999   0.35798   0.27868   0.00000  Uiso   1.00
C376   C     0.80673   0.64201   0.22122   0.00000  Uiso   1.00
C377   C     0.83254   0.49992   0.16452   0.00000  Uiso   1.00
C378   C     0.83413   0.49992   0.33547   0.00000  Uiso   1.00
C379   C     0.87198   0.49293   0.40998   0.00000  Uiso   1.00
C380   C     0.79469   0.49293   0.09002   0.00000  Uiso   1.00
C381   C     0.83441   0.49869   0.38420   0.00000  Uiso   1.00
C382   C     0.91252   0.50000   0.25016   0.00000  Uiso   1.00
C383   C     0.83226   0.49869   0.11580   0.00000  Uiso   1.00
C384   C     0.79665   0.49893   0.40425   0.00000  Uiso   1.00
C385   C     0.87002   0.49893   0.09575   0.00000  Uiso   1.00
C386   C     0.79589   0.48738   0.45006   0.00000  Uiso   1.00
C387   C     0.87077   0.48738   0.04994   0.00000  Uiso   1.00
C388   C     0.83349   0.48533   0.47653   0.00000  Uiso   1.00
C389   C     0.83317   0.48533   0.02347   0.00000  Uiso   1.00
C390   C     0.87135   0.48353   0.45636   0.00000  Uiso   1.00
C391   C     0.79532   0.48353   0.04364   0.00000  Uiso   1.00
C392   C     0.75943   0.47373   0.46987   0.00000  Uiso   1.00
C393   C     0.76003   0.46897   0.01684   0.00000  Uiso   1.00
C394   C     0.90723   0.47373   0.03013   0.00000  Uiso   1.00
C395   C     0.91113   0.50330   0.38894   0.00000  Uiso   1.00
C396   C     0.75553   0.50330   0.11106   0.00000  Uiso   1.00
C397   C     0.75945   0.51673   0.37797   0.00000  Uiso   1.00
C398   C     0.90722   0.51673   0.12203   0.00000  Uiso   1.00
C399   C     0.72296   0.45713   0.44190   0.00000  Uiso   1.00
C400   C     0.94370   0.45712   0.05810   0.00000  Uiso   1.00
C401   C     0.72791   0.44011   0.03625   0.00000  Uiso   1.00
C402   C     0.93876   0.44011   0.46375   0.00000  Uiso   1.00
C403   C     0.90664   0.46897   0.48315   0.00000  Uiso   1.00
C404   C     0.68793   0.45819   0.25011   0.00000  Uiso   1.00
C405   C     0.97873   0.54182   0.24991   0.00000  Uiso   1.00
C406   C     0.97873   0.45819   0.24989   0.00000  Uiso   1.00
C407   C     0.68793   0.54182   0.25009   0.00000  Uiso   1.00
C408   C     0.95721   0.50000   0.25000   0.00000  Uiso   1.00
Cu409  Cu    0.83333   0.54689   0.25000   0.00000  Uiso   1.00
Cu410  Cu    0.83333   0.45311   0.25000   0.00000  Uiso   1.00
H411   H     0.70383   0.42543   0.25038   0.00000  Uiso   1.00
H412   H     0.97413   0.46906   0.05140   0.00000  Uiso   1.00
H413   H     0.69715   0.43847   0.02062   0.00000  Uiso   1.00
H414   H     0.96951   0.43847   0.47938   0.00000  Uiso   1.00
H415   H     0.96282   0.57458   0.24967   0.00000  Uiso   1.00
H416   H     0.96283   0.42543   0.24962   0.00000  Uiso   1.00
H417   H     0.70384   0.57458   0.25033   0.00000  Uiso   1.00
H418   H     0.91394   0.49671   0.35370   0.00000  Uiso   1.00
H419   H     0.75273   0.49672   0.14630   0.00000  Uiso   1.00
H420   H     0.75437   0.50914   0.34267   0.00000  Uiso   1.00
H421   H     0.91230   0.50914   0.15733   0.00000  Uiso   1.00
H422   H     0.69254   0.46906   0.44860   0.00000  Uiso   1.00
I423   I     0.76373   0.39249   0.17545   0.00000  Uiso   1.00
I424   I     0.90252   0.60754   0.32528   0.00000  Uiso   1.00
I425   I     0.90294   0.39249   0.32455   0.00000  Uiso   1.00
I426   I     0.76415   0.60754   0.17472   0.00000  Uiso   1.00
N427   N     0.83333   0.61736   0.25000   0.00000  Uiso   1.00
N428   N     0.83333   0.38264   0.25000   0.00000  Uiso   1.00
O429   O     0.77321   0.53958   0.24999   0.00000  Uiso   1.00
O430   O     0.72667   0.52162   0.08971   0.00000  Uiso   1.00
O431   O     0.73499   0.54175   0.39534   0.00000  Uiso   1.00
O432   O     0.93167   0.54175   0.10466   0.00000  Uiso   1.00
O433   O     0.72682   0.42970   0.41158   0.00000  Uiso   1.00
O434   O     0.93984   0.42970   0.08842   0.00000  Uiso   1.00
O435   O     0.73633   0.41555   0.06862   0.00000  Uiso   1.00
O436   O     0.93033   0.41555   0.43138   0.00000  Uiso   1.00
O437   O     0.89345   0.46042   0.25000   0.00000  Uiso   1.00
O438   O     0.89345   0.53958   0.25000   0.00000  Uiso   1.00
O439   O     0.77321   0.46042   0.24999   0.00000  Uiso   1.00
O440   O     0.83332   0.53960   0.18513   0.00000  Uiso   1.00
O441   O     0.83334   0.46040   0.31487   0.00000  Uiso   1.00
O442   O     0.83334   0.53960   0.31487   0.00000  Uiso   1.00
O443   O     0.83332   0.46040   0.18513   0.00000  Uiso   1.00
O444   O     0.93999   0.52162   0.41029   0.00000  Uiso   1.00
C445   C     0.08748   0.83333   0.24984   0.00000  Uiso   1.00
C446   C     0.04279   0.83334   0.25000   0.00000  Uiso   1.00
C447   C     0.14001   0.69131   0.22132   0.00000  Uiso   1.00
C448   C     0.19327   0.97535   0.27878   0.00000  Uiso   1.00
C449   C     0.19333   0.69131   0.27868   0.00000  Uiso   1.00
C450   C     0.14007   0.97535   0.22122   0.00000  Uiso   1.00
C451   C     0.16587   0.83326   0.16452   0.00000  Uiso   1.00
C452   C     0.16746   0.83326   0.33547   0.00000  Uiso   1.00
C453   C     0.20531   0.82627   0.40998   0.00000  Uiso   1.00
C454   C     0.12802   0.82627   0.09002   0.00000  Uiso   1.00
C455   C     0.16774   0.83203   0.38420   0.00000  Uiso   1.00
C456   C     0.24585   0.83333   0.25016   0.00000  Uiso   1.00
C457   C     0.16559   0.83203   0.11580   0.00000  Uiso   1.00
C458   C     0.12998   0.83226   0.40425   0.00000  Uiso   1.00
C459   C     0.20335   0.83226   0.09575   0.00000  Uiso   1.00
C460   C     0.12923   0.82071   0.45006   0.00000  Uiso   1.00
C461   C     0.20411   0.82071   0.04994   0.00000  Uiso   1.00
C462   C     0.16683   0.81866   0.47653   0.00000  Uiso   1.00
C463   C     0.16651   0.81866   0.02347   0.00000  Uiso   1.00
C464   C     0.20468   0.81687   0.45636   0.00000  Uiso   1.00
C465   C     0.12865   0.81687   0.04364   0.00000  Uiso   1.00
C466   C     0.09277   0.80706   0.46987   0.00000  Uiso   1.00
C467   C     0.09336   0.80231   0.01684   0.00000  Uiso   1.00
C468   C     0.24057   0.80706   0.03013   0.00000  Uiso   1.00
C469   C     0.24447   0.83664   0.38894   0.00000  Uiso   1.00
C470   C     0.08887   0.83664   0.11106   0.00000  Uiso   1.00
C471   C     0.09278   0.85006   0.37797   0.00000  Uiso   1.00
C472   C     0.24055   0.85006   0.12203   0.00000  Uiso   1.00
C473   C     0.05630   0.79046   0.44190   0.00000  Uiso   1.00
C474   C     0.27704   0.79046   0.05810   0.00000  Uiso   1.00
C475   C     0.06124   0.77345   0.03625   0.00000  Uiso   1.00
C476   C     0.27209   0.77345   0.46375   0.00000  Uiso   1.00
C477   C     0.23997   0.80231   0.48315   0.00000  Uiso   1.00
C478   C     0.02127   0.79152   0.25011   0.00000  Uiso   1.00
C479   C     0.31206   0.87516   0.24991   0.00000  Uiso   1.00
C480   C     0.31207   0.79152   0.24989   0.00000  Uiso   1.00
C481   C     0.02127   0.87516   0.25009   0.00000  Uiso   1.00
C482   C     0.29055   0.83334   0.25000   0.00000  Uiso   1.00
Cu483  Cu    0.16667   0.88022   0.25000   0.00000  Uiso   1.00
Cu484  Cu    0.16667   0.78645   0.25000   0.00000  Uiso   1.00
H485   H     0.03717   0.75876   0.25038   0.00000  Uiso   1.00
H486   H     0.30746   0.80240   0.05140   0.00000  Uiso   1.00
H487   H     0.03049   0.77181   0.02062   0.00000  Uiso   1.00
H488   H     0.30285   0.77181   0.47938   0.00000  Uiso   1.00
H489   H     0.29616   0.90792   0.24967   0.00000  Uiso   1.00
H490   H     0.29617   0.75876   0.24962   0.00000  Uiso   1.00
H491   H     0.03718   0.90792   0.25033   0.00000  Uiso   1.00
H492   H     0.24727   0.83005   0.35370   0.00000  Uiso   1.00
H493   H     0.08606   0.83005   0.14630   0.00000  Uiso   1.00
H494   H     0.08770   0.84247   0.34267   0.00000  Uiso   1.00
H495   H     0.24563   0.84247   0.15733   0.00000  Uiso   1.00
H496   H     0.02587   0.80240   0.44860   0.00000  Uiso   1.00
I497   I     0.09706   0.72582   0.17545   0.00000  Uiso   1.00
I498   I     0.23585   0.94088   0.32528   0.00000  Uiso   1.00
I499   I     0.23627   0.72582   0.32455   0.00000  Uiso   1.00
I500   I     0.09748   0.94088   0.17472   0.00000  Uiso   1.00
N501   N     0.16667   0.95069   0.25000   0.00000  Uiso   1.00
N502   N     0.16667   0.71598   0.25000   0.00000  Uiso   1.00
O503   O     0.10655   0.87291   0.24999   0.00000  Uiso   1.00
O504   O     0.06001   0.85495   0.08971   0.00000  Uiso   1.00
O505   O     0.06833   0.87509   0.39534   0.00000  Uiso   1.00
O506   O     0.26501   0.87509   0.10466   0.00000  Uiso   1.00
O507   O     0.06016   0.76303   0.41158   0.00000  Uiso   1.00
O508   O     0.27317   0.76303   0.08842   0.00000  Uiso   1.00
O509   O     0.06967   0.74888   0.06862   0.00000  Uiso   1.00
O510   O     0.26367   0.74888   0.43138   0.00000  Uiso   1.00
O511   O     0.22679   0.79375   0.25000   0.00000  Uiso   1.00
O512   O     0.22679   0.87291   0.25000   0.00000  Uiso   1.00
O513   O     0.10655   0.79375   0.24999   0.00000  Uiso   1.00
O514   O     0.16666   0.87293   0.18513   0.00000  Uiso   1.00
O515   O     0.16668   0.79373   0.31487   0.00000  Uiso   1.00
O516   O     0.16668   0.87293   0.31487   0.00000  Uiso   1.00
O517   O     0.16666   0.79373   0.18513   0.00000  Uiso   1.00
O518   O     0.27333   0.85495   0.41029   0.00000  Uiso   1.00
C519   C     0.42082   0.83333   0.24984   0.00000  Uiso   1.00
C520   C     0.37612   0.83334   0.25000   0.00000  Uiso   1.00
C521   C     0.47334   0.69131   0.22132   0.00000  Uiso   1.00
C522   C     0.52660   0.97535   0.27878   0.00000  Uiso   1.00
C523   C     0.52666   0.69131   0.27868   0.00000  Uiso   1.00
C524   C     0.47340   0.97535   0.22122   0.00000  Uiso   1.00
C525   C     0.49921   0.83326   0.16452   0.00000  Uiso   1.00
C526   C     0.50079   0.83326   0.33547   0.00000  Uiso   1.00
C527   C     0.53865   0.82627   0.40998   0.00000  Uiso   1.00
C528   C     0.46135   0.82627   0.09002   0.00000  Uiso   1.00
C529   C     0.50108   0.83203   0.38420   0.00000  Uiso   1.00
C530   C     0.57918   0.83333   0.25016   0.00000  Uiso   1.00
C531   C     0.49892   0.83203   0.11580   0.00000  Uiso   1.00
C532   C     0.46332   0.83226   0.40425   0.00000  Uiso   1.00
C533   C     0.53668   0.83226   0.09575   0.00000  Uiso   1.00
C534   C     0.46256   0.82071   0.45006   0.00000  Uiso   1.00
C535   C     0.53744   0.82071   0.04994   0.00000  Uiso   1.00
C536   C     0.50016   0.81866   0.47653   0.00000  Uiso   1.00
C537   C     0.49984   0.81866   0.02347   0.00000  Uiso   1.00
C538   C     0.53801   0.81687   0.45636   0.00000  Uiso   1.00
C539   C     0.46199   0.81687   0.04364   0.00000  Uiso   1.00
C540   C     0.42610   0.80706   0.46987   0.00000  Uiso   1.00
C541   C     0.42669   0.80231   0.01684   0.00000  Uiso   1.00
C542   C     0.57390   0.80706   0.03013   0.00000  Uiso   1.00
C543   C     0.57780   0.83664   0.38894   0.00000  Uiso   1.00
C544   C     0.42220   0.83664   0.11106   0.00000  Uiso   1.00
C545   C     0.42611   0.85006   0.37797   0.00000  Uiso   1.00
C546   C     0.57389   0.85006   0.12203   0.00000  Uiso   1.00
C547   C     0.38963   0.79046   0.44190   0.00000  Uiso   1.00
C548   C     0.61037   0.79046   0.05810   0.00000  Uiso   1.00
C549   C     0.39458   0.77345   0.03625   0.00000  Uiso   1.00
C550   C     0.60542   0.77345   0.46375   0.00000  Uiso   1.00
C551   C     0.57331   0.80231   0.48315   0.00000  Uiso   1.00
C552   C     0.35460   0.79152   0.25011   0.00000  Uiso   1.00
C553   C     0.64540   0.87516   0.24991   0.00000  Uiso   1.00
C554   C     0.64540   0.79152   0.24989   0.00000  Uiso   1.00
C555   C     0.35460   0.87516   0.25009   0.00000  Uiso   1.00
C556   C     0.62388   0.83334   0.25000   0.00000  Uiso   1.00
Cu557  Cu    0.50000   0.88022   0.25000   0.00000  Uiso   1.00
Cu558  Cu    0.50000   0.78645   0.25000   0.00000  Uiso   1.00
H559   H     0.37050   0.75876   0.25038   0.00000  Uiso   1.00
H560   H     0.64079   0.80240   0.05140   0.00000  Uiso   1.00
H561   H     0.36382   0.77181   0.02062   0.00000  Uiso   1.00
H562   H     0.63618   0.77181   0.47938   0.00000  Uiso   1.00
H563   H     0.62949   0.90792   0.24967   0.00000  Uiso   1.00
H564   H     0.62950   0.75876   0.24962   0.00000  Uiso   1.00
H565   H     0.37051   0.90792   0.25033   0.00000  Uiso   1.00
H566   H     0.58061   0.83005   0.35370   0.00000  Uiso   1.00
H567   H     0.41939   0.83005   0.14630   0.00000  Uiso   1.00
H568   H     0.42103   0.84247   0.34267   0.00000  Uiso   1.00
H569   H     0.57897   0.84247   0.15733   0.00000  Uiso   1.00
H570   H     0.35921   0.80240   0.44860   0.00000  Uiso   1.00
I571   I     0.43039   0.72582   0.17545   0.00000  Uiso   1.00
I572   I     0.56919   0.94088   0.32528   0.00000  Uiso   1.00
I573   I     0.56961   0.72582   0.32455   0.00000  Uiso   1.00
I574   I     0.43081   0.94088   0.17472   0.00000  Uiso   1.00
N575   N     0.50000   0.95069   0.25000   0.00000  Uiso   1.00
N576   N     0.50000   0.71598   0.25000   0.00000  Uiso   1.00
O577   O     0.43988   0.87291   0.24999   0.00000  Uiso   1.00
O578   O     0.39334   0.85495   0.08971   0.00000  Uiso   1.00
O579   O     0.40166   0.87509   0.39534   0.00000  Uiso   1.00
O580   O     0.59834   0.87509   0.10466   0.00000  Uiso   1.00
O581   O     0.39349   0.76303   0.41158   0.00000  Uiso   1.00
O582   O     0.60651   0.76303   0.08842   0.00000  Uiso   1.00
O583   O     0.40300   0.74888   0.06862   0.00000  Uiso   1.00
O584   O     0.59700   0.74888   0.43138   0.00000  Uiso   1.00
O585   O     0.56012   0.79375   0.25000   0.00000  Uiso   1.00
O586   O     0.56012   0.87291   0.25000   0.00000  Uiso   1.00
O587   O     0.43988   0.79375   0.24999   0.00000  Uiso   1.00
O588   O     0.49999   0.87293   0.18513   0.00000  Uiso   1.00
O589   O     0.50001   0.79373   0.31487   0.00000  Uiso   1.00
O590   O     0.50001   0.87293   0.31487   0.00000  Uiso   1.00
O591   O     0.49999   0.79373   0.18513   0.00000  Uiso   1.00
O592   O     0.60666   0.85495   0.41029   0.00000  Uiso   1.00
C593   C     0.75415   0.83333   0.24984   0.00000  Uiso   1.00
C594   C     0.70945   0.83334   0.25000   0.00000  Uiso   1.00
C595   C     0.80667   0.69131   0.22132   0.00000  Uiso   1.00
C596   C     0.85993   0.97535   0.27878   0.00000  Uiso   1.00
C597   C     0.85999   0.69131   0.27868   0.00000  Uiso   1.00
C598   C     0.80673   0.97535   0.22122   0.00000  Uiso   1.00
C599   C     0.83254   0.83326   0.16452   0.00000  Uiso   1.00
C600   C     0.83413   0.83326   0.33547   0.00000  Uiso   1.00
C601   C     0.87198   0.82627   0.40998   0.00000  Uiso   1.00
C602   C     0.79469   0.82627   0.09002   0.00000  Uiso   1.00
C603   C     0.83441   0.83203   0.38420   0.00000  Uiso   1.00
C604   C     0.91252   0.83333   0.25016   0.00000  Uiso   1.00
C605   C     0.83226   0.83203   0.11580   0.00000  Uiso   1.00
C606   C     0.79665   0.83226   0.40425   0.00000  Uiso   1.00
C607   C     0.87002   0.83226   0.09575   0.00000  Uiso   1.00
C608   C     0.79589   0.82071   0.45006   0.00000  Uiso   1.00
C609   C     0.87077   0.82071   0.04994   0.00000  Uiso   1.00
C610   C     0.83349   0.81866   0.47653   0.00000  Uiso   1.00
C611   C     0.83317   0.81866   0.02347   0.00000  Uiso   1.00
C612   C     0.87135   0.81687   0.45636   0.00000  Uiso   1.00
C613   C     0.79532   0.81687   0.04364   0.00000  Uiso   1.00
C614   C     0.75943   0.80706   0.46987   0.00000  Uiso   1.00
C615   C     0.76003   0.80231   0.01684   0.00000  Uiso   1.00
C616   C     0.90723   0.80706   0.03013   0.00000  Uiso   1.00
C617   C     0.91113   0.83664   0.38894   0.00000  Uiso   1.00
C618   C     0.75553   0.83664   0.11106   0.00000  Uiso   1.00
C619   C     0.75945   0.85006   0.37797   0.00000  Uiso   1.00
C620   C     0.90722   0.85006   0.12203   0.00000  Uiso   1.00
C621   C     0.72296   0.79046   0.44190   0.00000  Uiso   1.00
C622   C     0.94370   0.79046   0.05810   0.00000  Uiso   1.00
C623   C     0.72791   0.77345   0.03625   0.00000  Uiso   1.00
C624   C     0.93876   0.77345   0.46375   0.00000  Uiso   1.00
C625   C     0.90664   0.80231   0.48315   0.00000  Uiso   1.00
C626   C     0.68793   0.79152   0.25011   0.00000  Uiso   1.00
C627   C     0.97873   0.87516   0.24991   0.00000  Uiso   1.00
C628   C     0.97873   0.79152   0.24989   0.00000  Uiso   1.00
C629   C     0.68793   0.87516   0.25009   0.00000  Uiso   1.00
C630   C     0.95721   0.83334   0.25000   0.00000  Uiso   1.00
Cu631  Cu    0.83333   0.88022   0.25000   0.00000  Uiso   1.00
Cu632  Cu    0.83333   0.78645   0.25000   0.00000  Uiso   1.00
H633   H     0.70383   0.75876   0.25038   0.00000  Uiso   1.00
H634   H     0.97413   0.80240   0.05140   0.00000  Uiso   1.00
H635   H     0.69715   0.77181   0.02062   0.00000  Uiso   1.00
H636   H     0.96951   0.77181   0.47938   0.00000  Uiso   1.00
H637   H     0.96282   0.90792   0.24967   0.00000  Uiso   1.00
H638   H     0.96283   0.75876   0.24962   0.00000  Uiso   1.00
H639   H     0.70384   0.90792   0.25033   0.00000  Uiso   1.00
H640   H     0.91394   0.83005   0.35370   0.00000  Uiso   1.00
H641   H     0.75273   0.83005   0.14630   0.00000  Uiso   1.00
H642   H     0.75437   0.84247   0.34267   0.00000  Uiso   1.00
H643   H     0.91230   0.84247   0.15733   0.00000  Uiso   1.00
H644   H     0.69254   0.80240   0.44860   0.00000  Uiso   1.00
I645   I     0.76373   0.72582   0.17545   0.00000  Uiso   1.00
I646   I     0.90252   0.94088   0.32528   0.00000  Uiso   1.00
I647   I     0.90294   0.72582   0.32455   0.00000  Uiso   1.00
I648   I     0.76415   0.94088   0.17472   0.00000  Uiso   1.00
N649   N     0.83333   0.95069   0.25000   0.00000  Uiso   1.00
N650   N     0.83333   0.71598   0.25000   0.00000  Uiso   1.00
O651   O     0.77321   0.87291   0.24999   0.00000  Uiso   1.00
O652   O     0.72667   0.85495   0.08971   0.00000  Uiso   1.00
O653   O     0.73499   0.87509   0.39534   0.00000  Uiso   1.00
O654   O     0.93167   0.87509   0.10466   0.00000  Uiso   1.00
O655   O     0.72682   0.76303   0.41158   0.00000  Uiso   1.00
O656   O     0.93984   0.76303   0.08842   0.00000  Uiso   1.00
O657   O     0.73633   0.74888   0.06862   0.00000  Uiso   1.00
O658   O     0.93033   0.74888   0.43138   0.00000  Uiso   1.00
O659   O     0.89345   0.79375   0.25000   0.00000  Uiso   1.00
O660   O     0.89345   0.87291   0.25000   0.00000  Uiso   1.00
O661   O     0.77321   0.79375   0.24999   0.00000  Uiso   1.00
O662   O     0.83332   0.87293   0.18513   0.00000  Uiso   1.00
O663   O     0.83334   0.79373   0.31487   0.00000  Uiso   1.00
O664   O     0.83334   0.87293   0.31487   0.00000  Uiso   1.00
O665   O     0.83332   0.79373   0.18513   0.00000  Uiso   1.00
O666   O     0.93999   0.85495   0.41029   0.00000  Uiso   1.00
C667   C     0.08748   0.16667   0.74984   0.00000  Uiso   1.00
C668   C     0.04279   0.16667   0.75000   0.00000  Uiso   1.00
C669   C     0.14001   0.02464   0.72132   0.00000  Uiso   1.00
C670   C     0.19327   0.30868   0.77878   0.00000  Uiso   1.00
C671   C     0.19333   0.02464   0.77868   0.00000  Uiso   1.00
C672   C     0.14007   0.30868   0.72122   0.00000  Uiso   1.00
C673   C     0.16587   0.16659   0.66452   0.00000  Uiso   1.00
C674   C     0.16746   0.16659   0.83547   0.00000  Uiso   1.00
C675   C     0.20531   0.15960   0.90998   0.00000  Uiso   1.00
C676   C     0.12802   0.15960   0.59002   0.00000  Uiso   1.00
C677   C     0.16774   0.16536   0.88420   0.00000  Uiso   1.00
C678   C     0.24585   0.16667   0.75016   0.00000  Uiso   1.00
C679   C     0.16559   0.16536   0.61580   0.00000  Uiso   1.00
C680   C     0.12998   0.16559   0.90425   0.00000  Uiso   1.00
C681   C     0.20335   0.16559   0.59575   0.00000  Uiso   1.00
C682   C     0.12923   0.15405   0.95006   0.00000  Uiso   1.00
C683   C     0.20411   0.15405   0.54994   0.00000  Uiso   1.00
C684   C     0.16683   0.15200   0.97653   0.00000  Uiso   1.00
C685   C     0.16651   0.15200   0.52347   0.00000  Uiso   1.00
C686   C     0.20468   0.15020   0.95636   0.00000  Uiso   1.00
C687   C     0.12865   0.15020   0.54364   0.00000  Uiso   1.00
C688   C     0.09277   0.14040   0.96987   0.00000  Uiso   1.00
C689   C     0.09336   0.13564   0.51684   0.00000  Uiso   1.00
C690   C     0.24057   0.14040   0.53013   0.00000  Uiso   1.00
C691   C     0.24447   0.16997   0.88894   0.00000  Uiso   1.00
C692   C     0.08887   0.16997   0.61106   0.00000  Uiso   1.00
C693   C     0.09278   0.18340   0.87797   0.00000  Uiso   1.00
C694   C     0.24055   0.18340   0.62203   0.00000  Uiso   1.00
C695   C     0.05630   0.12379   0.94190   0.00000  Uiso   1.00
C696   C     0.27704   0.12379   0.55810   0.00000  Uiso   1.00
C697   C     0.06124   0.10678   0.53625   0.00000  Uiso   1.00
C698   C     0.27209   0.10678   0.96375   0.00000  Uiso   1.00
C699   C     0.23997   0.13564   0.98315   0.00000  Uiso   1.00
C700   C     0.02127   0.12485   0.75011   0.00000  Uiso   1.00
C701   C     0.31206   0.20849   0.74991   0.00000  Uiso   1.00
C702   C     0.31207   0.12485   0.74989   0.00000  Uiso   1.00
C703   C     0.02127   0.20849   0.75009   0.00000  Uiso   1.00
C704   C     0.29055   0.16667   0.75000   0.00000  Uiso   1.00
Cu705  Cu    0.16667   0.21355   0.75000   0.00000  Uiso   1.00
Cu706  Cu    0.16667   0.11978   0.75000   0.00000  Uiso   1.00
H707   H     0.03717   0.09209   0.75038   0.00000  Uiso   1.00
H708   H     0.30746   0.13573   0.55140   0.00000  Uiso   1.00
H709   H     0.03049   0.10514   0.52062   0.00000  Uiso   1.00
H710   H     0.30285   0.10514   0.97938   0.00000  Uiso   1.00
H711   H     0.29616   0.24125   0.74967   0.00000  Uiso   1.00
H712   H     0.29617   0.09209   0.74962   0.00000  Uiso   1.00
H713   H     0.03718   0.24125   0.75033   0.00000  Uiso   1.00
H714   H     0.24727   0.16338   0.85370   0.00000  Uiso   1.00
H715   H     0.08606   0.16338   0.64630   0.00000  Uiso   1.00
H716   H     0.08770   0.17580   0.84267   0.00000  Uiso   1.00
H717   H     0.24563   0.17580   0.65733   0.00000  Uiso   1.00
H718   H     0.02587   0.13573   0.94860   0.00000  Uiso   1.00
I719   I     0.09706   0.05916   0.67545   0.00000  Uiso   1.00
I720   I     0.23585   0.27421   0.82528   0.00000  Uiso   1.00
I721   I     0.23627   0.05916   0.82455   0.00000  Uiso   1.00
I722   I     0.09748   0.27421   0.67472   0.00000  Uiso   1.00
N723   N     0.16667   0.28402   0.75000   0.00000  Uiso   1.00
N724   N     0.16667   0.04931   0.75000   0.00000  Uiso   1.00
O725   O     0.10655   0.20625   0.74999   0.00000  Uiso   1.00
O726   O     0.06001   0.18829   0.58971   0.00000  Uiso   1.00
O727   O     0.06833   0.20842   0.89534   0.00000  Uiso   1.00
O728   O     0.26501   0.20842   0.60466   0.00000  Uiso   1.00
O729   O     0.06016   0.09637   0.91158   0.00000  Uiso   1.00
O730   O     0.27317   0.09637   0.58842   0.00000  Uiso   1.00
O731   O     0.06967   0.08222   0.56862   0.00000  Uiso   1.00
O732   O     0.26367   0.08222   0.93138   0.00000  Uiso   1.00
O733   O     0.22679   0.12709   0.75000   0.00000  Uiso   1.00
O734   O     0.22679   0.20625   0.75000   0.00000  Uiso   1.00
O735   O     0.10655   0.12709   0.74999   0.00000  Uiso   1.00
O736   O     0.16666   0.20627   0.68513   0.00000  Uiso   1.00
O737   O     0.16668   0.12707   0.81487   0.00000  Uiso   1.00
O738   O     0.16668   0.20627   0.81487   0.00000  Uiso   1.00
O739   O     0.16666   0.12707   0.68513   0.00000  Uiso   1.00
O740   O     0.27333   0.18828   0.91029   0.00000  Uiso   1.00
C741   C     0.42082   0.16667   0.74984   0.00000  Uiso   1.00
C742   C     0.37612   0.16667   0.75000   0.00000  Uiso   1.00
C743   C     0.47334   0.02464   0.72132   0.00000  Uiso   1.00
C744   C     0.52660   0.30868   0.77878   0.00000  Uiso   1.00
C745   C     0.52666   0.02464   0.77868   0.00000  Uiso   1.00
C746   C     0.47340   0.30868   0.72122   0.00000  Uiso   1.00
C747   C     0.49921   0.16659   0.66452   0.00000  Uiso   1.00
C748   C     0.50079   0.16659   0.83547   0.00000  Uiso   1.00
C749   C     0.53865   0.15960   0.90998   0.00000  Uiso   1.00
C750   C     0.46135   0.15960   0.59002   0.00000  Uiso   1.00
C751   C     0.50108   0.16536   0.88420   0.00000  Uiso   1.00
C752   C     0.57918   0.16667   0.75016   0.00000  Uiso   1.00
C753   C     0.49892   0.16536   0.61580   0.00000  Uiso   1.00
C754   C     0.46332   0.16559   0.90425   0.00000  Uiso   1.00
C755   C     0.53668   0.16559   0.59575   0.00000  Uiso   1.00
C756   C     0.46256   0.15405   0.95006   0.00000  Uiso   1.00
C757   C     0.53744   0.15405   0.54994   0.00000  Uiso   1.00
C758   C     0.50016   0.15200   0.97653   0.00000  Uiso   1.00
C759   C     0.49984   0.15200   0.52347   0.00000  Uiso   1.00
C760   C     0.53801   0.15020   0.95636   0.00000  Uiso   1.00
C761   C     0.46199   0.15020   0.54364   0.00000  Uiso   1.00
C762   C     0.42610   0.14040   0.96987   0.00000  Uiso   1.00
C763   C     0.42669   0.13564   0.51684   0.00000  Uiso   1.00
C764   C     0.57390   0.14040   0.53013   0.00000  Uiso   1.00
C765   C     0.57780   0.16997   0.88894   0.00000  Uiso   1.00
C766   C     0.42220   0.16997   0.61106   0.00000  Uiso   1.00
C767   C     0.42611   0.18340   0.87797   0.00000  Uiso   1.00
C768   C     0.57389   0.18340   0.62203   0.00000  Uiso   1.00
C769   C     0.38963   0.12379   0.94190   0.00000  Uiso   1.00
C770   C     0.61037   0.12379   0.55810   0.00000  Uiso   1.00
C771   C     0.39458   0.10678   0.53625   0.00000  Uiso   1.00
C772   C     0.60542   0.10678   0.96375   0.00000  Uiso   1.00
C773   C     0.57331   0.13564   0.98315   0.00000  Uiso   1.00
C774   C     0.35460   0.12485   0.75011   0.00000  Uiso   1.00
C775   C     0.64540   0.20849   0.74991   0.00000  Uiso   1.00
C776   C     0.64540   0.12485   0.74989   0.00000  Uiso   1.00
C777   C     0.35460   0.20849   0.75009   0.00000  Uiso   1.00
C778   C     0.62388   0.16667   0.75000   0.00000  Uiso   1.00
Cu779  Cu    0.50000   0.21355   0.75000   0.00000  Uiso   1.00
Cu780  Cu    0.50000   0.11978   0.75000   0.00000  Uiso   1.00
H781   H     0.37050   0.09209   0.75038   0.00000  Uiso   1.00
H782   H     0.64079   0.13573   0.55140   0.00000  Uiso   1.00
H783   H     0.36382   0.10514   0.52062   0.00000  Uiso   1.00
H784   H     0.63618   0.10514   0.97938   0.00000  Uiso   1.00
H785   H     0.62949   0.24125   0.74967   0.00000  Uiso   1.00
H786   H     0.62950   0.09209   0.74962   0.00000  Uiso   1.00
H787   H     0.37051   0.24125   0.75033   0.00000  Uiso   1.00
H788   H     0.58061   0.16338   0.85370   0.00000  Uiso   1.00
H789   H     0.41939   0.16338   0.64630   0.00000  Uiso   1.00
H790   H     0.42103   0.17580   0.84267   0.00000  Uiso   1.00
H791   H     0.57897   0.17580   0.65733   0.00000  Uiso   1.00
H792   H     0.35921   0.13573   0.94860   0.00000  Uiso   1.00
I793   I     0.43039   0.05916   0.67545   0.00000  Uiso   1.00
I794   I     0.56919   0.27421   0.82528   0.00000  Uiso   1.00
I795   I     0.56961   0.05916   0.82455   0.00000  Uiso   1.00
I796   I     0.43081   0.27421   0.67472   0.00000  Uiso   1.00
N797   N     0.50000   0.28402   0.75000   0.00000  Uiso   1.00
N798   N     0.50000   0.04931   0.75000   0.00000  Uiso   1.00
O799   O     0.43988   0.20625   0.74999   0.00000  Uiso   1.00
O800   O     0.39334   0.18829   0.58971   0.00000  Uiso   1.00
O801   O     0.40166   0.20842   0.89534   0.00000  Uiso   1.00
O802   O     0.59834   0.20842   0.60466   0.00000  Uiso   1.00
O803   O     0.39349   0.09637   0.91158   0.00000  Uiso   1.00
O804   O     0.60651   0.09637   0.58842   0.00000  Uiso   1.00
O805   O     0.40300   0.08222   0.56862   0.00000  Uiso   1.00
O806   O     0.59700   0.08222   0.93138   0.00000  Uiso   1.00
O807   O     0.56012   0.12709   0.75000   0.00000  Uiso   1.00
O808   O     0.56012   0.20625   0.75000   0.00000  Uiso   1.00
O809   O     0.43988   0.12709   0.74999   0.00000  Uiso   1.00
O810   O     0.49999   0.20627   0.68513   0.00000  Uiso   1.00
O811   O     0.50001   0.12707   0.81487   0.00000  Uiso   1.00
O812   O     0.50001   0.20627   0.81487   0.00000  Uiso   1.00
O813   O     0.49999   0.12707   0.68513   0.00000  Uiso   1.00
O814   O     0.60666   0.18828   0.91029   0.00000  Uiso   1.00
C815   C     0.75415   0.16667   0.74984   0.00000  Uiso   1.00
C816   C     0.70945   0.16667   0.75000   0.00000  Uiso   1.00
C817   C     0.80667   0.02464   0.72132   0.00000  Uiso   1.00
C818   C     0.85993   0.30868   0.77878   0.00000  Uiso   1.00
C819   C     0.85999   0.02464   0.77868   0.00000  Uiso   1.00
C820   C     0.80673   0.30868   0.72122   0.00000  Uiso   1.00
C821   C     0.83254   0.16659   0.66452   0.00000  Uiso   1.00
C822   C     0.83413   0.16659   0.83547   0.00000  Uiso   1.00
C823   C     0.87198   0.15960   0.90998   0.00000  Uiso   1.00
C824   C     0.79469   0.15960   0.59002   0.00000  Uiso   1.00
C825   C     0.83441   0.16536   0.88420   0.00000  Uiso   1.00
C826   C     0.91252   0.16667   0.75016   0.00000  Uiso   1.00
C827   C     0.83226   0.16536   0.61580   0.00000  Uiso   1.00
C828   C     0.79665   0.16559   0.90425   0.00000  Uiso   1.00
C829   C     0.87002   0.16559   0.59575   0.00000  Uiso   1.00
C830   C     0.79589   0.15405   0.95006   0.00000  Uiso   1.00
C831   C     0.87077   0.15405   0.54994   0.00000  Uiso   1.00
C832   C     0.83349   0.15200   0.97653   0.00000  Uiso   1.00
C833   C     0.83317   0.15200   0.52347   0.00000  Uiso   1.00
C834   C     0.87135   0.15020   0.95636   0.00000  Uiso   1.00
C835   C     0.79532   0.15020   0.54364   0.00000  Uiso   1.00
C836   C     0.75943   0.14040   0.96987   0.00000  Uiso   1.00
C837   C     0.76003   0.13564   0.51684   0.00000  Uiso   1.00
C838   C     0.90723   0.14040   0.53013   0.00000  Uiso   1.00
C839   C     0.91113   0.16997   0.88894   0.00000  Uiso   1.00
C840   C     0.75553   0.16997   0.61106   0.00000  Uiso   1.00
C841   C     0.75945   0.18340   0.87797   0.00000  Uiso   1.00
C842   C     0.90722   0.18340   0.62203   0.00000  Uiso   1.00
C843   C     0.72296   0.12379   0.94190   0.00000  Uiso   1.00
C844   C     0.94370   0.12379   0.55810   0.00000  Uiso   1.00
C845   C     0.72791   0.10678   0.53625   0.00000  Uiso   1.00
C846   C     0.93876   0.10678   0.96375   0.00000  Uiso   1.00
C847   C     0.90664   0.13564   0.98315   0.00000  Uiso   1.00
C848   C     0.68793   0.12485   0.75011   0.00000  Uiso   1.00
C849   C     0.97873   0.20849   0.74991   0.00000  Uiso   1.00
C850   C     0.97873   0.12485   0.74989   0.00000  Uiso   1.00
C851   C     0.68793   0.20849   0.75009   0.00000  Uiso   1.00
C852   C     0.95721   0.16667   0.75000   0.00000  Uiso   1.00
Cu853  Cu    0.83333   0.21355   0.75000   0.00000  Uiso   1.00
Cu854  Cu    0.83333   0.11978   0.75000   0.00000  Uiso   1.00
H855   H     0.70383   0.09209   0.75038   0.00000  Uiso   1.00
H856   H     0.97413   0.13573   0.55140   0.00000  Uiso   1.00
H857   H     0.69715   0.10514   0.52062   0.00000  Uiso   1.00
H858   H     0.96951   0.10514   0.97938   0.00000  Uiso   1.00
H859   H     0.96282   0.24125   0.74967   0.00000  Uiso   1.00
H860   H     0.96283   0.09209   0.74962   0.00000  Uiso   1.00
H861   H     0.70384   0.24125   0.75033   0.00000  Uiso   1.00
H862   H     0.91394   0.16338   0.85370   0.00000  Uiso   1.00
H863   H     0.75273   0.16338   0.64630   0.00000  Uiso   1.00
H864   H     0.75437   0.17580   0.84267   0.00000  Uiso   1.00
H865   H     0.91230   0.17580   0.65733   0.00000  Uiso   1.00
H866   H     0.69254   0.13573   0.94860   0.00000  Uiso   1.00
I867   I     0.76373   0.05916   0.67545   0.00000  Uiso   1.00
I868   I     0.90252   0.27421   0.82528   0.00000  Uiso   1.00
I869   I     0.90294   0.05916   0.82455   0.00000  Uiso   1.00
I870   I     0.76415   0.27421   0.67472   0.00000  Uiso   1.00
N871   N     0.83333   0.28402   0.75000   0.00000  Uiso   1.00
N872   N     0.83333   0.04931   0.75000   0.00000  Uiso   1.00
O873   O     0.77321   0.20625   0.74999   0.00000  Uiso   1.00
O874   O     0.72667   0.18829   0.58971   0.00000  Uiso   1.00
O875   O     0.73499   0.20842   0.89534   0.00000  Uiso   1.00
O876   O     0.93167   0.20842   0.60466   0.00000  Uiso   1.00
O877   O     0.72682   0.09637   0.91158   0.00000  Uiso   1.00
O878   O     0.93984   0.09637   0.58842   0.00000  Uiso   1.00
O879   O     0.73633   0.08222   0.56862   0.00000  Uiso   1.00
O880   O     0.93033   0.08222   0.93138   0.00000  Uiso   1.00
O881   O     0.89345   0.12709   0.75000   0.00000  Uiso   1.00
O882   O     0.89345   0.20625   0.75000   0.00000  Uiso   1.00
O883   O     0.77321   0.12709   0.74999   0.00000  Uiso   1.00
O884   O     0.83332   0.20627   0.68513   0.00000  Uiso   1.00
O885   O     0.83334   0.12707   0.81487   0.00000  Uiso   1.00
O886   O     0.83334   0.20627   0.81487   0.00000  Uiso   1.00
O887   O     0.83332   0.12707   0.68513   0.00000  Uiso   1.00
O888   O     0.93999   0.18828   0.91029   0.00000  Uiso   1.00
C889   C     0.08748   0.50000   0.74984   0.00000  Uiso   1.00
C890   C     0.04279   0.50000   0.75000   0.00000  Uiso   1.00
C891   C     0.14001   0.35798   0.72132   0.00000  Uiso   1.00
C892   C     0.19327   0.64201   0.77878   0.00000  Uiso   1.00
C893   C     0.19333   0.35798   0.77868   0.00000  Uiso   1.00
C894   C     0.14007   0.64201   0.72122   0.00000  Uiso   1.00
C895   C     0.16587   0.49992   0.66452   0.00000  Uiso   1.00
C896   C     0.16746   0.49992   0.83547   0.00000  Uiso   1.00
C897   C     0.20531   0.49293   0.90998   0.00000  Uiso   1.00
C898   C     0.12802   0.49293   0.59002   0.00000  Uiso   1.00
C899   C     0.16774   0.49869   0.88420   0.00000  Uiso   1.00
C900   C     0.24585   0.50000   0.75016   0.00000  Uiso   1.00
C901   C     0.16559   0.49869   0.61580   0.00000  Uiso   1.00
C902   C     0.12998   0.49893   0.90425   0.00000  Uiso   1.00
C903   C     0.20335   0.49893   0.59575   0.00000  Uiso   1.00
C904   C     0.12923   0.48738   0.95006   0.00000  Uiso   1.00
C905   C     0.20411   0.48738   0.54994   0.00000  Uiso   1.00
C906   C     0.16683   0.48533   0.97653   0.00000  Uiso   1.00
C907   C     0.16651   0.48533   0.52347   0.00000  Uiso   1.00
C908   C     0.20468   0.48353   0.95636   0.00000  Uiso   1.00
C909   C     0.12865   0.48353   0.54364   0.00000  Uiso   1.00
C910   C     0.09277   0.47373   0.96987   0.00000  Uiso   1.00
C911   C     0.09336   0.46897   0.51684   0.00000  Uiso   1.00
C912   C     0.24057   0.47373   0.53013   0.00000  Uiso   1.00
C913   C     0.24447   0.50330   0.88894   0.00000  Uiso   1.00
C914   C     0.08887   0.50330   0.61106   0.00000  Uiso   1.00
C915   C     0.09278   0.51673   0.87797   0.00000  Uiso   1.00
C916   C     0.24055   0.51673   0.62203   0.00000  Uiso   1.00
C917   C     0.05630   0.45713   0.94190   0.00000  Uiso   1.00
C918   C     0.27704   0.45712   0.55810   0.00000  Uiso   1.00
C919   C     0.06124   0.44011   0.53625   0.00000  Uiso   1.00
C920   C     0.27209   0.44011   0.96375   0.00000  Uiso   1.00
C921   C     0.23997   0.46897   0.98315   0.00000  Uiso   1.00
C922   C     0.02127   0.45819   0.75011   0.00000  Uiso   1.00
C923   C     0.31206   0.54182   0.74991   0.00000  Uiso   1.00
C924   C     0.31207   0.45819   0.74989   0.00000  Uiso   1.00
C925   C     0.02127   0.54182   0.75009   0.00000  Uiso   1.00
C926   C     0.29055   0.50000   0.75000   0.00000  Uiso   1.00
Cu927  Cu    0.16667   0.54689   0.75000   0.00000  Uiso   1.00
Cu928  Cu    0.16667   0.45311   0.75000   0.00000  Uiso   1.00
H929   H     0.03717   0.42543   0.75038   0.00000  Uiso   1.00
H930   H     0.30746   0.46906   0.55140   0.00000  Uiso   1.00
H931   H     0.03049   0.43847   0.52062   0.00000  Uiso   1.00
H932   H     0.30285   0.43847   0.97938   0.00000  Uiso   1.00
H933   H     0.29616   0.57458   0.74967   0.00000  Uiso   1.00
H934   H     0.29617   0.42543   0.74962   0.00000  Uiso   1.00
H935   H     0.03718   0.57458   0.75033   0.00000  Uiso   1.00
H936   H     0.24727   0.49671   0.85370   0.00000  Uiso   1.00
H937   H     0.08606   0.49672   0.64630   0.00000  Uiso   1.00
H938   H     0.08770   0.50914   0.84267   0.00000  Uiso   1.00
H939   H     0.24563   0.50914   0.65733   0.00000  Uiso   1.00
H940   H     0.02587   0.46906   0.94860   0.00000  Uiso   1.00
I941   I     0.09706   0.39249   0.67545   0.00000  Uiso   1.00
I942   I     0.23585   0.60754   0.82528   0.00000  Uiso   1.00
I943   I     0.23627   0.39249   0.82455   0.00000  Uiso   1.00
I944   I     0.09748   0.60754   0.67472   0.00000  Uiso   1.00
N945   N     0.16667   0.61736   0.75000   0.00000  Uiso   1.00
N946   N     0.16667   0.38264   0.75000   0.00000  Uiso   1.00
O947   O     0.10655   0.53958   0.74999   0.00000  Uiso   1.00
O948   O     0.06001   0.52162   0.58971   0.00000  Uiso   1.00
O949   O     0.06833   0.54175   0.89534   0.00000  Uiso   1.00
O950   O     0.26501   0.54175   0.60466   0.00000  Uiso   1.00
O951   O     0.06016   0.42970   0.91158   0.00000  Uiso   1.00
O952   O     0.27317   0.42970   0.58842   0.00000  Uiso   1.00
O953   O     0.06967   0.41555   0.56862   0.00000  Uiso   1.00
O954   O     0.26367   0.41555   0.93138   0.00000  Uiso   1.00
O955   O     0.22679   0.46042   0.75000   0.00000  Uiso   1.00
O956   O     0.22679   0.53958   0.75000   0.00000  Uiso   1.00
O957   O     0.10655   0.46042   0.74999   0.00000  Uiso   1.00
O958   O     0.16666   0.53960   0.68513   0.00000  Uiso   1.00
O959   O     0.16668   0.46040   0.81487   0.00000  Uiso   1.00
O960   O     0.16668   0.53960   0.81487   0.00000  Uiso   1.00
O961   O     0.16666   0.46040   0.68513   0.00000  Uiso   1.00
O962   O     0.27333   0.52162   0.91029   0.00000  Uiso   1.00
C963   C     0.42082   0.50000   0.74984   0.00000  Uiso   1.00
C964   C     0.37612   0.50000   0.75000   0.00000  Uiso   1.00
C965   C     0.47334   0.35798   0.72132   0.00000  Uiso   1.00
C966   C     0.52660   0.64201   0.77878   0.00000  Uiso   1.00
C967   C     0.52666   0.35798   0.77868   0.00000  Uiso   1.00
C968   C     0.47340   0.64201   0.72122   0.00000  Uiso   1.00
C969   C     0.49921   0.49992   0.66452   0.00000  Uiso   1.00
C970   C     0.50079   0.49992   0.83547   0.00000  Uiso   1.00
C971   C     0.53865   0.49293   0.90998   0.00000  Uiso   1.00
C972   C     0.46135   0.49293   0.59002   0.00000  Uiso   1.00
C973   C     0.50108   0.49869   0.88420   0.00000  Uiso   1.00
C974   C     0.57918   0.50000   0.75016   0.00000  Uiso   1.00
C975   C     0.49892   0.49869   0.61580   0.00000  Uiso   1.00
C976   C     0.46332   0.49893   0.90425   0.00000  Uiso   1.00
C977   C     0.53668   0.49893   0.59575   0.00000  Uiso   1.00
C978   C     0.46256   0.48738   0.95006   0.00000  Uiso   1.00
C979   C     0.53744   0.48738   0.54994   0.00000  Uiso   1.00
C980   C     0.50016   0.48533   0.97653   0.00000  Uiso   1.00
C981   C     0.49984   0.48533   0.52347   0.00000  Uiso   1.00
C982   C     0.53801   0.48353   0.95636   0.00000  Uiso   1.00
C983   C     0.46199   0.48353   0.54364   0.00000  Uiso   1.00
C984   C     0.42610   0.47373   0.96987   0.00000  Uiso   1.00
C985   C     0.42669   0.46897   0.51684   0.00000  Uiso   1.00
C986   C     0.57390   0.47373   0.53013   0.00000  Uiso   1.00
C987   C     0.57780   0.50330   0.88894   0.00000  Uiso   1.00
C988   C     0.42220   0.50330   0.61106   0.00000  Uiso   1.00
C989   C     0.42611   0.51673   0.87797   0.00000  Uiso   1.00
C990   C     0.57389   0.51673   0.62203   0.00000  Uiso   1.00
C991   C     0.38963   0.45713   0.94190   0.00000  Uiso   1.00
C992   C     0.61037   0.45712   0.55810   0.00000  Uiso   1.00
C993   C     0.39458   0.44011   0.53625   0.00000  Uiso   1.00
C994   C     0.60542   0.44011   0.96375   0.00000  Uiso   1.00
C995   C     0.57331   0.46897   0.98315   0.00000  Uiso   1.00
C996   C     0.35460   0.45819   0.75011   0.00000  Uiso   1.00
C997   C     0.64540   0.54182   0.74991   0.00000  Uiso   1.00
C998   C     0.64540   0.45819   0.74989   0.00000  Uiso   1.00
C999   C     0.35460   0.54182   0.75009   0.00000  Uiso   1.00
C1000  C     0.62388   0.50000   0.75000   0.00000  Uiso   1.00
Cu1001 Cu    0.50000   0.54689   0.75000   0.00000  Uiso   1.00
Cu1002 Cu    0.50000   0.45311   0.75000   0.00000  Uiso   1.00
H1003  H     0.37050   0.42543   0.75038   0.00000  Uiso   1.00
H1004  H     0.64079   0.46906   0.55140   0.00000  Uiso   1.00
H1005  H     0.36382   0.43847   0.52062   0.00000  Uiso   1.00
H1006  H     0.63618   0.43847   0.97938   0.00000  Uiso   1.00
H1007  H     0.62949   0.57458   0.74967   0.00000  Uiso   1.00
H1008  H     0.62950   0.42543   0.74962   0.00000  Uiso   1.00
H1009  H     0.37051   0.57458   0.75033   0.00000  Uiso   1.00
H1010  H     0.58061   0.49671   0.85370   0.00000  Uiso   1.00
H1011  H     0.41939   0.49672   0.64630   0.00000  Uiso   1.00
H1012  H     0.42103   0.50914   0.84267   0.00000  Uiso   1.00
H1013  H     0.57897   0.50914   0.65733   0.00000  Uiso   1.00
H1014  H     0.35921   0.46906   0.94860   0.00000  Uiso   1.00
I1015  I     0.43039   0.39249   0.67545   0.00000  Uiso   1.00
I1016  I     0.56919   0.60754   0.82528   0.00000  Uiso   1.00
I1017  I     0.56961   0.39249   0.82455   0.00000  Uiso   1.00
I1018  I     0.43081   0.60754   0.67472   0.00000  Uiso   1.00
N1019  N     0.50000   0.61736   0.75000   0.00000  Uiso   1.00
N1020  N     0.50000   0.38264   0.75000   0.00000  Uiso   1.00
O1021  O     0.43988   0.53958   0.74999   0.00000  Uiso   1.00
O1022  O     0.39334   0.52162   0.58971   0.00000  Uiso   1.00
O1023  O     0.40166   0.54175   0.89534   0.00000  Uiso   1.00
O1024  O     0.59834   0.54175   0.60466   0.00000  Uiso   1.00
O1025  O     0.39349   0.42970   0.91158   0.00000  Uiso   1.00
O1026  O     0.60651   0.42970   0.58842   0.00000  Uiso   1.00
O1027  O     0.40300   0.41555   0.56862   0.00000  Uiso   1.00
O1028  O     0.59700   0.41555   0.93138   0.00000  Uiso   1.00
O1029  O     0.56012   0.46042   0.75000   0.00000  Uiso   1.00
O1030  O     0.56012   0.53958   0.75000   0.00000  Uiso   1.00
O1031  O     0.43988   0.46042   0.74999   0.00000  Uiso   1.00
O1032  O     0.49999   0.53960   0.68513   0.00000  Uiso   1.00
O1033  O     0.50001   0.46040   0.81487   0.00000  Uiso   1.00
O1034  O     0.50001   0.53960   0.81487   0.00000  Uiso   1.00
O1035  O     0.49999   0.46040   0.68513   0.00000  Uiso   1.00
O1036  O     0.60666   0.52162   0.91029   0.00000  Uiso   1.00
C1037  C     0.75415   0.50000   0.74984   0.00000  Uiso   1.00
C1038  C     0.70945   0.50000   0.75000   0.00000  Uiso   1.00
C1039  C     0.80667   0.35798   0.72132   0.00000  Uiso   1.00
C1040  C     0.85993   0.64201   0.77878   0.00000  Uiso   1.00
C1041  C     0.85999   0.35798   0.77868   0.00000  Uiso   1.00
C1042  C     0.80673   0.64201   0.72122   0.00000  Uiso   1.00
C1043  C     0.83254   0.49992   0.66452   0.00000  Uiso   1.00
C1044  C     0.83413   0.49992   0.83547   0.00000  Uiso   1.00
C1045  C     0.87198   0.49293   0.90998   0.00000  Uiso   1.00
C1046  C     0.79469   0.49293   0.59002   0.00000  Uiso   1.00
C1047  C     0.83441   0.49869   0.88420   0.00000  Uiso   1.00
C1048  C     0.91252   0.50000   0.75016   0.00000  Uiso   1.00
C1049  C     0.83226   0.49869   0.61580   0.00000  Uiso   1.00
C1050  C     0.79665   0.49893   0.90425   0.00000  Uiso   1.00
C1051  C     0.87002   0.49893   0.59575   0.00000  Uiso   1.00
C1052  C     0.79589   0.48738   0.95006   0.00000  Uiso   1.00
C1053  C     0.87077   0.48738   0.54994   0.00000  Uiso   1.00
C1054  C     0.83349   0.48533   0.97653   0.00000  Uiso   1.00
C1055  C     0.83317   0.48533   0.52347   0.00000  Uiso   1.00
C1056  C     0.87135   0.48353   0.95636   0.00000  Uiso   1.00
C1057  C     0.79532   0.48353   0.54364   0.00000  Uiso   1.00
C1058  C     0.75943   0.47373   0.96987   0.00000  Uiso   1.00
C1059  C     0.76003   0.46897   0.51684   0.00000  Uiso   1.00
C1060  C     0.90723   0.47373   0.53013   0.00000  Uiso   1.00
C1061  C     0.91113   0.50330   0.88894   0.00000  Uiso   1.00
C1062  C     0.75553   0.50330   0.61106   0.00000  Uiso   1.00
C1063  C     0.75945   0.51673   0.87797   0.00000  Uiso   1.00
C1064  C     0.90722   0.51673   0.62203   0.00000  Uiso   1.00
C1065  C     0.72296   0.45713   0.94190   0.00000  Uiso   1.00
C1066  C     0.94370   0.45712   0.55810   0.00000  Uiso   1.00
C1067  C     0.72791   0.44011   0.53625   0.00000  Uiso   1.00
C1068  C     0.93876   0.44011   0.96375   0.00000  Uiso   1.00
C1069  C     0.90664   0.46897   0.98315   0.00000  Uiso   1.00
C1070  C     0.68793   0.45819   0.75011   0.00000  Uiso   1.00
C1071  C     0.97873   0.54182   0.74991   0.00000  Uiso   1.00
C1072  C     0.97873   0.45819   0.74989   0.00000  Uiso   1.00
C1073  C     0.68793   0.54182   0.75009   0.00000  Uiso   1.00
C1074  C     0.95721   0.50000   0.75000   0.00000  Uiso   1.00
Cu1075 Cu    0.83333   0.54689   0.75000   0.00000  Uiso   1.00
Cu1076 Cu    0.83333   0.45311   0.75000   0.00000  Uiso   1.00
H1077  H     0.70383   0.42543   0.75038   0.00000  Uiso   1.00
H1078  H     0.97413   0.46906   0.55140   0.00000  Uiso   1.00
H1079  H     0.69715   0.43847   0.52062   0.00000  Uiso   1.00
H1080  H     0.96951   0.43847   0.97938   0.00000  Uiso   1.00
H1081  H     0.96282   0.57458   0.74967   0.00000  Uiso   1.00
H1082  H     0.96283   0.42543   0.74962   0.00000  Uiso   1.00
H1083  H     0.70384   0.57458   0.75033   0.00000  Uiso   1.00
H1084  H     0.91394   0.49671   0.85370   0.00000  Uiso   1.00
H1085  H     0.75273   0.49672   0.64630   0.00000  Uiso   1.00
H1086  H     0.75437   0.50914   0.84267   0.00000  Uiso   1.00
H1087  H     0.91230   0.50914   0.65733   0.00000  Uiso   1.00
H1088  H     0.69254   0.46906   0.94860   0.00000  Uiso   1.00
I1089  I     0.76373   0.39249   0.67545   0.00000  Uiso   1.00
I1090  I     0.90252   0.60754   0.82528   0.00000  Uiso   1.00
I1091  I     0.90294   0.39249   0.82455   0.00000  Uiso   1.00
I1092  I     0.76415   0.60754   0.67472   0.00000  Uiso   1.00
N1093  N     0.83333   0.61736   0.75000   0.00000  Uiso   1.00
N1094  N     0.83333   0.38264   0.75000   0.00000  Uiso   1.00
O1095  O     0.77321   0.53958   0.74999   0.00000  Uiso   1.00
O1096  O     0.72667   0.52162   0.58971   0.00000  Uiso   1.00
O1097  O     0.73499   0.54175   0.89534   0.00000  Uiso   1.00
O1098  O     0.93167   0.54175   0.60466   0.00000  Uiso   1.00
O1099  O     0.72682   0.42970   0.91158   0.00000  Uiso   1.00
O1100  O     0.93984   0.42970   0.58842   0.00000  Uiso   1.00
O1101  O     0.73633   0.41555   0.56862   0.00000  Uiso   1.00
O1102  O     0.93033   0.41555   0.93138   0.00000  Uiso   1.00
O1103  O     0.89345   0.46042   0.75000   0.00000  Uiso   1.00
O1104  O     0.89345   0.53958   0.75000   0.00000  Uiso   1.00
O1105  O     0.77321   0.46042   0.74999   0.00000  Uiso   1.00
O1106  O     0.83332   0.53960   0.68513   0.00000  Uiso   1.00
O1107  O     0.83334   0.46040   0.81487   0.00000  Uiso   1.00
O1108  O     0.83334   0.53960   0.81487   0.00000  Uiso   1.00
O1109  O     0.83332   0.46040   0.68513   0.00000  Uiso   1.00
O1110  O     0.93999   0.52162   0.91029   0.00000  Uiso   1.00
C1111  C     0.08748   0.83333   0.74984   0.00000  Uiso   1.00
C1112  C     0.04279   0.83334   0.75000   0.00000  Uiso   1.00
C1113  C     0.14001   0.69131   0.72132   0.00000  Uiso   1.00
C1114  C     0.19327   0.97535   0.77878   0.00000  Uiso   1.00
C1115  C     0.19333   0.69131   0.77868   0.00000  Uiso   1.00
C1116  C     0.14007   0.97535   0.72122   0.00000  Uiso   1.00
C1117  C     0.16587   0.83326   0.66452   0.00000  Uiso   1.00
C1118  C     0.16746   0.83326   0.83547   0.00000  Uiso   1.00
C1119  C     0.20531   0.82627   0.90998   0.00000  Uiso   1.00
C1120  C     0.12802   0.82627   0.59002   0.00000  Uiso   1.00
C1121  C     0.16774   0.83203   0.88420   0.00000  Uiso   1.00
C1122  C     0.24585   0.83333   0.75016   0.00000  Uiso   1.00
C1123  C     0.16559   0.83203   0.61580   0.00000  Uiso   1.00
C1124  C     0.12998   0.83226   0.90425   0.00000  Uiso   1.00
C1125  C     0.20335   0.83226   0.59575   0.00000  Uiso   1.00
C1126  C     0.12923   0.82071   0.95006   0.00000  Uiso   1.00
C1127  C     0.20411   0.82071   0.54994   0.00000  Uiso   1.00
C1128  C     0.16683   0.81866   0.97653   0.00000  Uiso   1.00
C1129  C     0.16651   0.81866   0.52347   0.00000  Uiso   1.00
C1130  C     0.20468   0.81687   0.95636   0.00000  Uiso   1.00
C1131  C     0.12865   0.81687   0.54364   0.00000  Uiso   1.00
C1132  C     0.09277   0.80706   0.96987   0.00000  Uiso   1.00
C1133  C     0.09336   0.80231   0.51684   0.00000  Uiso   1.00
C1134  C     0.24057   0.80706   0.53013   0.00000  Uiso   1.00
C1135  C     0.24447   0.83664   0.88894   0.00000  Uiso   1.00
C1136  C     0.08887   0.83664   0.61106   0.00000  Uiso   1.00
C1137  C     0.09278   0.85006   0.87797   0.00000  Uiso   1.00
C1138  C     0.24055   0.85006   0.62203   0.00000  Uiso   1.00
C1139  C     0.05630   0.79046   0.94190   0.00000  Uiso   1.00
C1140  C     0.27704   0.79046   0.55810   0.00000  Uiso   1.00
C1141  C     0.06124   0.77345   0.53625   0.00000  Uiso   1.00
C1142  C     0.27209   0.77345   0.96375   0.00000  Uiso   1.00
C1143  C     0.23997   0.80231   0.98315   0.00000  Uiso   1.00
C1144  C     0.02127   0.79152   0.75011   0.00000  Uiso   1.00
C1145  C     0.31206   0.87516   0.74991   0.00000  Uiso   1.00
C1146  C     0.31207   0.79152   0.74989   0.00000  Uiso   1.00
C1147  C     0.02127   0.87516   0.75009   0.00000  Uiso   1.00
C1148  C     0.29055   0.83334   0.75000   0.00000  Uiso   1.00
Cu1149 Cu    0.16667   0.88022   0.75000   0.00000  Uiso   1.00
Cu1150 Cu    0.16667   0.78645   0.75000   0.00000  Uiso   1.00
H1151  H     0.03717   0.75876   0.75038   0.00000  Uiso   1.00
H1152  H     0.30746   0.80240   0.55140   0.00000  Uiso   1.00
H1153  H     0.03049   0.77181   0.52062   0.00000  Uiso   1.00
H1154  H     0.30285   0.77181   0.97938   0.00000  Uiso   1.00
H1155  H     0.29616   0.90792   0.74967   0.00000  Uiso   1.00
H1156  H     0.29617   0.75876   0.74962   0.00000  Uiso   1.00
H1157  H     0.03718   0.90792   0.75033   0.00000  Uiso   1.00
H1158  H     0.24727   0.83005   0.85370   0.00000  Uiso   1.00
H1159  H     0.08606   0.83005   0.64630   0.00000  Uiso   1.00
H1160  H     0.08770   0.84247   0.84267   0.00000  Uiso   1.00
H1161  H     0.24563   0.84247   0.65733   0.00000  Uiso   1.00
H1162  H     0.02587   0.80240   0.94860   0.00000  Uiso   1.00
I1163  I     0.09706   0.72582   0.67545   0.00000  Uiso   1.00
I1164  I     0.23585   0.94088   0.82528   0.00000  Uiso   1.00
I1165  I     0.23627   0.72582   0.82455   0.00000  Uiso   1.00
I1166  I     0.09748   0.94088   0.67472   0.00000  Uiso   1.00
N1167  N     0.16667   0.95069   0.75000   0.00000  Uiso   1.00
N1168  N     0.16667   0.71598   0.75000   0.00000  Uiso   1.00
O1169  O     0.10655   0.87291   0.74999   0.00000  Uiso   1.00
O1170  O     0.06001   0.85495   0.58971   0.00000  Uiso   1.00
O1171  O     0.06833   0.87509   0.89534   0.00000  Uiso   1.00
O1172  O     0.26501   0.87509   0.60466   0.00000  Uiso   1.00
O1173  O     0.06016   0.76303   0.91158   0.00000  Uiso   1.00
O1174  O     0.27317   0.76303   0.58842   0.00000  Uiso   1.00
O1175  O     0.06967   0.74888   0.56862   0.00000  Uiso   1.00
O1176  O     0.26367   0.74888   0.93138   0.00000  Uiso   1.00
O1177  O     0.22679   0.79375   0.75000   0.00000  Uiso   1.00
O1178  O     0.22679   0.87291   0.75000   0.00000  Uiso   1.00
O1179  O     0.10655   0.79375   0.74999   0.00000  Uiso   1.00
O1180  O     0.16666   0.87293   0.68513   0.00000  Uiso   1.00
O1181  O     0.16668   0.79373   0.81487   0.00000  Uiso   1.00
O1182  O     0.16668   0.87293   0.81487   0.00000  Uiso   1.00
O1183  O     0.16666   0.79373   0.68513   0.00000  Uiso   1.00
O1184  O     0.27333   0.85495   0.91029   0.00000  Uiso   1.00
C1185  C     0.42082   0.83333   0.74984   0.00000  Uiso   1.00
C1186  C     0.37612   0.83334   0.75000   0.00000  Uiso   1.00
C1187  C     0.47334   0.69131   0.72132   0.00000  Uiso   1.00
C1188  C     0.52660   0.97535   0.77878   0.00000  Uiso   1.00
C1189  C     0.52666   0.69131   0.77868   0.00000  Uiso   1.00
C1190  C     0.47340   0.97535   0.72122   0.00000  Uiso   1.00
C1191  C     0.49921   0.83326   0.66452   0.00000  Uiso   1.00
C1192  C     0.50079   0.83326   0.83547   0.00000  Uiso   1.00
C1193  C     0.53865   0.82627   0.90998   0.00000  Uiso   1.00
C1194  C     0.46135   0.82627   0.59002   0.00000  Uiso   1.00
C1195  C     0.50108   0.83203   0.88420   0.00000  Uiso   1.00
C1196  C     0.57918   0.83333   0.75016   0.00000  Uiso   1.00
C1197  C     0.49892   0.83203   0.61580   0.00000  Uiso   1.00
C1198  C     0.46332   0.83226   0.90425   0.00000  Uiso   1.00
C1199  C     0.53668   0.83226   0.59575   0.00000  Uiso   1.00
C1200  C     0.46256   0.82071   0.95006   0.00000  Uiso   1.00
C1201  C     0.53744   0.82071   0.54994   0.00000  Uiso   1.00
C1202  C     0.50016   0.81866   0.97653   0.00000  Uiso   1.00
C1203  C     0.49984   0.81866   0.52347   0.00000  Uiso   1.00
C1204  C     0.53801   0.81687   0.95636   0.00000  Uiso   1.00
C1205  C     0.46199   0.81687   0.54364   0.00000  Uiso   1.00
C1206  C     0.42610   0.80706   0.96987   0.00000  Uiso   1.00
C1207  C     0.42669   0.80231   0.51684   0.00000  Uiso   1.00
C1208  C     0.57390   0.80706   0.53013   0.00000  Uiso   1.00
C1209  C     0.57780   0.83664   0.88894   0.00000  Uiso   1.00
C1210  C     0.42220   0.83664   0.61106   0.00000  Uiso   1.00
C1211  C     0.42611   0.85006   0.87797   0.00000  Uiso   1.00
C1212  C     0.57389   0.85006   0.62203   0.00000  Uiso   1.00
C1213  C     0.38963   0.79046   0.94190   0.00000  Uiso   1.00
C1214  C     0.61037   0.79046   0.55810   0.00000  Uiso   1.00
C1215  C     0.39458   0.77345   0.53625   0.00000  Uiso   1.00
C1216  C     0.60542   0.77345   0.96375   0.00000  Uiso   1.00
C1217  C     0.57331   0.80231   0.98315   0.00000  Uiso   1.00
C1218  C     0.35460   0.79152   0.75011   0.00000  Uiso   1.00
C1219  C     0.64540   0.87516   0.74991   0.00000  Uiso   1.00
C1220  C     0.64540   0.79152   0.74989   0.00000  Uiso   1.00
C1221  C     0.35460   0.87516   0.75009   0.00000  Uiso   1.00
C1222  C     0.62388   0.83334   0.75000   0.00000  Uiso   1.00
Cu1223 Cu    0.50000   0.88022   0.75000   0.00000  Uiso   1.00
Cu1224 Cu    0.50000   0.78645   0.75000   0.00000  Uiso   1.00
H1225  H     0.37050   0.75876   0.75038   0.00000  Uiso   1.00
H1226  H     0.64079   0.80240   0.55140   0.00000  Uiso   1.00
H1227  H     0.36382   0.77181   0.52062   0.00000  Uiso   1.00
H1228  H     0.63618   0.77181   0.97938   0.00000  Uiso   1.00
H1229  H     0.62949   0.90792   0.74967   0.00000  Uiso   1.00
H1230  H     0.62950   0.75876   0.74962   0.00000  Uiso   1.00
H1231  H     0.37051   0.90792   0.75033   0.00000  Uiso   1.00
H1232  H     0.58061   0.83005   0.85370   0.00000  Uiso   1.00
H1233  H     0.41939   0.83005   0.64630   0.00000  Uiso   1.00
H1234  H     0.42103   0.84247   0.84267   0.00000  Uiso   1.00
H1235  H     0.57897   0.84247   0.65733   0.00000  Uiso   1.00
H1236  H     0.35921   0.80240   0.94860   0.00000  Uiso   1.00
I1237  I     0.43039   0.72582   0.67545   0.00000  Uiso   1.00
I1238  I     0.56919   0.94088   0.82528   0.00000  Uiso   1.00
I1239  I     0.56961   0.72582   0.82455   0.00000  Uiso   1.00
I1240  I     0.43081   0.94088   0.67472   0.00000  Uiso   1.00
N1241  N     0.50000   0.95069   0.75000   0.00000  Uiso   1.00
N1242  N     0.50000   0.71598   0.75000   0.00000  Uiso   1.00
O1243  O     0.43988   0.87291   0.74999   0.00000  Uiso   1.00
O1244  O     0.39334   0.85495   0.58971   0.00000  Uiso   1.00
O1245  O     0.40166   0.87509   0.89534   0.00000  Uiso   1.00
O1246  O     0.59834   0.87509   0.60466   0.00000  Uiso   1.00
O1247  O     0.39349   0.76303   0.91158   0.00000  Uiso   1.00
O1248  O     0.60651   0.76303   0.58842   0.00000  Uiso   1.00
O1249  O     0.40300   0.74888   0.56862   0.00000  Uiso   1.00
O1250  O     0.59700   0.74888   0.93138   0.00000  Uiso   1.00
O1251  O     0.56012   0.79375   0.75000   0.00000  Uiso   1.00
O1252  O     0.56012   0.87291   0.75000   0.00000  Uiso   1.00
O1253  O     0.43988   0.79375   0.74999   0.00000  Uiso   1.00
O1254  O     0.49999   0.87293   0.68513   0.00000  Uiso   1.00
O1255  O     0.50001   0.79373   0.81487   0.00000  Uiso   1.00
O1256  O     0.50001   0.87293   0.81487   0.00000  Uiso   1.00
O1257  O     0.49999   0.79373   0.68513   0.00000  Uiso   1.00
O1258  O     0.60666   0.85495   0.91029   0.00000  Uiso   1.00
C1259  C     0.75415   0.83333   0.74984   0.00000  Uiso   1.00
C1260  C     0.70945   0.83334   0.75000   0.00000  Uiso   1.00
C1261  C     0.80667   0.69131   0.72132   0.00000  Uiso   1.00
C1262  C     0.85993   0.97535   0.77878   0.00000  Uiso   1.00
C1263  C     0.85999   0.69131   0.77868   0.00000  Uiso   1.00
C1264  C     0.80673   0.97535   0.72122   0.00000  Uiso   1.00
C1265  C     0.83254   0.83326   0.66452   0.00000  Uiso   1.00
C1266  C     0.83413   0.83326   0.83547   0.00000  Uiso   1.00
C1267  C     0.87198   0.82627   0.90998   0.00000  Uiso   1.00
C1268  C     0.79469   0.82627   0.59002   0.00000  Uiso   1.00
C1269  C     0.83441   0.83203   0.88420   0.00000  Uiso   1.00
C1270  C     0.91252   0.83333   0.75016   0.00000  Uiso   1.00
C1271  C     0.83226   0.83203   0.61580   0.00000  Uiso   1.00
C1272  C     0.79665   0.83226   0.90425   0.00000  Uiso   1.00
C1273  C     0.87002   0.83226   0.59575   0.00000  Uiso   1.00
C1274  C     0.79589   0.82071   0.95006   0.00000  Uiso   1.00
C1275  C     0.87077   0.82071   0.54994   0.00000  Uiso   1.00
C1276  C     0.83349   0.81866   0.97653   0.00000  Uiso   1.00
C1277  C     0.83317   0.81866   0.52347   0.00000  Uiso   1.00
C1278  C     0.87135   0.81687   0.95636   0.00000  Uiso   1.00
C1279  C     0.79532   0.81687   0.54364   0.00000  Uiso   1.00
C1280  C     0.75943   0.80706   0.96987   0.00000  Uiso   1.00
C1281  C     0.76003   0.80231   0.51684   0.00000  Uiso   1.00
C1282  C     0.90723   0.80706   0.53013   0.00000  Uiso   1.00
C1283  C     0.91113   0.83664   0.88894   0.00000  Uiso   1.00
C1284  C     0.75553   0.83664   0.61106   0.00000  Uiso   1.00
C1285  C     0.75945   0.85006   0.87797   0.00000  Uiso   1.00
C1286  C     0.90722   0.85006   0.62203   0.00000  Uiso   1.00
C1287  C     0.72296   0.79046   0.94190   0.00000  Uiso   1.00
C1288  C     0.94370   0.79046   0.55810   0.00000  Uiso   1.00
C1289  C     0.72791   0.77345   0.53625   0.00000  Uiso   1.00
C1290  C     0.93876   0.77345   0.96375   0.00000  Uiso   1.00
C1291  C     0.90664   0.80231   0.98315   0.00000  Uiso   1.00
C1292  C     0.68793   0.79152   0.75011   0.00000  Uiso   1.00
C1293  C     0.97873   0.87516   0.74991   0.00000  Uiso   1.00
C1294  C     0.97873   0.79152   0.74989   0.00000  Uiso   1.00
C1295  C     0.68793   0.87516   0.75009   0.00000  Uiso   1.00
C1296  C     0.95721   0.83334   0.75000   0.00000  Uiso   1.00
Cu1297 Cu    0.83333   0.88022   0.75000   0.00000  Uiso   1.00
Cu1298 Cu    0.83333   0.78645   0.75000   0.00000  Uiso   1.00
H1299  H     0.70383   0.75876   0.75038   0.00000  Uiso   1.00
H1300  H     0.97413   0.80240   0.55140   0.00000  Uiso   1.00
H1301  H     0.69715   0.77181   0.52062   0.00000  Uiso   1.00
H1302  H     0.96951   0.77181   0.97938   0.00000  Uiso   1.00
H1303  H     0.96282   0.90792   0.74967   0.00000  Uiso   1.00
H1304  H     0.96283   0.75876   0.74962   0.00000  Uiso   1.00
H1305  H     0.70384   0.90792   0.75033   0.00000  Uiso   1.00
H1306  H     0.91394   0.83005   0.85370   0.00000  Uiso   1.00
H1307  H     0.75273   0.83005   0.64630   0.00000  Uiso   1.00
H1308  H     0.75437   0.84247   0.84267   0.00000  Uiso   1.00
H1309  H     0.91230   0.84247   0.65733   0.00000  Uiso   1.00
H1310  H     0.69254   0.80240   0.94860   0.00000  Uiso   1.00
I1311  I     0.76373   0.72582   0.67545   0.00000  Uiso   1.00
I1312  I     0.90252   0.94088   0.82528   0.00000  Uiso   1.00
I1313  I     0.90294   0.72582   0.82455   0.00000  Uiso   1.00
I1314  I     0.76415   0.94088   0.67472   0.00000  Uiso   1.00
N1315  N     0.83333   0.95069   0.75000   0.00000  Uiso   1.00
N1316  N     0.83333   0.71598   0.75000   0.00000  Uiso   1.00
O1317  O     0.77321   0.87291   0.74999   0.00000  Uiso   1.00
O1318  O     0.72667   0.85495   0.58971   0.00000  Uiso   1.00
O1319  O     0.73499   0.87509   0.89534   0.00000  Uiso   1.00
O1320  O     0.93167   0.87509   0.60466   0.00000  Uiso   1.00
O1321  O     0.72682   0.76303   0.91158   0.00000  Uiso   1.00
O1322  O     0.93984   0.76303   0.58842   0.00000  Uiso   1.00
O1323  O     0.73633   0.74888   0.56862   0.00000  Uiso   1.00
O1324  O     0.93033   0.74888   0.93138   0.00000  Uiso   1.00
O1325  O     0.89345   0.79375   0.75000   0.00000  Uiso   1.00
O1326  O     0.89345   0.87291   0.75000   0.00000  Uiso   1.00
O1327  O     0.77321   0.79375   0.74999   0.00000  Uiso   1.00
O1328  O     0.83332   0.87293   0.68513   0.00000  Uiso   1.00
O1329  O     0.83334   0.79373   0.81487   0.00000  Uiso   1.00
O1330  O     0.83334   0.87293   0.81487   0.00000  Uiso   1.00
O1331  O     0.83332   0.79373   0.68513   0.00000  Uiso   1.00
O1332  O     0.93999   0.85495   0.91029   0.00000  Uiso   1.00
loop_
_geom_bond_atom_site_label_1
_geom_bond_atom_site_label_2
_geom_bond_distance
_geom_bond_site_symmetry_2
_ccdc_geom_bond_type
C1     O59     1.306   .     A
C1     C2      1.456   .     S
C1     O69     1.306   .     A
C2     C34     1.402   .     A
C2     C37     1.402   .     A
C3     I53     2.141   .     S
C3     N58     1.379   .     A
C3     C450    1.431   1_545 S
C4     N57     1.379   .     A
C4     I54     2.144   .     S
C4     C227    1.431   .     S
C5     N58     1.379   .     A
C5     I55     2.141   .     S
C5     C448    1.431   1_545 S
C6     N57     1.379   .     A
C6     I56     2.144   .     S
C6     C225    1.431   .     S
C7     O70     1.306   .     A
C7     O73     1.302   .     A
C7     C13     1.461   .     S
C8     O72     1.306   .     A
C8     O71     1.302   .     A
C8     C11     1.461   .     S
C9     C25     1.493   .     S
C9     C20     1.419   .     A
C9     C11     1.411   .     A
C10    C21     1.419   .     A
C10    C13     1.411   .     A
C10    C26     1.493   .     S
C11    C14     1.407   .     A
C12    O68     1.306   .     A
C12    O67     1.306   .     A
C12    C38     1.456   .     S
C13    C15     1.407   .     A
C14    C27     1.491   .     S
C14    C16     1.416   .     A
C15    C17     1.416   .     A
C15    C28     1.491   .     S
C16    C22     1.421   .     A
C16    C18     1.413   .     A
C17    C19     1.413   .     A
C17    C24     1.421   .     A
C18    C20     1.412   .     A
C18    C685    1.409   .     S
C19    C21     1.412   .     A
C19    C684    1.409   1_554 S
C20    C33     1.420   .     A
C21    C23     1.420   .     A
C22    C29     1.486   .     S
C22    C689    1.414   .     S
C23    C31     1.490   .     S
C23    C688    1.414   1_554 S
C24    C30     1.486   .     S
C24    C699    1.414   1_554 S
C25    O74     1.221   .     D
C25    H48     1.084   .     S
C26    H49     1.084   .     S
C26    O60     1.221   .     D
C27    O61     1.221   .     D
C27    H50     1.083   .     S
C28    H51     1.082   .     S
C28    O62     1.221   .     D
C29    O63     1.221   .     D
C29    H52     1.082   .     S
C30    O64     1.221   .     D
C30    H42     1.082   .     S
C31    H43     1.077   .     S
C31    O65     1.220   .     D
C32    H44     1.077   .     S
C32    O66     1.220   .     D
C32    C33     1.490   .     S
C33    C690    1.414   .     S
C34    H41     1.082   .     S
C34    C184    1.385   1_455 S
C35    C38     1.402   .     A
C35    H45     1.083   .     S
C35    C111    1.385   .     S
C36    H46     1.082   .     S
C36    C38     1.402   .     A
C36    C108    1.385   .     S
C37    H47     1.083   .     S
C37    C183    1.385   1_455 S
Cu39   O68     1.970   .     S
Cu39   N57     2.045   .     S
Cu39   O72     1.957   .     S
Cu39   Cu40    2.721   .     S
Cu39   O59     1.970   .     S
Cu39   O70     1.957   .     S
Cu40   O71     1.957   .     S
Cu40   O73     1.957   .     S
Cu40   O67     1.970   .     S
Cu40   N58     2.045   .     S
Cu40   O69     1.970   .     S
C75    O133    1.306   .     A
C75    C76     1.456   .     S
C75    O143    1.306   .     A
C76    C108    1.402   .     A
C76    C111    1.402   .     A
C77    I127    2.141   .     S
C77    N132    1.379   .     A
C77    C524    1.431   1_545 S
C78    N131    1.379   .     A
C78    I128    2.144   .     S
C78    C301    1.431   .     S
C79    N132    1.379   .     A
C79    I129    2.141   .     S
C79    C522    1.431   1_545 S
C80    N131    1.379   .     A
C80    I130    2.144   .     S
C80    C299    1.431   .     S
C81    O144    1.306   .     A
C81    O147    1.302   .     A
C81    C87     1.461   .     S
C82    O146    1.306   .     A
C82    O145    1.302   .     A
C82    C85     1.461   .     S
C83    C99     1.493   .     S
C83    C94     1.419   .     A
C83    C85     1.411   .     A
C84    C95     1.419   .     A
C84    C87     1.411   .     A
C84    C100    1.493   .     S
C85    C88     1.407   .     A
C86    O142    1.306   .     A
C86    O141    1.306   .     A
C86    C112    1.456   .     S
C87    C89     1.407   .     A
C88    C101    1.491   .     S
C88    C90     1.416   .     A
C89    C91     1.416   .     A
C89    C102    1.491   .     S
C90    C96     1.421   .     A
C90    C92     1.413   .     A
C91    C93     1.413   .     A
C91    C98     1.421   .     A
C92    C94     1.412   .     A
C92    C759    1.409   .     S
C93    C95     1.412   .     A
C93    C758    1.409   1_554 S
C94    C107    1.420   .     A
C95    C97     1.420   .     A
C96    C103    1.486   .     S
C96    C763    1.414   .     S
C97    C105    1.490   .     S
C97    C762    1.414   1_554 S
C98    C104    1.486   .     S
C98    C773    1.414   1_554 S
C99    O148    1.221   .     D
C99    H122    1.084   .     S
C100   H123    1.084   .     S
C100   O134    1.221   .     D
C101   O135    1.221   .     D
C101   H124    1.083   .     S
C102   H125    1.082   .     S
C102   O136    1.221   .     D
C103   O137    1.221   .     D
C103   H126    1.082   .     S
C104   O138    1.221   .     D
C104   H116    1.082   .     S
C105   H117    1.077   .     S
C105   O139    1.220   .     D
C106   H118    1.077   .     S
C106   O140    1.220   .     D
C106   C107    1.490   .     S
C107   C764    1.414   .     S
C108   H115    1.082   .     S
C109   C112    1.402   .     A
C109   H119    1.083   .     S
C109   C185    1.385   .     S
C110   H120    1.082   .     S
C110   C112    1.402   .     A
C110   C182    1.385   .     S
C111   H121    1.083   .     S
Cu113  O142    1.970   .     S
Cu113  N131    2.045   .     S
Cu113  O146    1.957   .     S
Cu113  Cu114   2.721   .     S
Cu113  O133    1.970   .     S
Cu113  O144    1.957   .     S
Cu114  O145    1.957   .     S
Cu114  O147    1.957   .     S
Cu114  O141    1.970   .     S
Cu114  N132    2.045   .     S
Cu114  O143    1.970   .     S
C149   O207    1.306   .     A
C149   C150    1.456   .     S
C149   O217    1.306   .     A
C150   C182    1.402   .     A
C150   C185    1.402   .     A
C151   I201    2.141   .     S
C151   N206    1.379   .     A
C151   C598    1.431   1_545 S
C152   N205    1.379   .     A
C152   I202    2.144   .     S
C152   C375    1.431   .     S
C153   N206    1.379   .     A
C153   I203    2.141   .     S
C153   C596    1.431   1_545 S
C154   N205    1.379   .     A
C154   I204    2.144   .     S
C154   C373    1.431   .     S
C155   O218    1.306   .     A
C155   O221    1.302   .     A
C155   C161    1.461   .     S
C156   O220    1.306   .     A
C156   O219    1.302   .     A
C156   C159    1.461   .     S
C157   C173    1.493   .     S
C157   C168    1.419   .     A
C157   C159    1.411   .     A
C158   C169    1.419   .     A
C158   C161    1.411   .     A
C158   C174    1.493   .     S
C159   C162    1.407   .     A
C160   O216    1.306   .     A
C160   O215    1.306   .     A
C160   C186    1.456   .     S
C161   C163    1.407   .     A
C162   C175    1.491   .     S
C162   C164    1.416   .     A
C163   C165    1.416   .     A
C163   C176    1.491   .     S
C164   C170    1.421   .     A
C164   C166    1.413   .     A
C165   C167    1.413   .     A
C165   C172    1.421   .     A
C166   C168    1.412   .     A
C166   C833    1.409   .     S
C167   C169    1.412   .     A
C167   C832    1.409   1_554 S
C168   C181    1.420   .     A
C169   C171    1.420   .     A
C170   C177    1.486   .     S
C170   C837    1.414   .     S
C171   C179    1.490   .     S
C171   C836    1.414   1_554 S
C172   C178    1.486   .     S
C172   C847    1.414   1_554 S
C173   O222    1.221   .     D
C173   H196    1.084   .     S
C174   H197    1.084   .     S
C174   O208    1.221   .     D
C175   O209    1.221   .     D
C175   H198    1.083   .     S
C176   H199    1.082   .     S
C176   O210    1.221   .     D
C177   O211    1.221   .     D
C177   H200    1.082   .     S
C178   O212    1.221   .     D
C178   H190    1.082   .     S
C179   H191    1.077   .     S
C179   O213    1.220   .     D
C180   H192    1.077   .     S
C180   O214    1.220   .     D
C180   C181    1.490   .     S
C181   C838    1.414   .     S
C182   H189    1.082   .     S
C183   C186    1.402   .     A
C183   H193    1.083   .     S
C183   C37     1.385   1_655 S
C184   H194    1.082   .     S
C184   C186    1.402   .     A
C184   C34     1.385   1_655 S
C185   H195    1.083   .     S
Cu187  O216    1.970   .     S
Cu187  N205    2.045   .     S
Cu187  O220    1.957   .     S
Cu187  Cu188   2.721   .     S
Cu187  O207    1.970   .     S
Cu187  O218    1.957   .     S
Cu188  O219    1.957   .     S
Cu188  O221    1.957   .     S
Cu188  O215    1.970   .     S
Cu188  N206    2.045   .     S
Cu188  O217    1.970   .     S
C223   O281    1.306   .     A
C223   C224    1.456   .     S
C223   O291    1.306   .     A
C224   C256    1.402   .     A
C224   C259    1.402   .     A
C225   I275    2.141   .     S
C225   N280    1.379   .     A
C226   N279    1.379   .     A
C226   I276    2.144   .     S
C226   C449    1.431   .     S
C227   N280    1.379   .     A
C227   I277    2.141   .     S
C228   N279    1.379   .     A
C228   I278    2.144   .     S
C228   C447    1.431   .     S
C229   O292    1.306   .     A
C229   O295    1.302   .     A
C229   C235    1.461   .     S
C230   O294    1.306   .     A
C230   O293    1.302   .     A
C230   C233    1.461   .     S
C231   C247    1.493   .     S
C231   C242    1.419   .     A
C231   C233    1.411   .     A
C232   C243    1.419   .     A
C232   C235    1.411   .     A
C232   C248    1.493   .     S
C233   C236    1.407   .     A
C234   O290    1.306   .     A
C234   O289    1.306   .     A
C234   C260    1.456   .     S
C235   C237    1.407   .     A
C236   C249    1.491   .     S
C236   C238    1.416   .     A
C237   C239    1.416   .     A
C237   C250    1.491   .     S
C238   C244    1.421   .     A
C238   C240    1.413   .     A
C239   C241    1.413   .     A
C239   C246    1.421   .     A
C240   C242    1.412   .     A
C240   C907    1.409   .     S
C241   C243    1.412   .     A
C241   C906    1.409   1_554 S
C242   C255    1.420   .     A
C243   C245    1.420   .     A
C244   C251    1.486   .     S
C244   C911    1.414   .     S
C245   C253    1.490   .     S
C245   C910    1.414   1_554 S
C246   C252    1.486   .     S
C246   C921    1.414   1_554 S
C247   O296    1.221   .     D
C247   H270    1.084   .     S
C248   H271    1.084   .     S
C248   O282    1.221   .     D
C249   O283    1.221   .     D
C249   H272    1.083   .     S
C250   H273    1.082   .     S
C250   O284    1.221   .     D
C251   O285    1.221   .     D
C251   H274    1.082   .     S
C252   O286    1.221   .     D
C252   H264    1.082   .     S
C253   H265    1.077   .     S
C253   O287    1.220   .     D
C254   H266    1.077   .     S
C254   O288    1.220   .     D
C254   C255    1.490   .     S
C255   C912    1.414   .     S
C256   H263    1.082   .     S
C256   C406    1.385   1_455 S
C257   C260    1.402   .     A
C257   H267    1.083   .     S
C257   C333    1.385   .     S
C258   H268    1.082   .     S
C258   C260    1.402   .     A
C258   C330    1.385   .     S
C259   H269    1.083   .     S
C259   C405    1.385   1_455 S
Cu261  O290    1.970   .     S
Cu261  N279    2.045   .     S
Cu261  O294    1.957   .     S
Cu261  Cu262   2.721   .     S
Cu261  O281    1.970   .     S
Cu261  O292    1.957   .     S
Cu262  O293    1.957   .     S
Cu262  O295    1.957   .     S
Cu262  O289    1.970   .     S
Cu262  N280    2.045   .     S
Cu262  O291    1.970   .     S
C297   O355    1.306   .     A
C297   C298    1.456   .     S
C297   O365    1.306   .     A
C298   C330    1.402   .     A
C298   C333    1.402   .     A
C299   I349    2.141   .     S
C299   N354    1.379   .     A
C300   N353    1.379   .     A
C300   I350    2.144   .     S
C300   C523    1.431   .     S
C301   N354    1.379   .     A
C301   I351    2.141   .     S
C302   N353    1.379   .     A
C302   I352    2.144   .     S
C302   C521    1.431   .     S
C303   O366    1.306   .     A
C303   O369    1.302   .     A
C303   C309    1.461   .     S
C304   O368    1.306   .     A
C304   O367    1.302   .     A
C304   C307    1.461   .     S
C305   C321    1.493   .     S
C305   C316    1.419   .     A
C305   C307    1.411   .     A
C306   C317    1.419   .     A
C306   C309    1.411   .     A
C306   C322    1.493   .     S
C307   C310    1.407   .     A
C308   O364    1.306   .     A
C308   O363    1.306   .     A
C308   C334    1.456   .     S
C309   C311    1.407   .     A
C310   C323    1.491   .     S
C310   C312    1.416   .     A
C311   C313    1.416   .     A
C311   C324    1.491   .     S
C312   C318    1.421   .     A
C312   C314    1.413   .     A
C313   C315    1.413   .     A
C313   C320    1.421   .     A
C314   C316    1.412   .     A
C314   C981    1.409   .     S
C315   C317    1.412   .     A
C315   C980    1.409   1_554 S
C316   C329    1.420   .     A
C317   C319    1.420   .     A
C318   C325    1.486   .     S
C318   C985    1.414   .     S
C319   C327    1.490   .     S
C319   C984    1.414   1_554 S
C320   C326    1.486   .     S
C320   C995    1.414   1_554 S
C321   O370    1.221   .     D
C321   H344    1.084   .     S
C322   H345    1.084   .     S
C322   O356    1.221   .     D
C323   O357    1.221   .     D
C323   H346    1.083   .     S
C324   H347    1.082   .     S
C324   O358    1.221   .     D
C325   O359    1.221   .     D
C325   H348    1.082   .     S
C326   O360    1.221   .     D
C326   H338    1.082   .     S
C327   H339    1.077   .     S
C327   O361    1.220   .     D
C328   H340    1.077   .     S
C328   O362    1.220   .     D
C328   C329    1.490   .     S
C329   C986    1.414   .     S
C330   H337    1.082   .     S
C331   C334    1.402   .     A
C331   H341    1.083   .     S
C331   C407    1.385   .     S
C332   H342    1.082   .     S
C332   C334    1.402   .     A
C332   C404    1.385   .     S
C333   H343    1.083   .     S
Cu335  O364    1.970   .     S
Cu335  N353    2.045   .     S
Cu335  O368    1.957   .     S
Cu335  Cu336   2.721   .     S
Cu335  O355    1.970   .     S
Cu335  O366    1.957   .     S
Cu336  O367    1.957   .     S
Cu336  O369    1.957   .     S
Cu336  O363    1.970   .     S
Cu336  N354    2.045   .     S
Cu336  O365    1.970   .     S
C371   O429    1.306   .     A
C371   C372    1.456   .     S
C371   O439    1.306   .     A
C372   C404    1.402   .     A
C372   C407    1.402   .     A
C373   I423    2.141   .     S
C373   N428    1.379   .     A
C374   N427    1.379   .     A
C374   I424    2.144   .     S
C374   C597    1.431   .     S
C375   N428    1.379   .     A
C375   I425    2.141   .     S
C376   N427    1.379   .     A
C376   I426    2.144   .     S
C376   C595    1.431   .     S
C377   O440    1.306   .     A
C377   O443    1.302   .     A
C377   C383    1.461   .     S
C378   O442    1.306   .     A
C378   O441    1.302   .     A
C378   C381    1.461   .     S
C379   C395    1.493   .     S
C379   C390    1.419   .     A
C379   C381    1.411   .     A
C380   C391    1.419   .     A
C380   C383    1.411   .     A
C380   C396    1.493   .     S
C381   C384    1.407   .     A
C382   O438    1.306   .     A
C382   O437    1.306   .     A
C382   C408    1.456   .     S
C383   C385    1.407   .     A
C384   C397    1.491   .     S
C384   C386    1.416   .     A
C385   C387    1.416   .     A
C385   C398    1.491   .     S
C386   C392    1.421   .     A
C386   C388    1.413   .     A
C387   C389    1.413   .     A
C387   C394    1.421   .     A
C388   C390    1.412   .     A
C388   C1055   1.409   .     S
C389   C391    1.412   .     A
C389   C1054   1.409   1_554 S
C390   C403    1.420   .     A
C391   C393    1.420   .     A
C392   C399    1.486   .     S
C392   C1059   1.414   .     S
C393   C401    1.490   .     S
C393   C1058   1.414   1_554 S
C394   C400    1.486   .     S
C394   C1069   1.414   1_554 S
C395   O444    1.221   .     D
C395   H418    1.084   .     S
C396   H419    1.084   .     S
C396   O430    1.221   .     D
C397   O431    1.221   .     D
C397   H420    1.083   .     S
C398   H421    1.082   .     S
C398   O432    1.221   .     D
C399   O433    1.221   .     D
C399   H422    1.082   .     S
C400   O434    1.221   .     D
C400   H412    1.082   .     S
C401   H413    1.077   .     S
C401   O435    1.220   .     D
C402   H414    1.077   .     S
C402   O436    1.220   .     D
C402   C403    1.490   .     S
C403   C1060   1.414   .     S
C404   H411    1.082   .     S
C405   C408    1.402   .     A
C405   H415    1.083   .     S
C405   C259    1.385   1_655 S
C406   H416    1.082   .     S
C406   C408    1.402   .     A
C406   C256    1.385   1_655 S
C407   H417    1.083   .     S
Cu409  O438    1.970   .     S
Cu409  N427    2.045   .     S
Cu409  O442    1.957   .     S
Cu409  Cu410   2.721   .     S
Cu409  O429    1.970   .     S
Cu409  O440    1.957   .     S
Cu410  O441    1.957   .     S
Cu410  O443    1.957   .     S
Cu410  O437    1.970   .     S
Cu410  N428    2.045   .     S
Cu410  O439    1.970   .     S
C445   O503    1.306   .     A
C445   C446    1.456   .     S
C445   O513    1.306   .     A
C446   C478    1.402   .     A
C446   C481    1.402   .     A
C447   I497    2.141   .     S
C447   N502    1.379   .     A
C448   N501    1.379   .     A
C448   I498    2.144   .     S
C448   C5      1.431   1_565 S
C449   N502    1.379   .     A
C449   I499    2.141   .     S
C450   N501    1.379   .     A
C450   I500    2.144   .     S
C450   C3      1.431   1_565 S
C451   O514    1.306   .     A
C451   O517    1.302   .     A
C451   C457    1.461   .     S
C452   O516    1.306   .     A
C452   O515    1.302   .     A
C452   C455    1.461   .     S
C453   C469    1.493   .     S
C453   C464    1.419   .     A
C453   C455    1.411   .     A
C454   C465    1.419   .     A
C454   C457    1.411   .     A
C454   C470    1.493   .     S
C455   C458    1.407   .     A
C456   O512    1.306   .     A
C456   O511    1.306   .     A
C456   C482    1.456   .     S
C457   C459    1.407   .     A
C458   C471    1.491   .     S
C458   C460    1.416   .     A
C459   C461    1.416   .     A
C459   C472    1.491   .     S
C460   C466    1.421   .     A
C460   C462    1.413   .     A
C461   C463    1.413   .     A
C461   C468    1.421   .     A
C462   C464    1.412   .     A
C462   C1129   1.409   .     S
C463   C465    1.412   .     A
C463   C1128   1.409   1_554 S
C464   C477    1.420   .     A
C465   C467    1.420   .     A
C466   C473    1.486   .     S
C466   C1133   1.414   .     S
C467   C475    1.490   .     S
C467   C1132   1.414   1_554 S
C468   C474    1.486   .     S
C468   C1143   1.414   1_554 S
C469   O518    1.221   .     D
C469   H492    1.084   .     S
C470   H493    1.084   .     S
C470   O504    1.221   .     D
C471   O505    1.221   .     D
C471   H494    1.083   .     S
C472   H495    1.082   .     S
C472   O506    1.221   .     D
C473   O507    1.221   .     D
C473   H496    1.082   .     S
C474   O508    1.221   .     D
C474   H486    1.082   .     S
C475   H487    1.077   .     S
C475   O509    1.220   .     D
C476   H488    1.077   .     S
C476   O510    1.220   .     D
C476   C477    1.490   .     S
C477   C1134   1.414   .     S
C478   H485    1.082   .     S
C478   C628    1.385   1_455 S
C479   C482    1.402   .     A
C479   H489    1.083   .     S
C479   C555    1.385   .     S
C480   H490    1.082   .     S
C480   C482    1.402   .     A
C480   C552    1.385   .     S
C481   H491    1.083   .     S
C481   C627    1.385   1_455 S
Cu483  O512    1.970   .     S
Cu483  N501    2.045   .     S
Cu483  O516    1.957   .     S
Cu483  Cu484   2.721   .     S
Cu483  O503    1.970   .     S
Cu483  O514    1.957   .     S
Cu484  O515    1.957   .     S
Cu484  O517    1.957   .     S
Cu484  O511    1.970   .     S
Cu484  N502    2.045   .     S
Cu484  O513    1.970   .     S
C519   O577    1.306   .     A
C519   C520    1.456   .     S
C519   O587    1.306   .     A
C520   C552    1.402   .     A
C520   C555    1.402   .     A
C521   I571    2.141   .     S
C521   N576    1.379   .     A
C522   N575    1.379   .     A
C522   I572    2.144   .     S
C522   C79     1.431   1_565 S
C523   N576    1.379   .     A
C523   I573    2.141   .     S
C524   N575    1.379   .     A
C524   I574    2.144   .     S
C524   C77     1.431   1_565 S
C525   O588    1.306   .     A
C525   O591    1.302   .     A
C525   C531    1.461   .     S
C526   O590    1.306   .     A
C526   O589    1.302   .     A
C526   C529    1.461   .     S
C527   C543    1.493   .     S
C527   C538    1.419   .     A
C527   C529    1.411   .     A
C528   C539    1.419   .     A
C528   C531    1.411   .     A
C528   C544    1.493   .     S
C529   C532    1.407   .     A
C530   O586    1.306   .     A
C530   O585    1.306   .     A
C530   C556    1.456   .     S
C531   C533    1.407   .     A
C532   C545    1.491   .     S
C532   C534    1.416   .     A
C533   C535    1.416   .     A
C533   C546    1.491   .     S
C534   C540    1.421   .     A
C534   C536    1.413   .     A
C535   C537    1.413   .     A
C535   C542    1.421   .     A
C536   C538    1.412   .     A
C536   C1203   1.409   .     S
C537   C539    1.412   .     A
C537   C1202   1.409   1_554 S
C538   C551    1.420   .     A
C539   C541    1.420   .     A
C540   C547    1.486   .     S
C540   C1207   1.414   .     S
C541   C549    1.490   .     S
C541   C1206   1.414   1_554 S
C542   C548    1.486   .     S
C542   C1217   1.414   1_554 S
C543   O592    1.221   .     D
C543   H566    1.084   .     S
C544   H567    1.084   .     S
C544   O578    1.221   .     D
C545   O579    1.221   .     D
C545   H568    1.083   .     S
C546   H569    1.082   .     S
C546   O580    1.221   .     D
C547   O581    1.221   .     D
C547   H570    1.082   .     S
C548   O582    1.221   .     D
C548   H560    1.082   .     S
C549   H561    1.077   .     S
C549   O583    1.220   .     D
C550   H562    1.077   .     S
C550   O584    1.220   .     D
C550   C551    1.490   .     S
C551   C1208   1.414   .     S
C552   H559    1.082   .     S
C553   C556    1.402   .     A
C553   H563    1.083   .     S
C553   C629    1.385   .     S
C554   H564    1.082   .     S
C554   C556    1.402   .     A
C554   C626    1.385   .     S
C555   H565    1.083   .     S
Cu557  O586    1.970   .     S
Cu557  N575    2.045   .     S
Cu557  O590    1.957   .     S
Cu557  Cu558   2.721   .     S
Cu557  O577    1.970   .     S
Cu557  O588    1.957   .     S
Cu558  O589    1.957   .     S
Cu558  O591    1.957   .     S
Cu558  O585    1.970   .     S
Cu558  N576    2.045   .     S
Cu558  O587    1.970   .     S
C593   O651    1.306   .     A
C593   C594    1.456   .     S
C593   O661    1.306   .     A
C594   C626    1.402   .     A
C594   C629    1.402   .     A
C595   I645    2.141   .     S
C595   N650    1.379   .     A
C596   N649    1.379   .     A
C596   I646    2.144   .     S
C596   C153    1.431   1_565 S
C597   N650    1.379   .     A
C597   I647    2.141   .     S
C598   N649    1.379   .     A
C598   I648    2.144   .     S
C598   C151    1.431   1_565 S
C599   O662    1.306   .     A
C599   O665    1.302   .     A
C599   C605    1.461   .     S
C600   O664    1.306   .     A
C600   O663    1.302   .     A
C600   C603    1.461   .     S
C601   C617    1.493   .     S
C601   C612    1.419   .     A
C601   C603    1.411   .     A
C602   C613    1.419   .     A
C602   C605    1.411   .     A
C602   C618    1.493   .     S
C603   C606    1.407   .     A
C604   O660    1.306   .     A
C604   O659    1.306   .     A
C604   C630    1.456   .     S
C605   C607    1.407   .     A
C606   C619    1.491   .     S
C606   C608    1.416   .     A
C607   C609    1.416   .     A
C607   C620    1.491   .     S
C608   C614    1.421   .     A
C608   C610    1.413   .     A
C609   C611    1.413   .     A
C609   C616    1.421   .     A
C610   C612    1.412   .     A
C610   C1277   1.409   .     S
C611   C613    1.412   .     A
C611   C1276   1.409   1_554 S
C612   C625    1.420   .     A
C613   C615    1.420   .     A
C614   C621    1.486   .     S
C614   C1281   1.414   .     S
C615   C623    1.490   .     S
C615   C1280   1.414   1_554 S
C616   C622    1.486   .     S
C616   C1291   1.414   1_554 S
C617   O666    1.221   .     D
C617   H640    1.084   .     S
C618   H641    1.084   .     S
C618   O652    1.221   .     D
C619   O653    1.221   .     D
C619   H642    1.083   .     S
C620   H643    1.082   .     S
C620   O654    1.221   .     D
C621   O655    1.221   .     D
C621   H644    1.082   .     S
C622   O656    1.221   .     D
C622   H634    1.082   .     S
C623   H635    1.077   .     S
C623   O657    1.220   .     D
C624   H636    1.077   .     S
C624   O658    1.220   .     D
C624   C625    1.490   .     S
C625   C1282   1.414   .     S
C626   H633    1.082   .     S
C627   C630    1.402   .     A
C627   H637    1.083   .     S
C627   C481    1.385   1_655 S
C628   H638    1.082   .     S
C628   C630    1.402   .     A
C628   C478    1.385   1_655 S
C629   H639    1.083   .     S
Cu631  O660    1.970   .     S
Cu631  N649    2.045   .     S
Cu631  O664    1.957   .     S
Cu631  Cu632   2.721   .     S
Cu631  O651    1.970   .     S
Cu631  O662    1.957   .     S
Cu632  O663    1.957   .     S
Cu632  O665    1.957   .     S
Cu632  O659    1.970   .     S
Cu632  N650    2.045   .     S
Cu632  O661    1.970   .     S
C667   O725    1.306   .     A
C667   C668    1.456   .     S
C667   O735    1.306   .     A
C668   C700    1.402   .     A
C668   C703    1.402   .     A
C669   I719    2.141   .     S
C669   N724    1.379   .     A
C669   C1116   1.431   1_545 S
C670   N723    1.379   .     A
C670   I720    2.144   .     S
C670   C893    1.431   .     S
C671   N724    1.379   .     A
C671   I721    2.141   .     S
C671   C1114   1.431   1_545 S
C672   N723    1.379   .     A
C672   I722    2.144   .     S
C672   C891    1.431   .     S
C673   O736    1.306   .     A
C673   O739    1.302   .     A
C673   C679    1.461   .     S
C674   O738    1.306   .     A
C674   O737    1.302   .     A
C674   C677    1.461   .     S
C675   C691    1.493   .     S
C675   C686    1.419   .     A
C675   C677    1.411   .     A
C676   C687    1.419   .     A
C676   C679    1.411   .     A
C676   C692    1.493   .     S
C677   C680    1.407   .     A
C678   O734    1.306   .     A
C678   O733    1.306   .     A
C678   C704    1.456   .     S
C679   C681    1.407   .     A
C680   C693    1.491   .     S
C680   C682    1.416   .     A
C681   C683    1.416   .     A
C681   C694    1.491   .     S
C682   C688    1.421   .     A
C682   C684    1.413   .     A
C683   C685    1.413   .     A
C683   C690    1.421   .     A
C684   C686    1.412   .     A
C684   C19     1.409   1_556 S
C685   C687    1.412   .     A
C686   C699    1.420   .     A
C687   C689    1.420   .     A
C688   C695    1.486   .     S
C688   C23     1.414   1_556 S
C689   C697    1.490   .     S
C690   C696    1.486   .     S
C691   O740    1.221   .     D
C691   H714    1.084   .     S
C692   H715    1.084   .     S
C692   O726    1.221   .     D
C693   O727    1.221   .     D
C693   H716    1.083   .     S
C694   H717    1.082   .     S
C694   O728    1.221   .     D
C695   O729    1.221   .     D
C695   H718    1.082   .     S
C696   O730    1.221   .     D
C696   H708    1.082   .     S
C697   H709    1.077   .     S
C697   O731    1.220   .     D
C698   H710    1.077   .     S
C698   O732    1.220   .     D
C698   C699    1.490   .     S
C699   C24     1.414   1_556 S
C700   H707    1.082   .     S
C700   C850    1.385   1_455 S
C701   C704    1.402   .     A
C701   H711    1.083   .     S
C701   C777    1.385   .     S
C702   H712    1.082   .     S
C702   C704    1.402   .     A
C702   C774    1.385   .     S
C703   H713    1.083   .     S
C703   C849    1.385   1_455 S
Cu705  O734    1.970   .     S
Cu705  N723    2.045   .     S
Cu705  O738    1.957   .     S
Cu705  Cu706   2.721   .     S
Cu705  O725    1.970   .     S
Cu705  O736    1.957   .     S
Cu706  O737    1.957   .     S
Cu706  O739    1.957   .     S
Cu706  O733    1.970   .     S
Cu706  N724    2.045   .     S
Cu706  O735    1.970   .     S
C741   O799    1.306   .     A
C741   C742    1.456   .     S
C741   O809    1.306   .     A
C742   C774    1.402   .     A
C742   C777    1.402   .     A
C743   I793    2.141   .     S
C743   N798    1.379   .     A
C743   C1190   1.431   1_545 S
C744   N797    1.379   .     A
C744   I794    2.144   .     S
C744   C967    1.431   .     S
C745   N798    1.379   .     A
C745   I795    2.141   .     S
C745   C1188   1.431   1_545 S
C746   N797    1.379   .     A
C746   I796    2.144   .     S
C746   C965    1.431   .     S
C747   O810    1.306   .     A
C747   O813    1.302   .     A
C747   C753    1.461   .     S
C748   O812    1.306   .     A
C748   O811    1.302   .     A
C748   C751    1.461   .     S
C749   C765    1.493   .     S
C749   C760    1.419   .     A
C749   C751    1.411   .     A
C750   C761    1.419   .     A
C750   C753    1.411   .     A
C750   C766    1.493   .     S
C751   C754    1.407   .     A
C752   O808    1.306   .     A
C752   O807    1.306   .     A
C752   C778    1.456   .     S
C753   C755    1.407   .     A
C754   C767    1.491   .     S
C754   C756    1.416   .     A
C755   C757    1.416   .     A
C755   C768    1.491   .     S
C756   C762    1.421   .     A
C756   C758    1.413   .     A
C757   C759    1.413   .     A
C757   C764    1.421   .     A
C758   C760    1.412   .     A
C758   C93     1.409   1_556 S
C759   C761    1.412   .     A
C760   C773    1.420   .     A
C761   C763    1.420   .     A
C762   C769    1.486   .     S
C762   C97     1.414   1_556 S
C763   C771    1.490   .     S
C764   C770    1.486   .     S
C765   O814    1.221   .     D
C765   H788    1.084   .     S
C766   H789    1.084   .     S
C766   O800    1.221   .     D
C767   O801    1.221   .     D
C767   H790    1.083   .     S
C768   H791    1.082   .     S
C768   O802    1.221   .     D
C769   O803    1.221   .     D
C769   H792    1.082   .     S
C770   O804    1.221   .     D
C770   H782    1.082   .     S
C771   H783    1.077   .     S
C771   O805    1.220   .     D
C772   H784    1.077   .     S
C772   O806    1.220   .     D
C772   C773    1.490   .     S
C773   C98     1.414   1_556 S
C774   H781    1.082   .     S
C775   C778    1.402   .     A
C775   H785    1.083   .     S
C775   C851    1.385   .     S
C776   H786    1.082   .     S
C776   C778    1.402   .     A
C776   C848    1.385   .     S
C777   H787    1.083   .     S
Cu779  O808    1.970   .     S
Cu779  N797    2.045   .     S
Cu779  O812    1.957   .     S
Cu779  Cu780   2.721   .     S
Cu779  O799    1.970   .     S
Cu779  O810    1.957   .     S
Cu780  O811    1.957   .     S
Cu780  O813    1.957   .     S
Cu780  O807    1.970   .     S
Cu780  N798    2.045   .     S
Cu780  O809    1.970   .     S
C815   O873    1.306   .     A
C815   C816    1.456   .     S
C815   O883    1.306   .     A
C816   C848    1.402   .     A
C816   C851    1.402   .     A
C817   I867    2.141   .     S
C817   N872    1.379   .     A
C817   C1264   1.431   1_545 S
C818   N871    1.379   .     A
C818   I868    2.144   .     S
C818   C1041   1.431   .     S
C819   N872    1.379   .     A
C819   I869    2.141   .     S
C819   C1262   1.431   1_545 S
C820   N871    1.379   .     A
C820   I870    2.144   .     S
C820   C1039   1.431   .     S
C821   O884    1.306   .     A
C821   O887    1.302   .     A
C821   C827    1.461   .     S
C822   O886    1.306   .     A
C822   O885    1.302   .     A
C822   C825    1.461   .     S
C823   C839    1.493   .     S
C823   C834    1.419   .     A
C823   C825    1.411   .     A
C824   C835    1.419   .     A
C824   C827    1.411   .     A
C824   C840    1.493   .     S
C825   C828    1.407   .     A
C826   O882    1.306   .     A
C826   O881    1.306   .     A
C826   C852    1.456   .     S
C827   C829    1.407   .     A
C828   C841    1.491   .     S
C828   C830    1.416   .     A
C829   C831    1.416   .     A
C829   C842    1.491   .     S
C830   C836    1.421   .     A
C830   C832    1.413   .     A
C831   C833    1.413   .     A
C831   C838    1.421   .     A
C832   C834    1.412   .     A
C832   C167    1.409   1_556 S
C833   C835    1.412   .     A
C834   C847    1.420   .     A
C835   C837    1.420   .     A
C836   C843    1.486   .     S
C836   C171    1.414   1_556 S
C837   C845    1.490   .     S
C838   C844    1.486   .     S
C839   O888    1.221   .     D
C839   H862    1.084   .     S
C840   H863    1.084   .     S
C840   O874    1.221   .     D
C841   O875    1.221   .     D
C841   H864    1.083   .     S
C842   H865    1.082   .     S
C842   O876    1.221   .     D
C843   O877    1.221   .     D
C843   H866    1.082   .     S
C844   O878    1.221   .     D
C844   H856    1.082   .     S
C845   H857    1.077   .     S
C845   O879    1.220   .     D
C846   H858    1.077   .     S
C846   O880    1.220   .     D
C846   C847    1.490   .     S
C847   C172    1.414   1_556 S
C848   H855    1.082   .     S
C849   C852    1.402   .     A
C849   H859    1.083   .     S
C849   C703    1.385   1_655 S
C850   H860    1.082   .     S
C850   C852    1.402   .     A
C850   C700    1.385   1_655 S
C851   H861    1.083   .     S
Cu853  O882    1.970   .     S
Cu853  N871    2.045   .     S
Cu853  O886    1.957   .     S
Cu853  Cu854   2.721   .     S
Cu853  O873    1.970   .     S
Cu853  O884    1.957   .     S
Cu854  O885    1.957   .     S
Cu854  O887    1.957   .     S
Cu854  O881    1.970   .     S
Cu854  N872    2.045   .     S
Cu854  O883    1.970   .     S
C889   O947    1.306   .     A
C889   C890    1.456   .     S
C889   O957    1.306   .     A
C890   C922    1.402   .     A
C890   C925    1.402   .     A
C891   I941    2.141   .     S
C891   N946    1.379   .     A
C892   N945    1.379   .     A
C892   I942    2.144   .     S
C892   C1115   1.431   .     S
C893   N946    1.379   .     A
C893   I943    2.141   .     S
C894   N945    1.379   .     A
C894   I944    2.144   .     S
C894   C1113   1.431   .     S
C895   O958    1.306   .     A
C895   O961    1.302   .     A
C895   C901    1.461   .     S
C896   O960    1.306   .     A
C896   O959    1.302   .     A
C896   C899    1.461   .     S
C897   C913    1.493   .     S
C897   C908    1.419   .     A
C897   C899    1.411   .     A
C898   C909    1.419   .     A
C898   C901    1.411   .     A
C898   C914    1.493   .     S
C899   C902    1.407   .     A
C900   O956    1.306   .     A
C900   O955    1.306   .     A
C900   C926    1.456   .     S
C901   C903    1.407   .     A
C902   C915    1.491   .     S
C902   C904    1.416   .     A
C903   C905    1.416   .     A
C903   C916    1.491   .     S
C904   C910    1.421   .     A
C904   C906    1.413   .     A
C905   C907    1.413   .     A
C905   C912    1.421   .     A
C906   C908    1.412   .     A
C906   C241    1.409   1_556 S
C907   C909    1.412   .     A
C908   C921    1.420   .     A
C909   C911    1.420   .     A
C910   C917    1.486   .     S
C910   C245    1.414   1_556 S
C911   C919    1.490   .     S
C912   C918    1.486   .     S
C913   O962    1.221   .     D
C913   H936    1.084   .     S
C914   H937    1.084   .     S
C914   O948    1.221   .     D
C915   O949    1.221   .     D
C915   H938    1.083   .     S
C916   H939    1.082   .     S
C916   O950    1.221   .     D
C917   O951    1.221   .     D
C917   H940    1.082   .     S
C918   O952    1.221   .     D
C918   H930    1.082   .     S
C919   H931    1.077   .     S
C919   O953    1.220   .     D
C920   H932    1.077   .     S
C920   O954    1.220   .     D
C920   C921    1.490   .     S
C921   C246    1.414   1_556 S
C922   H929    1.082   .     S
C922   C1072   1.385   1_455 S
C923   C926    1.402   .     A
C923   H933    1.083   .     S
C923   C999    1.385   .     S
C924   H934    1.082   .     S
C924   C926    1.402   .     A
C924   C996    1.385   .     S
C925   H935    1.083   .     S
C925   C1071   1.385   1_455 S
Cu927  O956    1.970   .     S
Cu927  N945    2.045   .     S
Cu927  O960    1.957   .     S
Cu927  Cu928   2.721   .     S
Cu927  O947    1.970   .     S
Cu927  O958    1.957   .     S
Cu928  O959    1.957   .     S
Cu928  O961    1.957   .     S
Cu928  O955    1.970   .     S
Cu928  N946    2.045   .     S
Cu928  O957    1.970   .     S
C963   O1021   1.306   .     A
C963   C964    1.456   .     S
C963   O1031   1.306   .     A
C964   C996    1.402   .     A
C964   C999    1.402   .     A
C965   I1015   2.141   .     S
C965   N1020   1.379   .     A
C966   N1019   1.379   .     A
C966   I1016   2.144   .     S
C966   C1189   1.431   .     S
C967   N1020   1.379   .     A
C967   I1017   2.141   .     S
C968   N1019   1.379   .     A
C968   I1018   2.144   .     S
C968   C1187   1.431   .     S
C969   O1032   1.306   .     A
C969   O1035   1.302   .     A
C969   C975    1.461   .     S
C970   O1034   1.306   .     A
C970   O1033   1.302   .     A
C970   C973    1.461   .     S
C971   C987    1.493   .     S
C971   C982    1.419   .     A
C971   C973    1.411   .     A
C972   C983    1.419   .     A
C972   C975    1.411   .     A
C972   C988    1.493   .     S
C973   C976    1.407   .     A
C974   O1030   1.306   .     A
C974   O1029   1.306   .     A
C974   C1000   1.456   .     S
C975   C977    1.407   .     A
C976   C989    1.491   .     S
C976   C978    1.416   .     A
C977   C979    1.416   .     A
C977   C990    1.491   .     S
C978   C984    1.421   .     A
C978   C980    1.413   .     A
C979   C981    1.413   .     A
C979   C986    1.421   .     A
C980   C982    1.412   .     A
C980   C315    1.409   1_556 S
C981   C983    1.412   .     A
C982   C995    1.420   .     A
C983   C985    1.420   .     A
C984   C991    1.486   .     S
C984   C319    1.414   1_556 S
C985   C993    1.490   .     S
C986   C992    1.486   .     S
C987   O1036   1.221   .     D
C987   H1010   1.084   .     S
C988   H1011   1.084   .     S
C988   O1022   1.221   .     D
C989   O1023   1.221   .     D
C989   H1012   1.083   .     S
C990   H1013   1.082   .     S
C990   O1024   1.221   .     D
C991   O1025   1.221   .     D
C991   H1014   1.082   .     S
C992   O1026   1.221   .     D
C992   H1004   1.082   .     S
C993   H1005   1.077   .     S
C993   O1027   1.220   .     D
C994   H1006   1.077   .     S
C994   O1028   1.220   .     D
C994   C995    1.490   .     S
C995   C320    1.414   1_556 S
C996   H1003   1.082   .     S
C997   C1000   1.402   .     A
C997   H1007   1.083   .     S
C997   C1073   1.385   .     S
C998   H1008   1.082   .     S
C998   C1000   1.402   .     A
C998   C1070   1.385   .     S
C999   H1009   1.083   .     S
Cu1001 O1030   1.970   .     S
Cu1001 N1019   2.045   .     S
Cu1001 O1034   1.957   .     S
Cu1001 Cu1002  2.721   .     S
Cu1001 O1021   1.970   .     S
Cu1001 O1032   1.957   .     S
Cu1002 O1033   1.957   .     S
Cu1002 O1035   1.957   .     S
Cu1002 O1029   1.970   .     S
Cu1002 N1020   2.045   .     S
Cu1002 O1031   1.970   .     S
C1037  O1095   1.306   .     A
C1037  C1038   1.456   .     S
C1037  O1105   1.306   .     A
C1038  C1070   1.402   .     A
C1038  C1073   1.402   .     A
C1039  I1089   2.141   .     S
C1039  N1094   1.379   .     A
C1040  N1093   1.379   .     A
C1040  I1090   2.144   .     S
C1040  C1263   1.431   .     S
C1041  N1094   1.379   .     A
C1041  I1091   2.141   .     S
C1042  N1093   1.379   .     A
C1042  I1092   2.144   .     S
C1042  C1261   1.431   .     S
C1043  O1106   1.306   .     A
C1043  O1109   1.302   .     A
C1043  C1049   1.461   .     S
C1044  O1108   1.306   .     A
C1044  O1107   1.302   .     A
C1044  C1047   1.461   .     S
C1045  C1061   1.493   .     S
C1045  C1056   1.419   .     A
C1045  C1047   1.411   .     A
C1046  C1057   1.419   .     A
C1046  C1049   1.411   .     A
C1046  C1062   1.493   .     S
C1047  C1050   1.407   .     A
C1048  O1104   1.306   .     A
C1048  O1103   1.306   .     A
C1048  C1074   1.456   .     S
C1049  C1051   1.407   .     A
C1050  C1063   1.491   .     S
C1050  C1052   1.416   .     A
C1051  C1053   1.416   .     A
C1051  C1064   1.491   .     S
C1052  C1058   1.421   .     A
C1052  C1054   1.413   .     A
C1053  C1055   1.413   .     A
C1053  C1060   1.421   .     A
C1054  C1056   1.412   .     A
C1054  C389    1.409   1_556 S
C1055  C1057   1.412   .     A
C1056  C1069   1.420   .     A
C1057  C1059   1.420   .     A
C1058  C1065   1.486   .     S
C1058  C393    1.414   1_556 S
C1059  C1067   1.490   .     S
C1060  C1066   1.486   .     S
C1061  O1110   1.221   .     D
C1061  H1084   1.084   .     S
C1062  H1085   1.084   .     S
C1062  O1096   1.221   .     D
C1063  O1097   1.221   .     D
C1063  H1086   1.083   .     S
C1064  H1087   1.082   .     S
C1064  O1098   1.221   .     D
C1065  O1099   1.221   .     D
C1065  H1088   1.082   .     S
C1066  O1100   1.221   .     D
C1066  H1078   1.082   .     S
C1067  H1079   1.077   .     S
C1067  O1101   1.220   .     D
C1068  H1080   1.077   .     S
C1068  O1102   1.220   .     D
C1068  C1069   1.490   .     S
C1069  C394    1.414   1_556 S
C1070  H1077   1.082   .     S
C1071  C1074   1.402   .     A
C1071  H1081   1.083   .     S
C1071  C925    1.385   1_655 S
C1072  H1082   1.082   .     S
C1072  C1074   1.402   .     A
C1072  C922    1.385   1_655 S
C1073  H1083   1.083   .     S
Cu1075 O1104   1.970   .     S
Cu1075 N1093   2.045   .     S
Cu1075 O1108   1.957   .     S
Cu1075 Cu1076  2.721   .     S
Cu1075 O1095   1.970   .     S
Cu1075 O1106   1.957   .     S
Cu1076 O1107   1.957   .     S
Cu1076 O1109   1.957   .     S
Cu1076 O1103   1.970   .     S
Cu1076 N1094   2.045   .     S
Cu1076 O1105   1.970   .     S
C1111  O1169   1.306   .     A
C1111  C1112   1.456   .     S
C1111  O1179   1.306   .     A
C1112  C1144   1.402   .     A
C1112  C1147   1.402   .     A
C1113  I1163   2.141   .     S
C1113  N1168   1.379   .     A
C1114  N1167   1.379   .     A
C1114  I1164   2.144   .     S
C1114  C671    1.431   1_565 S
C1115  N1168   1.379   .     A
C1115  I1165   2.141   .     S
C1116  N1167   1.379   .     A
C1116  I1166   2.144   .     S
C1116  C669    1.431   1_565 S
C1117  O1180   1.306   .     A
C1117  O1183   1.302   .     A
C1117  C1123   1.461   .     S
C1118  O1182   1.306   .     A
C1118  O1181   1.302   .     A
C1118  C1121   1.461   .     S
C1119  C1135   1.493   .     S
C1119  C1130   1.419   .     A
C1119  C1121   1.411   .     A
C1120  C1131   1.419   .     A
C1120  C1123   1.411   .     A
C1120  C1136   1.493   .     S
C1121  C1124   1.407   .     A
C1122  O1178   1.306   .     A
C1122  O1177   1.306   .     A
C1122  C1148   1.456   .     S
C1123  C1125   1.407   .     A
C1124  C1137   1.491   .     S
C1124  C1126   1.416   .     A
C1125  C1127   1.416   .     A
C1125  C1138   1.491   .     S
C1126  C1132   1.421   .     A
C1126  C1128   1.413   .     A
C1127  C1129   1.413   .     A
C1127  C1134   1.421   .     A
C1128  C1130   1.412   .     A
C1128  C463    1.409   1_556 S
C1129  C1131   1.412   .     A
C1130  C1143   1.420   .     A
C1131  C1133   1.420   .     A
C1132  C1139   1.486   .     S
C1132  C467    1.414   1_556 S
C1133  C1141   1.490   .     S
C1134  C1140   1.486   .     S
C1135  O1184   1.221   .     D
C1135  H1158   1.084   .     S
C1136  H1159   1.084   .     S
C1136  O1170   1.221   .     D
C1137  O1171   1.221   .     D
C1137  H1160   1.083   .     S
C1138  H1161   1.082   .     S
C1138  O1172   1.221   .     D
C1139  O1173   1.221   .     D
C1139  H1162   1.082   .     S
C1140  O1174   1.221   .     D
C1140  H1152   1.082   .     S
C1141  H1153   1.077   .     S
C1141  O1175   1.220   .     D
C1142  H1154   1.077   .     S
C1142  O1176   1.220   .     D
C1142  C1143   1.490   .     S
C1143  C468    1.414   1_556 S
C1144  H1151   1.082   .     S
C1144  C1294   1.385   1_455 S
C1145  C1148   1.402   .     A
C1145  H1155   1.083   .     S
C1145  C1221   1.385   .     S
C1146  H1156   1.082   .     S
C1146  C1148   1.402   .     A
C1146  C1218   1.385   .     S
C1147  H1157   1.083   .     S
C1147  C1293   1.385   1_455 S
Cu1149 O1178   1.970   .     S
Cu1149 N1167   2.045   .     S
Cu1149 O1182   1.957   .     S
Cu1149 Cu1150  2.721   .     S
Cu1149 O1169   1.970   .     S
Cu1149 O1180   1.957   .     S
Cu1150 O1181   1.957   .     S
Cu1150 O1183   1.957   .     S
Cu1150 O1177   1.970   .     S
Cu1150 N1168   2.045   .     S
Cu1150 O1179   1.970   .     S
C1185  O1243   1.306   .     A
C1185  C1186   1.456   .     S
C1185  O1253   1.306   .     A
C1186  C1218   1.402   .     A
C1186  C1221   1.402   .     A
C1187  I1237   2.141   .     S
C1187  N1242   1.379   .     A
C1188  N1241   1.379   .     A
C1188  I1238   2.144   .     S
C1188  C745    1.431   1_565 S
C1189  N1242   1.379   .     A
C1189  I1239   2.141   .     S
C1190  N1241   1.379   .     A
C1190  I1240   2.144   .     S
C1190  C743    1.431   1_565 S
C1191  O1254   1.306   .     A
C1191  O1257   1.302   .     A
C1191  C1197   1.461   .     S
C1192  O1256   1.306   .     A
C1192  O1255   1.302   .     A
C1192  C1195   1.461   .     S
C1193  C1209   1.493   .     S
C1193  C1204   1.419   .     A
C1193  C1195   1.411   .     A
C1194  C1205   1.419   .     A
C1194  C1197   1.411   .     A
C1194  C1210   1.493   .     S
C1195  C1198   1.407   .     A
C1196  O1252   1.306   .     A
C1196  O1251   1.306   .     A
C1196  C1222   1.456   .     S
C1197  C1199   1.407   .     A
C1198  C1211   1.491   .     S
C1198  C1200   1.416   .     A
C1199  C1201   1.416   .     A
C1199  C1212   1.491   .     S
C1200  C1206   1.421   .     A
C1200  C1202   1.413   .     A
C1201  C1203   1.413   .     A
C1201  C1208   1.421   .     A
C1202  C1204   1.412   .     A
C1202  C537    1.409   1_556 S
C1203  C1205   1.412   .     A
C1204  C1217   1.420   .     A
C1205  C1207   1.420   .     A
C1206  C1213   1.486   .     S
C1206  C541    1.414   1_556 S
C1207  C1215   1.490   .     S
C1208  C1214   1.486   .     S
C1209  O1258   1.221   .     D
C1209  H1232   1.084   .     S
C1210  H1233   1.084   .     S
C1210  O1244   1.221   .     D
C1211  O1245   1.221   .     D
C1211  H1234   1.083   .     S
C1212  H1235   1.082   .     S
C1212  O1246   1.221   .     D
C1213  O1247   1.221   .     D
C1213  H1236   1.082   .     S
C1214  O1248   1.221   .     D
C1214  H1226   1.082   .     S
C1215  H1227   1.077   .     S
C1215  O1249   1.220   .     D
C1216  H1228   1.077   .     S
C1216  O1250   1.220   .     D
C1216  C1217   1.490   .     S
C1217  C542    1.414   1_556 S
C1218  H1225   1.082   .     S
C1219  C1222   1.402   .     A
C1219  H1229   1.083   .     S
C1219  C1295   1.385   .     S
C1220  H1230   1.082   .     S
C1220  C1222   1.402   .     A
C1220  C1292   1.385   .     S
C1221  H1231   1.083   .     S
Cu1223 O1252   1.970   .     S
Cu1223 N1241   2.045   .     S
Cu1223 O1256   1.957   .     S
Cu1223 Cu1224  2.721   .     S
Cu1223 O1243   1.970   .     S
Cu1223 O1254   1.957   .     S
Cu1224 O1255   1.957   .     S
Cu1224 O1257   1.957   .     S
Cu1224 O1251   1.970   .     S
Cu1224 N1242   2.045   .     S
Cu1224 O1253   1.970   .     S
C1259  O1317   1.306   .     A
C1259  C1260   1.456   .     S
C1259  O1327   1.306   .     A
C1260  C1292   1.402   .     A
C1260  C1295   1.402   .     A
C1261  I1311   2.141   .     S
C1261  N1316   1.379   .     A
C1262  N1315   1.379   .     A
C1262  I1312   2.144   .     S
C1262  C819    1.431   1_565 S
C1263  N1316   1.379   .     A
C1263  I1313   2.141   .     S
C1264  N1315   1.379   .     A
C1264  I1314   2.144   .     S
C1264  C817    1.431   1_565 S
C1265  O1328   1.306   .     A
C1265  O1331   1.302   .     A
C1265  C1271   1.461   .     S
C1266  O1330   1.306   .     A
C1266  O1329   1.302   .     A
C1266  C1269   1.461   .     S
C1267  C1283   1.493   .     S
C1267  C1278   1.419   .     A
C1267  C1269   1.411   .     A
C1268  C1279   1.419   .     A
C1268  C1271   1.411   .     A
C1268  C1284   1.493   .     S
C1269  C1272   1.407   .     A
C1270  O1326   1.306   .     A
C1270  O1325   1.306   .     A
C1270  C1296   1.456   .     S
C1271  C1273   1.407   .     A
C1272  C1285   1.491   .     S
C1272  C1274   1.416   .     A
C1273  C1275   1.416   .     A
C1273  C1286   1.491   .     S
C1274  C1280   1.421   .     A
C1274  C1276   1.413   .     A
C1275  C1277   1.413   .     A
C1275  C1282   1.421   .     A
C1276  C1278   1.412   .     A
C1276  C611    1.409   1_556 S
C1277  C1279   1.412   .     A
C1278  C1291   1.420   .     A
C1279  C1281   1.420   .     A
C1280  C1287   1.486   .     S
C1280  C615    1.414   1_556 S
C1281  C1289   1.490   .     S
C1282  C1288   1.486   .     S
C1283  O1332   1.221   .     D
C1283  H1306   1.084   .     S
C1284  H1307   1.084   .     S
C1284  O1318   1.221   .     D
C1285  O1319   1.221   .     D
C1285  H1308   1.083   .     S
C1286  H1309   1.082   .     S
C1286  O1320   1.221   .     D
C1287  O1321   1.221   .     D
C1287  H1310   1.082   .     S
C1288  O1322   1.221   .     D
C1288  H1300   1.082   .     S
C1289  H1301   1.077   .     S
C1289  O1323   1.220   .     D
C1290  H1302   1.077   .     S
C1290  O1324   1.220   .     D
C1290  C1291   1.490   .     S
C1291  C616    1.414   1_556 S
C1292  H1299   1.082   .     S
C1293  C1296   1.402   .     A
C1293  H1303   1.083   .     S
C1293  C1147   1.385   1_655 S
C1294  H1304   1.082   .     S
C1294  C1296   1.402   .     A
C1294  C1144   1.385   1_655 S
C1295  H1305   1.083   .     S
Cu1297 O1326   1.970   .     S
Cu1297 N1315   2.045   .     S
Cu1297 O1330   1.957   .     S
Cu1297 Cu1298  2.721   .     S
Cu1297 O1317   1.970   .     S
Cu1297 O1328   1.957   .     S
Cu1298 O1329   1.957   .     S
Cu1298 O1331   1.957   .     S
Cu1298 O1325   1.970   .     S
Cu1298 N1316   2.045   .     S
Cu1298 O1327   1.970   .     S
