data_str_m1_o10_o16_pcu_sym.187
_audit_creation_date              2020-01-03
_audit_creation_method            'Materials Studio'
_symmetry_space_group_name_H-M    'P1'
_symmetry_Int_Tables_number       1
_symmetry_cell_setting            triclinic
loop_
_symmetry_equiv_pos_as_xyz
  x,y,z
_cell_length_a                    32.6604
_cell_length_b                    32.4887
_cell_length_c                    30.9493
_cell_angle_alpha                 96.5652
_cell_angle_beta                  75.2741
_cell_angle_gamma                 98.4757
loop_
_atom_site_label
_atom_site_type_symbol
_atom_site_fract_x
_atom_site_fract_y
_atom_site_fract_z
_atom_site_U_iso_or_equiv
_atom_site_adp_type
_atom_site_occupancy
C1     C     0.05309   0.15991   0.25938   0.00000  Uiso   1.00
C2     C     0.17811   0.16505   0.05694   0.00000  Uiso   1.00
C3     C     0.19856   0.09794   0.06338   0.00000  Uiso   1.00
C4     C     0.28061   0.17360   0.24036   0.00000  Uiso   1.00
C5     C     0.14011   0.19141   0.42039   0.00000  Uiso   1.00
C6     C     0.32601   0.17605   0.23765   0.00000  Uiso   1.00
C7     C     0.00802   0.15592   0.26466   0.00000  Uiso   1.00
C8     C     0.18044   0.32246   0.23671   0.00000  Uiso   1.00
C9     C     0.15191   0.01169   0.26381   0.00000  Uiso   1.00
C10    C     0.15612   0.05582   0.26021   0.00000  Uiso   1.00
C11    C     0.17656   0.27785   0.24022   0.00000  Uiso   1.00
C12    C     0.11984   0.23882   0.48633   0.00000  Uiso   1.00
C13    C     0.18508   0.14784   0.12942   0.00000  Uiso   1.00
C14    C     0.14794   0.18390   0.37112   0.00000  Uiso   1.00
C15    C     0.19283   0.08420   0.02095   0.00000  Uiso   1.00
C16    C     0.19098   0.13823   0.08146   0.00000  Uiso   1.00
C17    C     0.12609   0.22940   0.44046   0.00000  Uiso   1.00
C18    C     0.08114   0.19280   0.07777   0.00000  Uiso   1.00
C19    C     0.03996   0.21073   0.07902   0.00000  Uiso   1.00
C20    C     0.00060   0.18177   0.10043   0.00000  Uiso   1.00
C21    C     0.12962   0.21175   0.01309   0.00000  Uiso   1.00
C22    C     0.14928   0.17551   0.49273   0.00000  Uiso   1.00
C23    C     0.14884   0.16286   0.44738   0.00000  Uiso   1.00
C24    C     0.16772   0.15053   0.01590   0.00000  Uiso   1.00
C25    C     0.17689   0.10980   0.49698   0.00000  Uiso   1.00
C26    C     0.16903   0.09517   0.45507   0.00000  Uiso   1.00
C27    C     0.15550   0.12154   0.43076   0.00000  Uiso   1.00
Cl28   Cl    0.31124   0.12329   0.30661   0.00000  Uiso   1.00
Cl29   Cl    0.17632   0.04405   0.43084   0.00000  Uiso   1.00
H30    H     0.20768   0.07667   0.08281   0.00000  Uiso   1.00
H31    H     0.08220   0.18920   0.11274   0.00000  Uiso   1.00
H32    H     0.08077   0.16078   0.06033   0.00000  Uiso   1.00
H33    H     0.03978   0.24167   0.09852   0.00000  Uiso   1.00
H34    H     0.03842   0.21504   0.04440   0.00000  Uiso   1.00
H35    H     0.33266   0.15118   0.08039   0.00000  Uiso   1.00
H36    H     0.30470   0.19599   0.10174   0.00000  Uiso   1.00
H37    H     0.00128   0.17669   0.13508   0.00000  Uiso   1.00
H38    H     0.20676   0.00376   0.21185   0.00000  Uiso   1.00
H39    H     0.12516   0.33118   0.28870   0.00000  Uiso   1.00
H40    H     0.19947   0.05289   0.00797   0.00000  Uiso   1.00
H41    H     0.17520   0.19659   0.07141   0.00000  Uiso   1.00
H42    H     0.11922   0.25178   0.42068   0.00000  Uiso   1.00
H43    H     0.10653   0.26717   0.00150   0.00000  Uiso   1.00
H44    H     0.14862   0.10834   0.39939   0.00000  Uiso   1.00
H45    H     0.01458   0.19505   0.21277   0.00000  Uiso   1.00
O46    O     0.16667   0.16667   0.25000   0.00000  Uiso   1.00
O47    O     0.15451   0.12637   0.15459   0.00000  Uiso   1.00
O48    O     0.12940   0.20391   0.34968   0.00000  Uiso   1.00
O49    O     0.20824   0.17759   0.14606   0.00000  Uiso   1.00
O50    O     0.17451   0.15880   0.34968   0.00000  Uiso   1.00
O51    O     0.11739   0.22065   0.05905   0.00000  Uiso   1.00
O52    O     0.17930   0.08019   0.28214   0.00000  Uiso   1.00
O53    O     0.14632   0.26085   0.27014   0.00000  Uiso   1.00
O54    O     0.07412   0.13291   0.23413   0.00000  Uiso   1.00
O55    O     0.26693   0.19272   0.21361   0.00000  Uiso   1.00
O56    O     0.07071   0.18878   0.28213   0.00000  Uiso   1.00
O57    O     0.25491   0.15226   0.27014   0.00000  Uiso   1.00
O58    O     0.13760   0.06944   0.23413   0.00000  Uiso   1.00
O59    O     0.20345   0.25620   0.21361   0.00000  Uiso   1.00
Zn60   Zn    0.19338   0.13994   0.28734   0.00000  Uiso   1.00
Zn61   Zn    0.13379   0.12458   0.21876   0.00000  Uiso   1.00
Zn62   Zn    0.21056   0.19775   0.20657   0.00000  Uiso   1.00
Zn63   Zn    0.12893   0.20439   0.28734   0.00000  Uiso   1.00
C64    C     0.38642   0.15991   0.25938   0.00000  Uiso   1.00
C65    C     0.51144   0.16505   0.05694   0.00000  Uiso   1.00
C66    C     0.53189   0.09794   0.06338   0.00000  Uiso   1.00
C67    C     0.61395   0.17360   0.24036   0.00000  Uiso   1.00
C68    C     0.47345   0.19141   0.42039   0.00000  Uiso   1.00
C69    C     0.65934   0.17605   0.23765   0.00000  Uiso   1.00
C70    C     0.34136   0.15592   0.26466   0.00000  Uiso   1.00
C71    C     0.51377   0.32246   0.23671   0.00000  Uiso   1.00
C72    C     0.48524   0.01169   0.26381   0.00000  Uiso   1.00
C73    C     0.48946   0.05582   0.26021   0.00000  Uiso   1.00
C74    C     0.50989   0.27785   0.24022   0.00000  Uiso   1.00
C75    C     0.45317   0.23882   0.48633   0.00000  Uiso   1.00
C76    C     0.51841   0.14784   0.12942   0.00000  Uiso   1.00
C77    C     0.48127   0.18390   0.37112   0.00000  Uiso   1.00
C78    C     0.52616   0.08420   0.02095   0.00000  Uiso   1.00
C79    C     0.52431   0.13823   0.08146   0.00000  Uiso   1.00
C80    C     0.45943   0.22940   0.44046   0.00000  Uiso   1.00
C81    C     0.41448   0.19280   0.07777   0.00000  Uiso   1.00
C82    C     0.37329   0.21073   0.07902   0.00000  Uiso   1.00
C83    C     0.33394   0.18177   0.10043   0.00000  Uiso   1.00
C84    C     0.46295   0.21175   0.01309   0.00000  Uiso   1.00
C85    C     0.48262   0.17551   0.49273   0.00000  Uiso   1.00
C86    C     0.48217   0.16286   0.44738   0.00000  Uiso   1.00
C87    C     0.50105   0.15053   0.01590   0.00000  Uiso   1.00
C88    C     0.51023   0.10980   0.49698   0.00000  Uiso   1.00
C89    C     0.50236   0.09517   0.45507   0.00000  Uiso   1.00
C90    C     0.48883   0.12154   0.43076   0.00000  Uiso   1.00
Cl91   Cl    0.64458   0.12329   0.30661   0.00000  Uiso   1.00
Cl92   Cl    0.50965   0.04405   0.43084   0.00000  Uiso   1.00
H93    H     0.54101   0.07667   0.08281   0.00000  Uiso   1.00
H94    H     0.41553   0.18920   0.11274   0.00000  Uiso   1.00
H95    H     0.41411   0.16078   0.06033   0.00000  Uiso   1.00
H96    H     0.37311   0.24167   0.09852   0.00000  Uiso   1.00
H97    H     0.37175   0.21504   0.04440   0.00000  Uiso   1.00
H98    H     0.66600   0.15118   0.08039   0.00000  Uiso   1.00
H99    H     0.63803   0.19599   0.10174   0.00000  Uiso   1.00
H100   H     0.33462   0.17669   0.13508   0.00000  Uiso   1.00
H101   H     0.54009   0.00376   0.21185   0.00000  Uiso   1.00
H102   H     0.45849   0.33118   0.28870   0.00000  Uiso   1.00
H103   H     0.53280   0.05289   0.00797   0.00000  Uiso   1.00
H104   H     0.50853   0.19659   0.07141   0.00000  Uiso   1.00
H105   H     0.45255   0.25178   0.42068   0.00000  Uiso   1.00
H106   H     0.43987   0.26717   0.00150   0.00000  Uiso   1.00
H107   H     0.48195   0.10834   0.39939   0.00000  Uiso   1.00
H108   H     0.34792   0.19505   0.21277   0.00000  Uiso   1.00
O109   O     0.50000   0.16667   0.25000   0.00000  Uiso   1.00
O110   O     0.48784   0.12637   0.15459   0.00000  Uiso   1.00
O111   O     0.46274   0.20391   0.34968   0.00000  Uiso   1.00
O112   O     0.54157   0.17759   0.14606   0.00000  Uiso   1.00
O113   O     0.50785   0.15880   0.34968   0.00000  Uiso   1.00
O114   O     0.45072   0.22065   0.05905   0.00000  Uiso   1.00
O115   O     0.51264   0.08019   0.28214   0.00000  Uiso   1.00
O116   O     0.47965   0.26085   0.27014   0.00000  Uiso   1.00
O117   O     0.40745   0.13291   0.23413   0.00000  Uiso   1.00
O118   O     0.60026   0.19272   0.21361   0.00000  Uiso   1.00
O119   O     0.40405   0.18878   0.28213   0.00000  Uiso   1.00
O120   O     0.58824   0.15226   0.27014   0.00000  Uiso   1.00
O121   O     0.47093   0.06944   0.23413   0.00000  Uiso   1.00
O122   O     0.53678   0.25620   0.21361   0.00000  Uiso   1.00
Zn123  Zn    0.52672   0.13994   0.28734   0.00000  Uiso   1.00
Zn124  Zn    0.46713   0.12458   0.21876   0.00000  Uiso   1.00
Zn125  Zn    0.54389   0.19775   0.20657   0.00000  Uiso   1.00
Zn126  Zn    0.46226   0.20439   0.28734   0.00000  Uiso   1.00
C127   C     0.71975   0.15991   0.25938   0.00000  Uiso   1.00
C128   C     0.84478   0.16505   0.05694   0.00000  Uiso   1.00
C129   C     0.86522   0.09794   0.06338   0.00000  Uiso   1.00
C130   C     0.94728   0.17360   0.24036   0.00000  Uiso   1.00
C131   C     0.80678   0.19141   0.42039   0.00000  Uiso   1.00
C132   C     0.99267   0.17605   0.23765   0.00000  Uiso   1.00
C133   C     0.67469   0.15592   0.26466   0.00000  Uiso   1.00
C134   C     0.84710   0.32246   0.23671   0.00000  Uiso   1.00
C135   C     0.81857   0.01169   0.26381   0.00000  Uiso   1.00
C136   C     0.82279   0.05582   0.26021   0.00000  Uiso   1.00
C137   C     0.84323   0.27785   0.24022   0.00000  Uiso   1.00
C138   C     0.78651   0.23882   0.48633   0.00000  Uiso   1.00
C139   C     0.85174   0.14784   0.12942   0.00000  Uiso   1.00
C140   C     0.81461   0.18390   0.37112   0.00000  Uiso   1.00
C141   C     0.85950   0.08420   0.02095   0.00000  Uiso   1.00
C142   C     0.85765   0.13823   0.08146   0.00000  Uiso   1.00
C143   C     0.79276   0.22940   0.44046   0.00000  Uiso   1.00
C144   C     0.74781   0.19280   0.07777   0.00000  Uiso   1.00
C145   C     0.70662   0.21073   0.07902   0.00000  Uiso   1.00
C146   C     0.66727   0.18177   0.10043   0.00000  Uiso   1.00
C147   C     0.79629   0.21175   0.01309   0.00000  Uiso   1.00
C148   C     0.81595   0.17551   0.49273   0.00000  Uiso   1.00
C149   C     0.81550   0.16286   0.44738   0.00000  Uiso   1.00
C150   C     0.83439   0.15053   0.01590   0.00000  Uiso   1.00
C151   C     0.84356   0.10980   0.49698   0.00000  Uiso   1.00
C152   C     0.83569   0.09517   0.45507   0.00000  Uiso   1.00
C153   C     0.82217   0.12154   0.43076   0.00000  Uiso   1.00
Cl154  Cl    0.97791   0.12329   0.30661   0.00000  Uiso   1.00
Cl155  Cl    0.84298   0.04405   0.43084   0.00000  Uiso   1.00
H156   H     0.87434   0.07667   0.08281   0.00000  Uiso   1.00
H157   H     0.74886   0.18920   0.11274   0.00000  Uiso   1.00
H158   H     0.74744   0.16078   0.06033   0.00000  Uiso   1.00
H159   H     0.70644   0.24167   0.09852   0.00000  Uiso   1.00
H160   H     0.70509   0.21504   0.04440   0.00000  Uiso   1.00
H161   H     0.99933   0.15118   0.08039   0.00000  Uiso   1.00
H162   H     0.97136   0.19599   0.10174   0.00000  Uiso   1.00
H163   H     0.66795   0.17669   0.13508   0.00000  Uiso   1.00
H164   H     0.87342   0.00376   0.21185   0.00000  Uiso   1.00
H165   H     0.79182   0.33118   0.28870   0.00000  Uiso   1.00
H166   H     0.86613   0.05289   0.00797   0.00000  Uiso   1.00
H167   H     0.84187   0.19659   0.07141   0.00000  Uiso   1.00
H168   H     0.78588   0.25178   0.42068   0.00000  Uiso   1.00
H169   H     0.77320   0.26717   0.00150   0.00000  Uiso   1.00
H170   H     0.81528   0.10834   0.39939   0.00000  Uiso   1.00
H171   H     0.68125   0.19505   0.21277   0.00000  Uiso   1.00
O172   O     0.83333   0.16667   0.25000   0.00000  Uiso   1.00
O173   O     0.82118   0.12637   0.15459   0.00000  Uiso   1.00
O174   O     0.79607   0.20391   0.34968   0.00000  Uiso   1.00
O175   O     0.87491   0.17759   0.14606   0.00000  Uiso   1.00
O176   O     0.84118   0.15880   0.34968   0.00000  Uiso   1.00
O177   O     0.78405   0.22065   0.05905   0.00000  Uiso   1.00
O178   O     0.84597   0.08019   0.28214   0.00000  Uiso   1.00
O179   O     0.81298   0.26085   0.27014   0.00000  Uiso   1.00
O180   O     0.74078   0.13291   0.23413   0.00000  Uiso   1.00
O181   O     0.93360   0.19272   0.21361   0.00000  Uiso   1.00
O182   O     0.73738   0.18878   0.28213   0.00000  Uiso   1.00
O183   O     0.92158   0.15226   0.27014   0.00000  Uiso   1.00
O184   O     0.80426   0.06944   0.23413   0.00000  Uiso   1.00
O185   O     0.87012   0.25620   0.21361   0.00000  Uiso   1.00
Zn186  Zn    0.86005   0.13994   0.28734   0.00000  Uiso   1.00
Zn187  Zn    0.80046   0.12458   0.21876   0.00000  Uiso   1.00
Zn188  Zn    0.87723   0.19775   0.20657   0.00000  Uiso   1.00
Zn189  Zn    0.79560   0.20439   0.28734   0.00000  Uiso   1.00
C190   C     0.05309   0.49325   0.25938   0.00000  Uiso   1.00
C191   C     0.17811   0.49838   0.05694   0.00000  Uiso   1.00
C192   C     0.19856   0.43128   0.06338   0.00000  Uiso   1.00
C193   C     0.28061   0.50693   0.24036   0.00000  Uiso   1.00
C194   C     0.14011   0.52474   0.42039   0.00000  Uiso   1.00
C195   C     0.32601   0.50939   0.23765   0.00000  Uiso   1.00
C196   C     0.00802   0.48925   0.26466   0.00000  Uiso   1.00
C197   C     0.18044   0.65580   0.23671   0.00000  Uiso   1.00
C198   C     0.15191   0.34502   0.26381   0.00000  Uiso   1.00
C199   C     0.15612   0.38915   0.26021   0.00000  Uiso   1.00
C200   C     0.17656   0.61118   0.24022   0.00000  Uiso   1.00
C201   C     0.11984   0.57215   0.48633   0.00000  Uiso   1.00
C202   C     0.18508   0.48117   0.12942   0.00000  Uiso   1.00
C203   C     0.14794   0.51723   0.37112   0.00000  Uiso   1.00
C204   C     0.19283   0.41753   0.02095   0.00000  Uiso   1.00
C205   C     0.19098   0.47157   0.08146   0.00000  Uiso   1.00
C206   C     0.12609   0.56274   0.44046   0.00000  Uiso   1.00
C207   C     0.08114   0.52614   0.07777   0.00000  Uiso   1.00
C208   C     0.03996   0.54407   0.07902   0.00000  Uiso   1.00
C209   C     0.00060   0.51510   0.10043   0.00000  Uiso   1.00
C210   C     0.12962   0.54509   0.01309   0.00000  Uiso   1.00
C211   C     0.14928   0.50884   0.49273   0.00000  Uiso   1.00
C212   C     0.14884   0.49619   0.44738   0.00000  Uiso   1.00
C213   C     0.16772   0.48386   0.01590   0.00000  Uiso   1.00
C214   C     0.17689   0.44313   0.49698   0.00000  Uiso   1.00
C215   C     0.16903   0.42851   0.45507   0.00000  Uiso   1.00
C216   C     0.15550   0.45487   0.43076   0.00000  Uiso   1.00
Cl217  Cl    0.31124   0.45663   0.30661   0.00000  Uiso   1.00
Cl218  Cl    0.17632   0.37739   0.43084   0.00000  Uiso   1.00
H219   H     0.20768   0.41000   0.08281   0.00000  Uiso   1.00
H220   H     0.08220   0.52254   0.11274   0.00000  Uiso   1.00
H221   H     0.08077   0.49411   0.06033   0.00000  Uiso   1.00
H222   H     0.03978   0.57500   0.09852   0.00000  Uiso   1.00
H223   H     0.03842   0.54837   0.04440   0.00000  Uiso   1.00
H224   H     0.33266   0.48451   0.08039   0.00000  Uiso   1.00
H225   H     0.30470   0.52932   0.10174   0.00000  Uiso   1.00
H226   H     0.00128   0.51002   0.13508   0.00000  Uiso   1.00
H227   H     0.20676   0.33709   0.21185   0.00000  Uiso   1.00
H228   H     0.12516   0.66452   0.28870   0.00000  Uiso   1.00
H229   H     0.19947   0.38623   0.00797   0.00000  Uiso   1.00
H230   H     0.17520   0.52992   0.07141   0.00000  Uiso   1.00
H231   H     0.11922   0.58512   0.42068   0.00000  Uiso   1.00
H232   H     0.10653   0.60050   0.00150   0.00000  Uiso   1.00
H233   H     0.14862   0.44167   0.39939   0.00000  Uiso   1.00
H234   H     0.01458   0.52838   0.21277   0.00000  Uiso   1.00
O235   O     0.16667   0.50000   0.25000   0.00000  Uiso   1.00
O236   O     0.15451   0.45970   0.15459   0.00000  Uiso   1.00
O237   O     0.12940   0.53724   0.34968   0.00000  Uiso   1.00
O238   O     0.20824   0.51092   0.14606   0.00000  Uiso   1.00
O239   O     0.17451   0.49213   0.34968   0.00000  Uiso   1.00
O240   O     0.11739   0.55398   0.05905   0.00000  Uiso   1.00
O241   O     0.17930   0.41352   0.28214   0.00000  Uiso   1.00
O242   O     0.14632   0.59418   0.27014   0.00000  Uiso   1.00
O243   O     0.07412   0.46625   0.23413   0.00000  Uiso   1.00
O244   O     0.26693   0.52605   0.21361   0.00000  Uiso   1.00
O245   O     0.07071   0.52211   0.28213   0.00000  Uiso   1.00
O246   O     0.25491   0.48559   0.27014   0.00000  Uiso   1.00
O247   O     0.13760   0.40277   0.23413   0.00000  Uiso   1.00
O248   O     0.20345   0.58953   0.21361   0.00000  Uiso   1.00
Zn249  Zn    0.19338   0.47327   0.28734   0.00000  Uiso   1.00
Zn250  Zn    0.13379   0.45791   0.21876   0.00000  Uiso   1.00
Zn251  Zn    0.21056   0.53109   0.20657   0.00000  Uiso   1.00
Zn252  Zn    0.12893   0.53773   0.28734   0.00000  Uiso   1.00
C253   C     0.38642   0.49325   0.25938   0.00000  Uiso   1.00
C254   C     0.51144   0.49838   0.05694   0.00000  Uiso   1.00
C255   C     0.53189   0.43128   0.06338   0.00000  Uiso   1.00
C256   C     0.61395   0.50693   0.24036   0.00000  Uiso   1.00
C257   C     0.47345   0.52474   0.42039   0.00000  Uiso   1.00
C258   C     0.65934   0.50939   0.23765   0.00000  Uiso   1.00
C259   C     0.34136   0.48925   0.26466   0.00000  Uiso   1.00
C260   C     0.51377   0.65580   0.23671   0.00000  Uiso   1.00
C261   C     0.48524   0.34502   0.26381   0.00000  Uiso   1.00
C262   C     0.48946   0.38915   0.26021   0.00000  Uiso   1.00
C263   C     0.50989   0.61118   0.24022   0.00000  Uiso   1.00
C264   C     0.45317   0.57215   0.48633   0.00000  Uiso   1.00
C265   C     0.51841   0.48117   0.12942   0.00000  Uiso   1.00
C266   C     0.48127   0.51723   0.37112   0.00000  Uiso   1.00
C267   C     0.52616   0.41753   0.02095   0.00000  Uiso   1.00
C268   C     0.52431   0.47157   0.08146   0.00000  Uiso   1.00
C269   C     0.45943   0.56274   0.44046   0.00000  Uiso   1.00
C270   C     0.41448   0.52614   0.07777   0.00000  Uiso   1.00
C271   C     0.37329   0.54407   0.07902   0.00000  Uiso   1.00
C272   C     0.33394   0.51510   0.10043   0.00000  Uiso   1.00
C273   C     0.46295   0.54509   0.01309   0.00000  Uiso   1.00
C274   C     0.48262   0.50884   0.49273   0.00000  Uiso   1.00
C275   C     0.48217   0.49619   0.44738   0.00000  Uiso   1.00
C276   C     0.50105   0.48386   0.01590   0.00000  Uiso   1.00
C277   C     0.51023   0.44313   0.49698   0.00000  Uiso   1.00
C278   C     0.50236   0.42851   0.45507   0.00000  Uiso   1.00
C279   C     0.48883   0.45487   0.43076   0.00000  Uiso   1.00
Cl280  Cl    0.64458   0.45663   0.30661   0.00000  Uiso   1.00
Cl281  Cl    0.50965   0.37739   0.43084   0.00000  Uiso   1.00
H282   H     0.54101   0.41000   0.08281   0.00000  Uiso   1.00
H283   H     0.41553   0.52254   0.11274   0.00000  Uiso   1.00
H284   H     0.41411   0.49411   0.06033   0.00000  Uiso   1.00
H285   H     0.37311   0.57500   0.09852   0.00000  Uiso   1.00
H286   H     0.37175   0.54837   0.04440   0.00000  Uiso   1.00
H287   H     0.66600   0.48451   0.08039   0.00000  Uiso   1.00
H288   H     0.63803   0.52932   0.10174   0.00000  Uiso   1.00
H289   H     0.33462   0.51002   0.13508   0.00000  Uiso   1.00
H290   H     0.54009   0.33709   0.21185   0.00000  Uiso   1.00
H291   H     0.45849   0.66452   0.28870   0.00000  Uiso   1.00
H292   H     0.53280   0.38623   0.00797   0.00000  Uiso   1.00
H293   H     0.50853   0.52992   0.07141   0.00000  Uiso   1.00
H294   H     0.45255   0.58512   0.42068   0.00000  Uiso   1.00
H295   H     0.43987   0.60050   0.00150   0.00000  Uiso   1.00
H296   H     0.48195   0.44167   0.39939   0.00000  Uiso   1.00
H297   H     0.34792   0.52838   0.21277   0.00000  Uiso   1.00
O298   O     0.50000   0.50000   0.25000   0.00000  Uiso   1.00
O299   O     0.48784   0.45970   0.15459   0.00000  Uiso   1.00
O300   O     0.46274   0.53724   0.34968   0.00000  Uiso   1.00
O301   O     0.54157   0.51092   0.14606   0.00000  Uiso   1.00
O302   O     0.50785   0.49213   0.34968   0.00000  Uiso   1.00
O303   O     0.45072   0.55398   0.05905   0.00000  Uiso   1.00
O304   O     0.51264   0.41352   0.28214   0.00000  Uiso   1.00
O305   O     0.47965   0.59418   0.27014   0.00000  Uiso   1.00
O306   O     0.40745   0.46625   0.23413   0.00000  Uiso   1.00
O307   O     0.60026   0.52605   0.21361   0.00000  Uiso   1.00
O308   O     0.40405   0.52211   0.28213   0.00000  Uiso   1.00
O309   O     0.58824   0.48559   0.27014   0.00000  Uiso   1.00
O310   O     0.47093   0.40277   0.23413   0.00000  Uiso   1.00
O311   O     0.53678   0.58953   0.21361   0.00000  Uiso   1.00
Zn312  Zn    0.52672   0.47327   0.28734   0.00000  Uiso   1.00
Zn313  Zn    0.46713   0.45791   0.21876   0.00000  Uiso   1.00
Zn314  Zn    0.54389   0.53109   0.20657   0.00000  Uiso   1.00
Zn315  Zn    0.46226   0.53773   0.28734   0.00000  Uiso   1.00
C316   C     0.71975   0.49325   0.25938   0.00000  Uiso   1.00
C317   C     0.84478   0.49838   0.05694   0.00000  Uiso   1.00
C318   C     0.86522   0.43128   0.06338   0.00000  Uiso   1.00
C319   C     0.94728   0.50693   0.24036   0.00000  Uiso   1.00
C320   C     0.80678   0.52474   0.42039   0.00000  Uiso   1.00
C321   C     0.99267   0.50939   0.23765   0.00000  Uiso   1.00
C322   C     0.67469   0.48925   0.26466   0.00000  Uiso   1.00
C323   C     0.84710   0.65580   0.23671   0.00000  Uiso   1.00
C324   C     0.81857   0.34502   0.26381   0.00000  Uiso   1.00
C325   C     0.82279   0.38915   0.26021   0.00000  Uiso   1.00
C326   C     0.84323   0.61118   0.24022   0.00000  Uiso   1.00
C327   C     0.78651   0.57215   0.48633   0.00000  Uiso   1.00
C328   C     0.85174   0.48117   0.12942   0.00000  Uiso   1.00
C329   C     0.81461   0.51723   0.37112   0.00000  Uiso   1.00
C330   C     0.85950   0.41753   0.02095   0.00000  Uiso   1.00
C331   C     0.85765   0.47157   0.08146   0.00000  Uiso   1.00
C332   C     0.79276   0.56274   0.44046   0.00000  Uiso   1.00
C333   C     0.74781   0.52614   0.07777   0.00000  Uiso   1.00
C334   C     0.70662   0.54407   0.07902   0.00000  Uiso   1.00
C335   C     0.66727   0.51510   0.10043   0.00000  Uiso   1.00
C336   C     0.79629   0.54509   0.01309   0.00000  Uiso   1.00
C337   C     0.81595   0.50884   0.49273   0.00000  Uiso   1.00
C338   C     0.81550   0.49619   0.44738   0.00000  Uiso   1.00
C339   C     0.83439   0.48386   0.01590   0.00000  Uiso   1.00
C340   C     0.84356   0.44313   0.49698   0.00000  Uiso   1.00
C341   C     0.83569   0.42851   0.45507   0.00000  Uiso   1.00
C342   C     0.82217   0.45487   0.43076   0.00000  Uiso   1.00
Cl343  Cl    0.97791   0.45663   0.30661   0.00000  Uiso   1.00
Cl344  Cl    0.84298   0.37739   0.43084   0.00000  Uiso   1.00
H345   H     0.87434   0.41000   0.08281   0.00000  Uiso   1.00
H346   H     0.74886   0.52254   0.11274   0.00000  Uiso   1.00
H347   H     0.74744   0.49411   0.06033   0.00000  Uiso   1.00
H348   H     0.70644   0.57500   0.09852   0.00000  Uiso   1.00
H349   H     0.70509   0.54837   0.04440   0.00000  Uiso   1.00
H350   H     0.99933   0.48451   0.08039   0.00000  Uiso   1.00
H351   H     0.97136   0.52932   0.10174   0.00000  Uiso   1.00
H352   H     0.66795   0.51002   0.13508   0.00000  Uiso   1.00
H353   H     0.87342   0.33709   0.21185   0.00000  Uiso   1.00
H354   H     0.79182   0.66452   0.28870   0.00000  Uiso   1.00
H355   H     0.86613   0.38623   0.00797   0.00000  Uiso   1.00
H356   H     0.84187   0.52992   0.07141   0.00000  Uiso   1.00
H357   H     0.78588   0.58512   0.42068   0.00000  Uiso   1.00
H358   H     0.77320   0.60050   0.00150   0.00000  Uiso   1.00
H359   H     0.81528   0.44167   0.39939   0.00000  Uiso   1.00
H360   H     0.68125   0.52838   0.21277   0.00000  Uiso   1.00
O361   O     0.83333   0.50000   0.25000   0.00000  Uiso   1.00
O362   O     0.82118   0.45970   0.15459   0.00000  Uiso   1.00
O363   O     0.79607   0.53724   0.34968   0.00000  Uiso   1.00
O364   O     0.87491   0.51092   0.14606   0.00000  Uiso   1.00
O365   O     0.84118   0.49213   0.34968   0.00000  Uiso   1.00
O366   O     0.78405   0.55398   0.05905   0.00000  Uiso   1.00
O367   O     0.84597   0.41352   0.28214   0.00000  Uiso   1.00
O368   O     0.81298   0.59418   0.27014   0.00000  Uiso   1.00
O369   O     0.74078   0.46625   0.23413   0.00000  Uiso   1.00
O370   O     0.93360   0.52605   0.21361   0.00000  Uiso   1.00
O371   O     0.73738   0.52211   0.28213   0.00000  Uiso   1.00
O372   O     0.92158   0.48559   0.27014   0.00000  Uiso   1.00
O373   O     0.80426   0.40277   0.23413   0.00000  Uiso   1.00
O374   O     0.87012   0.58953   0.21361   0.00000  Uiso   1.00
Zn375  Zn    0.86005   0.47327   0.28734   0.00000  Uiso   1.00
Zn376  Zn    0.80046   0.45791   0.21876   0.00000  Uiso   1.00
Zn377  Zn    0.87723   0.53109   0.20657   0.00000  Uiso   1.00
Zn378  Zn    0.79560   0.53773   0.28734   0.00000  Uiso   1.00
C379   C     0.05309   0.82658   0.25938   0.00000  Uiso   1.00
C380   C     0.17811   0.83172   0.05694   0.00000  Uiso   1.00
C381   C     0.19856   0.76461   0.06338   0.00000  Uiso   1.00
C382   C     0.28061   0.84027   0.24036   0.00000  Uiso   1.00
C383   C     0.14011   0.85808   0.42039   0.00000  Uiso   1.00
C384   C     0.32601   0.84272   0.23765   0.00000  Uiso   1.00
C385   C     0.00802   0.82258   0.26466   0.00000  Uiso   1.00
C386   C     0.18044   0.98913   0.23671   0.00000  Uiso   1.00
C387   C     0.15191   0.67835   0.26381   0.00000  Uiso   1.00
C388   C     0.15612   0.72248   0.26021   0.00000  Uiso   1.00
C389   C     0.17656   0.94451   0.24022   0.00000  Uiso   1.00
C390   C     0.11984   0.90548   0.48633   0.00000  Uiso   1.00
C391   C     0.18508   0.81450   0.12942   0.00000  Uiso   1.00
C392   C     0.14794   0.85056   0.37112   0.00000  Uiso   1.00
C393   C     0.19283   0.75086   0.02095   0.00000  Uiso   1.00
C394   C     0.19098   0.80490   0.08146   0.00000  Uiso   1.00
C395   C     0.12609   0.89607   0.44046   0.00000  Uiso   1.00
C396   C     0.08114   0.85947   0.07777   0.00000  Uiso   1.00
C397   C     0.03996   0.87740   0.07902   0.00000  Uiso   1.00
C398   C     0.00060   0.84843   0.10043   0.00000  Uiso   1.00
C399   C     0.12962   0.87842   0.01309   0.00000  Uiso   1.00
C400   C     0.14928   0.84218   0.49273   0.00000  Uiso   1.00
C401   C     0.14884   0.82952   0.44738   0.00000  Uiso   1.00
C402   C     0.16772   0.81720   0.01590   0.00000  Uiso   1.00
C403   C     0.17689   0.77646   0.49698   0.00000  Uiso   1.00
C404   C     0.16903   0.76184   0.45507   0.00000  Uiso   1.00
C405   C     0.15550   0.78821   0.43076   0.00000  Uiso   1.00
Cl406  Cl    0.31124   0.78996   0.30661   0.00000  Uiso   1.00
Cl407  Cl    0.17632   0.71072   0.43084   0.00000  Uiso   1.00
H408   H     0.20768   0.74334   0.08281   0.00000  Uiso   1.00
H409   H     0.08220   0.85587   0.11274   0.00000  Uiso   1.00
H410   H     0.08077   0.82744   0.06033   0.00000  Uiso   1.00
H411   H     0.03978   0.90833   0.09852   0.00000  Uiso   1.00
H412   H     0.03842   0.88171   0.04440   0.00000  Uiso   1.00
H413   H     0.33266   0.81785   0.08039   0.00000  Uiso   1.00
H414   H     0.30470   0.86266   0.10174   0.00000  Uiso   1.00
H415   H     0.00128   0.84336   0.13508   0.00000  Uiso   1.00
H416   H     0.20676   0.67042   0.21185   0.00000  Uiso   1.00
H417   H     0.12516   0.99785   0.28870   0.00000  Uiso   1.00
H418   H     0.19947   0.71956   0.00797   0.00000  Uiso   1.00
H419   H     0.17520   0.86326   0.07141   0.00000  Uiso   1.00
H420   H     0.11922   0.91845   0.42068   0.00000  Uiso   1.00
H421   H     0.10653   0.93384   0.00150   0.00000  Uiso   1.00
H422   H     0.14862   0.77500   0.39939   0.00000  Uiso   1.00
H423   H     0.01458   0.86172   0.21277   0.00000  Uiso   1.00
O424   O     0.16667   0.83333   0.25000   0.00000  Uiso   1.00
O425   O     0.15451   0.79304   0.15459   0.00000  Uiso   1.00
O426   O     0.12940   0.87058   0.34968   0.00000  Uiso   1.00
O427   O     0.20824   0.84425   0.14606   0.00000  Uiso   1.00
O428   O     0.17451   0.82546   0.34968   0.00000  Uiso   1.00
O429   O     0.11739   0.88732   0.05905   0.00000  Uiso   1.00
O430   O     0.17930   0.74686   0.28214   0.00000  Uiso   1.00
O431   O     0.14632   0.92751   0.27014   0.00000  Uiso   1.00
O432   O     0.07412   0.79958   0.23413   0.00000  Uiso   1.00
O433   O     0.26693   0.85939   0.21361   0.00000  Uiso   1.00
O434   O     0.07071   0.85544   0.28213   0.00000  Uiso   1.00
O435   O     0.25491   0.81892   0.27014   0.00000  Uiso   1.00
O436   O     0.13760   0.73610   0.23413   0.00000  Uiso   1.00
O437   O     0.20345   0.92286   0.21361   0.00000  Uiso   1.00
Zn438  Zn    0.19338   0.80661   0.28734   0.00000  Uiso   1.00
Zn439  Zn    0.13379   0.79124   0.21876   0.00000  Uiso   1.00
Zn440  Zn    0.21056   0.86442   0.20657   0.00000  Uiso   1.00
Zn441  Zn    0.12893   0.87106   0.28734   0.00000  Uiso   1.00
C442   C     0.38642   0.82658   0.25938   0.00000  Uiso   1.00
C443   C     0.51144   0.83172   0.05694   0.00000  Uiso   1.00
C444   C     0.53189   0.76461   0.06338   0.00000  Uiso   1.00
C445   C     0.61395   0.84027   0.24036   0.00000  Uiso   1.00
C446   C     0.47345   0.85808   0.42039   0.00000  Uiso   1.00
C447   C     0.65934   0.84272   0.23765   0.00000  Uiso   1.00
C448   C     0.34136   0.82258   0.26466   0.00000  Uiso   1.00
C449   C     0.51377   0.98913   0.23671   0.00000  Uiso   1.00
C450   C     0.48524   0.67835   0.26381   0.00000  Uiso   1.00
C451   C     0.48946   0.72248   0.26021   0.00000  Uiso   1.00
C452   C     0.50989   0.94451   0.24022   0.00000  Uiso   1.00
C453   C     0.45317   0.90548   0.48633   0.00000  Uiso   1.00
C454   C     0.51841   0.81450   0.12942   0.00000  Uiso   1.00
C455   C     0.48127   0.85056   0.37112   0.00000  Uiso   1.00
C456   C     0.52616   0.75086   0.02095   0.00000  Uiso   1.00
C457   C     0.52431   0.80490   0.08146   0.00000  Uiso   1.00
C458   C     0.45943   0.89607   0.44046   0.00000  Uiso   1.00
C459   C     0.41448   0.85947   0.07777   0.00000  Uiso   1.00
C460   C     0.37329   0.87740   0.07902   0.00000  Uiso   1.00
C461   C     0.33394   0.84843   0.10043   0.00000  Uiso   1.00
C462   C     0.46295   0.87842   0.01309   0.00000  Uiso   1.00
C463   C     0.48262   0.84218   0.49273   0.00000  Uiso   1.00
C464   C     0.48217   0.82952   0.44738   0.00000  Uiso   1.00
C465   C     0.50105   0.81720   0.01590   0.00000  Uiso   1.00
C466   C     0.51023   0.77646   0.49698   0.00000  Uiso   1.00
C467   C     0.50236   0.76184   0.45507   0.00000  Uiso   1.00
C468   C     0.48883   0.78821   0.43076   0.00000  Uiso   1.00
Cl469  Cl    0.64458   0.78996   0.30661   0.00000  Uiso   1.00
Cl470  Cl    0.50965   0.71072   0.43084   0.00000  Uiso   1.00
H471   H     0.54101   0.74334   0.08281   0.00000  Uiso   1.00
H472   H     0.41553   0.85587   0.11274   0.00000  Uiso   1.00
H473   H     0.41411   0.82744   0.06033   0.00000  Uiso   1.00
H474   H     0.37311   0.90833   0.09852   0.00000  Uiso   1.00
H475   H     0.37175   0.88171   0.04440   0.00000  Uiso   1.00
H476   H     0.66600   0.81785   0.08039   0.00000  Uiso   1.00
H477   H     0.63803   0.86266   0.10174   0.00000  Uiso   1.00
H478   H     0.33462   0.84336   0.13508   0.00000  Uiso   1.00
H479   H     0.54009   0.67042   0.21185   0.00000  Uiso   1.00
H480   H     0.45849   0.99785   0.28870   0.00000  Uiso   1.00
H481   H     0.53280   0.71956   0.00797   0.00000  Uiso   1.00
H482   H     0.50853   0.86326   0.07141   0.00000  Uiso   1.00
H483   H     0.45255   0.91845   0.42068   0.00000  Uiso   1.00
H484   H     0.43987   0.93384   0.00150   0.00000  Uiso   1.00
H485   H     0.48195   0.77500   0.39939   0.00000  Uiso   1.00
H486   H     0.34792   0.86172   0.21277   0.00000  Uiso   1.00
O487   O     0.50000   0.83333   0.25000   0.00000  Uiso   1.00
O488   O     0.48784   0.79304   0.15459   0.00000  Uiso   1.00
O489   O     0.46274   0.87058   0.34968   0.00000  Uiso   1.00
O490   O     0.54157   0.84425   0.14606   0.00000  Uiso   1.00
O491   O     0.50785   0.82546   0.34968   0.00000  Uiso   1.00
O492   O     0.45072   0.88732   0.05905   0.00000  Uiso   1.00
O493   O     0.51264   0.74686   0.28214   0.00000  Uiso   1.00
O494   O     0.47965   0.92751   0.27014   0.00000  Uiso   1.00
O495   O     0.40745   0.79958   0.23413   0.00000  Uiso   1.00
O496   O     0.60026   0.85939   0.21361   0.00000  Uiso   1.00
O497   O     0.40405   0.85544   0.28213   0.00000  Uiso   1.00
O498   O     0.58824   0.81892   0.27014   0.00000  Uiso   1.00
O499   O     0.47093   0.73610   0.23413   0.00000  Uiso   1.00
O500   O     0.53678   0.92286   0.21361   0.00000  Uiso   1.00
Zn501  Zn    0.52672   0.80661   0.28734   0.00000  Uiso   1.00
Zn502  Zn    0.46713   0.79124   0.21876   0.00000  Uiso   1.00
Zn503  Zn    0.54389   0.86442   0.20657   0.00000  Uiso   1.00
Zn504  Zn    0.46226   0.87106   0.28734   0.00000  Uiso   1.00
C505   C     0.71975   0.82658   0.25938   0.00000  Uiso   1.00
C506   C     0.84478   0.83172   0.05694   0.00000  Uiso   1.00
C507   C     0.86522   0.76461   0.06338   0.00000  Uiso   1.00
C508   C     0.94728   0.84027   0.24036   0.00000  Uiso   1.00
C509   C     0.80678   0.85808   0.42039   0.00000  Uiso   1.00
C510   C     0.99267   0.84272   0.23765   0.00000  Uiso   1.00
C511   C     0.67469   0.82258   0.26466   0.00000  Uiso   1.00
C512   C     0.84710   0.98913   0.23671   0.00000  Uiso   1.00
C513   C     0.81857   0.67835   0.26381   0.00000  Uiso   1.00
C514   C     0.82279   0.72248   0.26021   0.00000  Uiso   1.00
C515   C     0.84323   0.94451   0.24022   0.00000  Uiso   1.00
C516   C     0.78651   0.90548   0.48633   0.00000  Uiso   1.00
C517   C     0.85174   0.81450   0.12942   0.00000  Uiso   1.00
C518   C     0.81461   0.85056   0.37112   0.00000  Uiso   1.00
C519   C     0.85950   0.75086   0.02095   0.00000  Uiso   1.00
C520   C     0.85765   0.80490   0.08146   0.00000  Uiso   1.00
C521   C     0.79276   0.89607   0.44046   0.00000  Uiso   1.00
C522   C     0.74781   0.85947   0.07777   0.00000  Uiso   1.00
C523   C     0.70662   0.87740   0.07902   0.00000  Uiso   1.00
C524   C     0.66727   0.84843   0.10043   0.00000  Uiso   1.00
C525   C     0.79629   0.87842   0.01309   0.00000  Uiso   1.00
C526   C     0.81595   0.84218   0.49273   0.00000  Uiso   1.00
C527   C     0.81550   0.82952   0.44738   0.00000  Uiso   1.00
C528   C     0.83439   0.81720   0.01590   0.00000  Uiso   1.00
C529   C     0.84356   0.77646   0.49698   0.00000  Uiso   1.00
C530   C     0.83569   0.76184   0.45507   0.00000  Uiso   1.00
C531   C     0.82217   0.78821   0.43076   0.00000  Uiso   1.00
Cl532  Cl    0.97791   0.78996   0.30661   0.00000  Uiso   1.00
Cl533  Cl    0.84298   0.71072   0.43084   0.00000  Uiso   1.00
H534   H     0.87434   0.74334   0.08281   0.00000  Uiso   1.00
H535   H     0.74886   0.85587   0.11274   0.00000  Uiso   1.00
H536   H     0.74744   0.82744   0.06033   0.00000  Uiso   1.00
H537   H     0.70644   0.90833   0.09852   0.00000  Uiso   1.00
H538   H     0.70509   0.88171   0.04440   0.00000  Uiso   1.00
H539   H     0.99933   0.81785   0.08039   0.00000  Uiso   1.00
H540   H     0.97136   0.86266   0.10174   0.00000  Uiso   1.00
H541   H     0.66795   0.84336   0.13508   0.00000  Uiso   1.00
H542   H     0.87342   0.67042   0.21185   0.00000  Uiso   1.00
H543   H     0.79182   0.99785   0.28870   0.00000  Uiso   1.00
H544   H     0.86613   0.71956   0.00797   0.00000  Uiso   1.00
H545   H     0.84187   0.86326   0.07141   0.00000  Uiso   1.00
H546   H     0.78588   0.91845   0.42068   0.00000  Uiso   1.00
H547   H     0.77320   0.93384   0.00150   0.00000  Uiso   1.00
H548   H     0.81528   0.77500   0.39939   0.00000  Uiso   1.00
H549   H     0.68125   0.86172   0.21277   0.00000  Uiso   1.00
O550   O     0.83333   0.83333   0.25000   0.00000  Uiso   1.00
O551   O     0.82118   0.79304   0.15459   0.00000  Uiso   1.00
O552   O     0.79607   0.87058   0.34968   0.00000  Uiso   1.00
O553   O     0.87491   0.84425   0.14606   0.00000  Uiso   1.00
O554   O     0.84118   0.82546   0.34968   0.00000  Uiso   1.00
O555   O     0.78405   0.88732   0.05905   0.00000  Uiso   1.00
O556   O     0.84597   0.74686   0.28214   0.00000  Uiso   1.00
O557   O     0.81298   0.92751   0.27014   0.00000  Uiso   1.00
O558   O     0.74078   0.79958   0.23413   0.00000  Uiso   1.00
O559   O     0.93360   0.85939   0.21361   0.00000  Uiso   1.00
O560   O     0.73738   0.85544   0.28213   0.00000  Uiso   1.00
O561   O     0.92158   0.81892   0.27014   0.00000  Uiso   1.00
O562   O     0.80426   0.73610   0.23413   0.00000  Uiso   1.00
O563   O     0.87012   0.92286   0.21361   0.00000  Uiso   1.00
Zn564  Zn    0.86005   0.80661   0.28734   0.00000  Uiso   1.00
Zn565  Zn    0.80046   0.79124   0.21876   0.00000  Uiso   1.00
Zn566  Zn    0.87723   0.86442   0.20657   0.00000  Uiso   1.00
Zn567  Zn    0.79560   0.87106   0.28734   0.00000  Uiso   1.00
C568   C     0.05309   0.15991   0.75938   0.00000  Uiso   1.00
C569   C     0.17811   0.16505   0.55694   0.00000  Uiso   1.00
C570   C     0.19856   0.09794   0.56338   0.00000  Uiso   1.00
C571   C     0.28061   0.17360   0.74036   0.00000  Uiso   1.00
C572   C     0.14011   0.19141   0.92039   0.00000  Uiso   1.00
C573   C     0.32601   0.17605   0.73765   0.00000  Uiso   1.00
C574   C     0.00802   0.15592   0.76466   0.00000  Uiso   1.00
C575   C     0.18044   0.32246   0.73671   0.00000  Uiso   1.00
C576   C     0.15191   0.01169   0.76381   0.00000  Uiso   1.00
C577   C     0.15612   0.05582   0.76021   0.00000  Uiso   1.00
C578   C     0.17656   0.27785   0.74022   0.00000  Uiso   1.00
C579   C     0.11984   0.23882   0.98633   0.00000  Uiso   1.00
C580   C     0.18508   0.14784   0.62942   0.00000  Uiso   1.00
C581   C     0.14794   0.18390   0.87112   0.00000  Uiso   1.00
C582   C     0.19283   0.08420   0.52095   0.00000  Uiso   1.00
C583   C     0.19098   0.13823   0.58146   0.00000  Uiso   1.00
C584   C     0.12609   0.22940   0.94046   0.00000  Uiso   1.00
C585   C     0.08114   0.19280   0.57777   0.00000  Uiso   1.00
C586   C     0.03996   0.21073   0.57902   0.00000  Uiso   1.00
C587   C     0.00060   0.18177   0.60043   0.00000  Uiso   1.00
C588   C     0.12962   0.21175   0.51309   0.00000  Uiso   1.00
C589   C     0.14928   0.17551   0.99273   0.00000  Uiso   1.00
C590   C     0.14884   0.16286   0.94738   0.00000  Uiso   1.00
C591   C     0.16772   0.15053   0.51590   0.00000  Uiso   1.00
C592   C     0.17689   0.10980   0.99698   0.00000  Uiso   1.00
C593   C     0.16903   0.09517   0.95507   0.00000  Uiso   1.00
C594   C     0.15550   0.12154   0.93076   0.00000  Uiso   1.00
Cl595  Cl    0.31124   0.12329   0.80661   0.00000  Uiso   1.00
Cl596  Cl    0.17632   0.04405   0.93084   0.00000  Uiso   1.00
H597   H     0.20768   0.07667   0.58281   0.00000  Uiso   1.00
H598   H     0.08220   0.18920   0.61274   0.00000  Uiso   1.00
H599   H     0.08077   0.16078   0.56033   0.00000  Uiso   1.00
H600   H     0.03978   0.24167   0.59852   0.00000  Uiso   1.00
H601   H     0.03842   0.21504   0.54440   0.00000  Uiso   1.00
H602   H     0.33266   0.15118   0.58039   0.00000  Uiso   1.00
H603   H     0.30470   0.19599   0.60174   0.00000  Uiso   1.00
H604   H     0.00128   0.17669   0.63508   0.00000  Uiso   1.00
H605   H     0.20676   0.00376   0.71185   0.00000  Uiso   1.00
H606   H     0.12516   0.33118   0.78870   0.00000  Uiso   1.00
H607   H     0.19947   0.05289   0.50797   0.00000  Uiso   1.00
H608   H     0.17520   0.19659   0.57141   0.00000  Uiso   1.00
H609   H     0.11922   0.25178   0.92068   0.00000  Uiso   1.00
H610   H     0.10653   0.26717   0.50150   0.00000  Uiso   1.00
H611   H     0.14862   0.10834   0.89939   0.00000  Uiso   1.00
H612   H     0.01458   0.19505   0.71277   0.00000  Uiso   1.00
O613   O     0.16667   0.16667   0.75000   0.00000  Uiso   1.00
O614   O     0.15451   0.12637   0.65459   0.00000  Uiso   1.00
O615   O     0.12940   0.20391   0.84968   0.00000  Uiso   1.00
O616   O     0.20824   0.17759   0.64606   0.00000  Uiso   1.00
O617   O     0.17451   0.15880   0.84968   0.00000  Uiso   1.00
O618   O     0.11739   0.22065   0.55905   0.00000  Uiso   1.00
O619   O     0.17930   0.08019   0.78214   0.00000  Uiso   1.00
O620   O     0.14632   0.26085   0.77014   0.00000  Uiso   1.00
O621   O     0.07412   0.13291   0.73413   0.00000  Uiso   1.00
O622   O     0.26693   0.19272   0.71361   0.00000  Uiso   1.00
O623   O     0.07071   0.18878   0.78213   0.00000  Uiso   1.00
O624   O     0.25491   0.15226   0.77014   0.00000  Uiso   1.00
O625   O     0.13760   0.06944   0.73413   0.00000  Uiso   1.00
O626   O     0.20345   0.25620   0.71361   0.00000  Uiso   1.00
Zn627  Zn    0.19338   0.13994   0.78734   0.00000  Uiso   1.00
Zn628  Zn    0.13379   0.12458   0.71876   0.00000  Uiso   1.00
Zn629  Zn    0.21056   0.19775   0.70657   0.00000  Uiso   1.00
Zn630  Zn    0.12893   0.20439   0.78734   0.00000  Uiso   1.00
C631   C     0.38642   0.15991   0.75938   0.00000  Uiso   1.00
C632   C     0.51144   0.16505   0.55694   0.00000  Uiso   1.00
C633   C     0.53189   0.09794   0.56338   0.00000  Uiso   1.00
C634   C     0.61395   0.17360   0.74036   0.00000  Uiso   1.00
C635   C     0.47345   0.19141   0.92039   0.00000  Uiso   1.00
C636   C     0.65934   0.17605   0.73765   0.00000  Uiso   1.00
C637   C     0.34136   0.15592   0.76466   0.00000  Uiso   1.00
C638   C     0.51377   0.32246   0.73671   0.00000  Uiso   1.00
C639   C     0.48524   0.01169   0.76381   0.00000  Uiso   1.00
C640   C     0.48946   0.05582   0.76021   0.00000  Uiso   1.00
C641   C     0.50989   0.27785   0.74022   0.00000  Uiso   1.00
C642   C     0.45317   0.23882   0.98633   0.00000  Uiso   1.00
C643   C     0.51841   0.14784   0.62942   0.00000  Uiso   1.00
C644   C     0.48127   0.18390   0.87112   0.00000  Uiso   1.00
C645   C     0.52616   0.08420   0.52095   0.00000  Uiso   1.00
C646   C     0.52431   0.13823   0.58146   0.00000  Uiso   1.00
C647   C     0.45943   0.22940   0.94046   0.00000  Uiso   1.00
C648   C     0.41448   0.19280   0.57777   0.00000  Uiso   1.00
C649   C     0.37329   0.21073   0.57902   0.00000  Uiso   1.00
C650   C     0.33394   0.18177   0.60043   0.00000  Uiso   1.00
C651   C     0.46295   0.21175   0.51309   0.00000  Uiso   1.00
C652   C     0.48262   0.17551   0.99273   0.00000  Uiso   1.00
C653   C     0.48217   0.16286   0.94738   0.00000  Uiso   1.00
C654   C     0.50105   0.15053   0.51590   0.00000  Uiso   1.00
C655   C     0.51023   0.10980   0.99698   0.00000  Uiso   1.00
C656   C     0.50236   0.09517   0.95507   0.00000  Uiso   1.00
C657   C     0.48883   0.12154   0.93076   0.00000  Uiso   1.00
Cl658  Cl    0.64458   0.12329   0.80661   0.00000  Uiso   1.00
Cl659  Cl    0.50965   0.04405   0.93084   0.00000  Uiso   1.00
H660   H     0.54101   0.07667   0.58281   0.00000  Uiso   1.00
H661   H     0.41553   0.18920   0.61274   0.00000  Uiso   1.00
H662   H     0.41411   0.16078   0.56033   0.00000  Uiso   1.00
H663   H     0.37311   0.24167   0.59852   0.00000  Uiso   1.00
H664   H     0.37175   0.21504   0.54440   0.00000  Uiso   1.00
H665   H     0.66600   0.15118   0.58039   0.00000  Uiso   1.00
H666   H     0.63803   0.19599   0.60174   0.00000  Uiso   1.00
H667   H     0.33462   0.17669   0.63508   0.00000  Uiso   1.00
H668   H     0.54009   0.00376   0.71185   0.00000  Uiso   1.00
H669   H     0.45849   0.33118   0.78870   0.00000  Uiso   1.00
H670   H     0.53280   0.05289   0.50797   0.00000  Uiso   1.00
H671   H     0.50853   0.19659   0.57141   0.00000  Uiso   1.00
H672   H     0.45255   0.25178   0.92068   0.00000  Uiso   1.00
H673   H     0.43987   0.26717   0.50150   0.00000  Uiso   1.00
H674   H     0.48195   0.10834   0.89939   0.00000  Uiso   1.00
H675   H     0.34792   0.19505   0.71277   0.00000  Uiso   1.00
O676   O     0.50000   0.16667   0.75000   0.00000  Uiso   1.00
O677   O     0.48784   0.12637   0.65459   0.00000  Uiso   1.00
O678   O     0.46274   0.20391   0.84968   0.00000  Uiso   1.00
O679   O     0.54157   0.17759   0.64606   0.00000  Uiso   1.00
O680   O     0.50785   0.15880   0.84968   0.00000  Uiso   1.00
O681   O     0.45072   0.22065   0.55905   0.00000  Uiso   1.00
O682   O     0.51264   0.08019   0.78214   0.00000  Uiso   1.00
O683   O     0.47965   0.26085   0.77014   0.00000  Uiso   1.00
O684   O     0.40745   0.13291   0.73413   0.00000  Uiso   1.00
O685   O     0.60026   0.19272   0.71361   0.00000  Uiso   1.00
O686   O     0.40405   0.18878   0.78213   0.00000  Uiso   1.00
O687   O     0.58824   0.15226   0.77014   0.00000  Uiso   1.00
O688   O     0.47093   0.06944   0.73413   0.00000  Uiso   1.00
O689   O     0.53678   0.25620   0.71361   0.00000  Uiso   1.00
Zn690  Zn    0.52672   0.13994   0.78734   0.00000  Uiso   1.00
Zn691  Zn    0.46713   0.12458   0.71876   0.00000  Uiso   1.00
Zn692  Zn    0.54389   0.19775   0.70657   0.00000  Uiso   1.00
Zn693  Zn    0.46226   0.20439   0.78734   0.00000  Uiso   1.00
C694   C     0.71975   0.15991   0.75938   0.00000  Uiso   1.00
C695   C     0.84478   0.16505   0.55694   0.00000  Uiso   1.00
C696   C     0.86522   0.09794   0.56338   0.00000  Uiso   1.00
C697   C     0.94728   0.17360   0.74036   0.00000  Uiso   1.00
C698   C     0.80678   0.19141   0.92039   0.00000  Uiso   1.00
C699   C     0.99267   0.17605   0.73765   0.00000  Uiso   1.00
C700   C     0.67469   0.15592   0.76466   0.00000  Uiso   1.00
C701   C     0.84710   0.32246   0.73671   0.00000  Uiso   1.00
C702   C     0.81857   0.01169   0.76381   0.00000  Uiso   1.00
C703   C     0.82279   0.05582   0.76021   0.00000  Uiso   1.00
C704   C     0.84323   0.27785   0.74022   0.00000  Uiso   1.00
C705   C     0.78651   0.23882   0.98633   0.00000  Uiso   1.00
C706   C     0.85174   0.14784   0.62942   0.00000  Uiso   1.00
C707   C     0.81461   0.18390   0.87112   0.00000  Uiso   1.00
C708   C     0.85950   0.08420   0.52095   0.00000  Uiso   1.00
C709   C     0.85765   0.13823   0.58146   0.00000  Uiso   1.00
C710   C     0.79276   0.22940   0.94046   0.00000  Uiso   1.00
C711   C     0.74781   0.19280   0.57777   0.00000  Uiso   1.00
C712   C     0.70662   0.21073   0.57902   0.00000  Uiso   1.00
C713   C     0.66727   0.18177   0.60043   0.00000  Uiso   1.00
C714   C     0.79629   0.21175   0.51309   0.00000  Uiso   1.00
C715   C     0.81595   0.17551   0.99273   0.00000  Uiso   1.00
C716   C     0.81550   0.16286   0.94738   0.00000  Uiso   1.00
C717   C     0.83439   0.15053   0.51590   0.00000  Uiso   1.00
C718   C     0.84356   0.10980   0.99698   0.00000  Uiso   1.00
C719   C     0.83569   0.09517   0.95507   0.00000  Uiso   1.00
C720   C     0.82217   0.12154   0.93076   0.00000  Uiso   1.00
Cl721  Cl    0.97791   0.12329   0.80661   0.00000  Uiso   1.00
Cl722  Cl    0.84298   0.04405   0.93084   0.00000  Uiso   1.00
H723   H     0.87434   0.07667   0.58281   0.00000  Uiso   1.00
H724   H     0.74886   0.18920   0.61274   0.00000  Uiso   1.00
H725   H     0.74744   0.16078   0.56033   0.00000  Uiso   1.00
H726   H     0.70644   0.24167   0.59852   0.00000  Uiso   1.00
H727   H     0.70509   0.21504   0.54440   0.00000  Uiso   1.00
H728   H     0.99933   0.15118   0.58039   0.00000  Uiso   1.00
H729   H     0.97136   0.19599   0.60174   0.00000  Uiso   1.00
H730   H     0.66795   0.17669   0.63508   0.00000  Uiso   1.00
H731   H     0.87342   0.00376   0.71185   0.00000  Uiso   1.00
H732   H     0.79182   0.33118   0.78870   0.00000  Uiso   1.00
H733   H     0.86613   0.05289   0.50797   0.00000  Uiso   1.00
H734   H     0.84187   0.19659   0.57141   0.00000  Uiso   1.00
H735   H     0.78588   0.25178   0.92068   0.00000  Uiso   1.00
H736   H     0.77320   0.26717   0.50150   0.00000  Uiso   1.00
H737   H     0.81528   0.10834   0.89939   0.00000  Uiso   1.00
H738   H     0.68125   0.19505   0.71277   0.00000  Uiso   1.00
O739   O     0.83333   0.16667   0.75000   0.00000  Uiso   1.00
O740   O     0.82118   0.12637   0.65459   0.00000  Uiso   1.00
O741   O     0.79607   0.20391   0.84968   0.00000  Uiso   1.00
O742   O     0.87491   0.17759   0.64606   0.00000  Uiso   1.00
O743   O     0.84118   0.15880   0.84968   0.00000  Uiso   1.00
O744   O     0.78405   0.22065   0.55905   0.00000  Uiso   1.00
O745   O     0.84597   0.08019   0.78214   0.00000  Uiso   1.00
O746   O     0.81298   0.26085   0.77014   0.00000  Uiso   1.00
O747   O     0.74078   0.13291   0.73413   0.00000  Uiso   1.00
O748   O     0.93360   0.19272   0.71361   0.00000  Uiso   1.00
O749   O     0.73738   0.18878   0.78213   0.00000  Uiso   1.00
O750   O     0.92158   0.15226   0.77014   0.00000  Uiso   1.00
O751   O     0.80426   0.06944   0.73413   0.00000  Uiso   1.00
O752   O     0.87012   0.25620   0.71361   0.00000  Uiso   1.00
Zn753  Zn    0.86005   0.13994   0.78734   0.00000  Uiso   1.00
Zn754  Zn    0.80046   0.12458   0.71876   0.00000  Uiso   1.00
Zn755  Zn    0.87723   0.19775   0.70657   0.00000  Uiso   1.00
Zn756  Zn    0.79560   0.20439   0.78734   0.00000  Uiso   1.00
C757   C     0.05309   0.49325   0.75938   0.00000  Uiso   1.00
C758   C     0.17811   0.49838   0.55694   0.00000  Uiso   1.00
C759   C     0.19856   0.43128   0.56338   0.00000  Uiso   1.00
C760   C     0.28061   0.50693   0.74036   0.00000  Uiso   1.00
C761   C     0.14011   0.52474   0.92039   0.00000  Uiso   1.00
C762   C     0.32601   0.50939   0.73765   0.00000  Uiso   1.00
C763   C     0.00802   0.48925   0.76466   0.00000  Uiso   1.00
C764   C     0.18044   0.65580   0.73671   0.00000  Uiso   1.00
C765   C     0.15191   0.34502   0.76381   0.00000  Uiso   1.00
C766   C     0.15612   0.38915   0.76021   0.00000  Uiso   1.00
C767   C     0.17656   0.61118   0.74022   0.00000  Uiso   1.00
C768   C     0.11984   0.57215   0.98633   0.00000  Uiso   1.00
C769   C     0.18508   0.48117   0.62942   0.00000  Uiso   1.00
C770   C     0.14794   0.51723   0.87112   0.00000  Uiso   1.00
C771   C     0.19283   0.41753   0.52095   0.00000  Uiso   1.00
C772   C     0.19098   0.47157   0.58146   0.00000  Uiso   1.00
C773   C     0.12609   0.56274   0.94046   0.00000  Uiso   1.00
C774   C     0.08114   0.52614   0.57777   0.00000  Uiso   1.00
C775   C     0.03996   0.54407   0.57902   0.00000  Uiso   1.00
C776   C     0.00060   0.51510   0.60043   0.00000  Uiso   1.00
C777   C     0.12962   0.54509   0.51309   0.00000  Uiso   1.00
C778   C     0.14928   0.50884   0.99273   0.00000  Uiso   1.00
C779   C     0.14884   0.49619   0.94738   0.00000  Uiso   1.00
C780   C     0.16772   0.48386   0.51590   0.00000  Uiso   1.00
C781   C     0.17689   0.44313   0.99698   0.00000  Uiso   1.00
C782   C     0.16903   0.42851   0.95507   0.00000  Uiso   1.00
C783   C     0.15550   0.45487   0.93076   0.00000  Uiso   1.00
Cl784  Cl    0.31124   0.45663   0.80661   0.00000  Uiso   1.00
Cl785  Cl    0.17632   0.37739   0.93084   0.00000  Uiso   1.00
H786   H     0.20768   0.41000   0.58281   0.00000  Uiso   1.00
H787   H     0.08220   0.52254   0.61274   0.00000  Uiso   1.00
H788   H     0.08077   0.49411   0.56033   0.00000  Uiso   1.00
H789   H     0.03978   0.57500   0.59852   0.00000  Uiso   1.00
H790   H     0.03842   0.54837   0.54440   0.00000  Uiso   1.00
H791   H     0.33266   0.48451   0.58039   0.00000  Uiso   1.00
H792   H     0.30470   0.52932   0.60174   0.00000  Uiso   1.00
H793   H     0.00128   0.51002   0.63508   0.00000  Uiso   1.00
H794   H     0.20676   0.33709   0.71185   0.00000  Uiso   1.00
H795   H     0.12516   0.66452   0.78870   0.00000  Uiso   1.00
H796   H     0.19947   0.38623   0.50797   0.00000  Uiso   1.00
H797   H     0.17520   0.52992   0.57141   0.00000  Uiso   1.00
H798   H     0.11922   0.58512   0.92068   0.00000  Uiso   1.00
H799   H     0.10653   0.60050   0.50150   0.00000  Uiso   1.00
H800   H     0.14862   0.44167   0.89939   0.00000  Uiso   1.00
H801   H     0.01458   0.52838   0.71277   0.00000  Uiso   1.00
O802   O     0.16667   0.50000   0.75000   0.00000  Uiso   1.00
O803   O     0.15451   0.45970   0.65459   0.00000  Uiso   1.00
O804   O     0.12940   0.53724   0.84968   0.00000  Uiso   1.00
O805   O     0.20824   0.51092   0.64606   0.00000  Uiso   1.00
O806   O     0.17451   0.49213   0.84968   0.00000  Uiso   1.00
O807   O     0.11739   0.55398   0.55905   0.00000  Uiso   1.00
O808   O     0.17930   0.41352   0.78214   0.00000  Uiso   1.00
O809   O     0.14632   0.59418   0.77014   0.00000  Uiso   1.00
O810   O     0.07412   0.46625   0.73413   0.00000  Uiso   1.00
O811   O     0.26693   0.52605   0.71361   0.00000  Uiso   1.00
O812   O     0.07071   0.52211   0.78213   0.00000  Uiso   1.00
O813   O     0.25491   0.48559   0.77014   0.00000  Uiso   1.00
O814   O     0.13760   0.40277   0.73413   0.00000  Uiso   1.00
O815   O     0.20345   0.58953   0.71361   0.00000  Uiso   1.00
Zn816  Zn    0.19338   0.47327   0.78734   0.00000  Uiso   1.00
Zn817  Zn    0.13379   0.45791   0.71876   0.00000  Uiso   1.00
Zn818  Zn    0.21056   0.53109   0.70657   0.00000  Uiso   1.00
Zn819  Zn    0.12893   0.53773   0.78734   0.00000  Uiso   1.00
C820   C     0.38642   0.49325   0.75938   0.00000  Uiso   1.00
C821   C     0.51144   0.49838   0.55694   0.00000  Uiso   1.00
C822   C     0.53189   0.43128   0.56338   0.00000  Uiso   1.00
C823   C     0.61395   0.50693   0.74036   0.00000  Uiso   1.00
C824   C     0.47345   0.52474   0.92039   0.00000  Uiso   1.00
C825   C     0.65934   0.50939   0.73765   0.00000  Uiso   1.00
C826   C     0.34136   0.48925   0.76466   0.00000  Uiso   1.00
C827   C     0.51377   0.65580   0.73671   0.00000  Uiso   1.00
C828   C     0.48524   0.34502   0.76381   0.00000  Uiso   1.00
C829   C     0.48946   0.38915   0.76021   0.00000  Uiso   1.00
C830   C     0.50989   0.61118   0.74022   0.00000  Uiso   1.00
C831   C     0.45317   0.57215   0.98633   0.00000  Uiso   1.00
C832   C     0.51841   0.48117   0.62942   0.00000  Uiso   1.00
C833   C     0.48127   0.51723   0.87112   0.00000  Uiso   1.00
C834   C     0.52616   0.41753   0.52095   0.00000  Uiso   1.00
C835   C     0.52431   0.47157   0.58146   0.00000  Uiso   1.00
C836   C     0.45943   0.56274   0.94046   0.00000  Uiso   1.00
C837   C     0.41448   0.52614   0.57777   0.00000  Uiso   1.00
C838   C     0.37329   0.54407   0.57902   0.00000  Uiso   1.00
C839   C     0.33394   0.51510   0.60043   0.00000  Uiso   1.00
C840   C     0.46295   0.54509   0.51309   0.00000  Uiso   1.00
C841   C     0.48262   0.50884   0.99273   0.00000  Uiso   1.00
C842   C     0.48217   0.49619   0.94738   0.00000  Uiso   1.00
C843   C     0.50105   0.48386   0.51590   0.00000  Uiso   1.00
C844   C     0.51023   0.44313   0.99698   0.00000  Uiso   1.00
C845   C     0.50236   0.42851   0.95507   0.00000  Uiso   1.00
C846   C     0.48883   0.45487   0.93076   0.00000  Uiso   1.00
Cl847  Cl    0.64458   0.45663   0.80661   0.00000  Uiso   1.00
Cl848  Cl    0.50965   0.37739   0.93084   0.00000  Uiso   1.00
H849   H     0.54101   0.41000   0.58281   0.00000  Uiso   1.00
H850   H     0.41553   0.52254   0.61274   0.00000  Uiso   1.00
H851   H     0.41411   0.49411   0.56033   0.00000  Uiso   1.00
H852   H     0.37311   0.57500   0.59852   0.00000  Uiso   1.00
H853   H     0.37175   0.54837   0.54440   0.00000  Uiso   1.00
H854   H     0.66600   0.48451   0.58039   0.00000  Uiso   1.00
H855   H     0.63803   0.52932   0.60174   0.00000  Uiso   1.00
H856   H     0.33462   0.51002   0.63508   0.00000  Uiso   1.00
H857   H     0.54009   0.33709   0.71185   0.00000  Uiso   1.00
H858   H     0.45849   0.66452   0.78870   0.00000  Uiso   1.00
H859   H     0.53280   0.38623   0.50797   0.00000  Uiso   1.00
H860   H     0.50853   0.52992   0.57141   0.00000  Uiso   1.00
H861   H     0.45255   0.58512   0.92068   0.00000  Uiso   1.00
H862   H     0.43987   0.60050   0.50150   0.00000  Uiso   1.00
H863   H     0.48195   0.44167   0.89939   0.00000  Uiso   1.00
H864   H     0.34792   0.52838   0.71277   0.00000  Uiso   1.00
O865   O     0.50000   0.50000   0.75000   0.00000  Uiso   1.00
O866   O     0.48784   0.45970   0.65459   0.00000  Uiso   1.00
O867   O     0.46274   0.53724   0.84968   0.00000  Uiso   1.00
O868   O     0.54157   0.51092   0.64606   0.00000  Uiso   1.00
O869   O     0.50785   0.49213   0.84968   0.00000  Uiso   1.00
O870   O     0.45072   0.55398   0.55905   0.00000  Uiso   1.00
O871   O     0.51264   0.41352   0.78214   0.00000  Uiso   1.00
O872   O     0.47965   0.59418   0.77014   0.00000  Uiso   1.00
O873   O     0.40745   0.46625   0.73413   0.00000  Uiso   1.00
O874   O     0.60026   0.52605   0.71361   0.00000  Uiso   1.00
O875   O     0.40405   0.52211   0.78213   0.00000  Uiso   1.00
O876   O     0.58824   0.48559   0.77014   0.00000  Uiso   1.00
O877   O     0.47093   0.40277   0.73413   0.00000  Uiso   1.00
O878   O     0.53678   0.58953   0.71361   0.00000  Uiso   1.00
Zn879  Zn    0.52672   0.47327   0.78734   0.00000  Uiso   1.00
Zn880  Zn    0.46713   0.45791   0.71876   0.00000  Uiso   1.00
Zn881  Zn    0.54389   0.53109   0.70657   0.00000  Uiso   1.00
Zn882  Zn    0.46226   0.53773   0.78734   0.00000  Uiso   1.00
C883   C     0.71975   0.49325   0.75938   0.00000  Uiso   1.00
C884   C     0.84478   0.49838   0.55694   0.00000  Uiso   1.00
C885   C     0.86522   0.43128   0.56338   0.00000  Uiso   1.00
C886   C     0.94728   0.50693   0.74036   0.00000  Uiso   1.00
C887   C     0.80678   0.52474   0.92039   0.00000  Uiso   1.00
C888   C     0.99267   0.50939   0.73765   0.00000  Uiso   1.00
C889   C     0.67469   0.48925   0.76466   0.00000  Uiso   1.00
C890   C     0.84710   0.65580   0.73671   0.00000  Uiso   1.00
C891   C     0.81857   0.34502   0.76381   0.00000  Uiso   1.00
C892   C     0.82279   0.38915   0.76021   0.00000  Uiso   1.00
C893   C     0.84323   0.61118   0.74022   0.00000  Uiso   1.00
C894   C     0.78651   0.57215   0.98633   0.00000  Uiso   1.00
C895   C     0.85174   0.48117   0.62942   0.00000  Uiso   1.00
C896   C     0.81461   0.51723   0.87112   0.00000  Uiso   1.00
C897   C     0.85950   0.41753   0.52095   0.00000  Uiso   1.00
C898   C     0.85765   0.47157   0.58146   0.00000  Uiso   1.00
C899   C     0.79276   0.56274   0.94046   0.00000  Uiso   1.00
C900   C     0.74781   0.52614   0.57777   0.00000  Uiso   1.00
C901   C     0.70662   0.54407   0.57902   0.00000  Uiso   1.00
C902   C     0.66727   0.51510   0.60043   0.00000  Uiso   1.00
C903   C     0.79629   0.54509   0.51309   0.00000  Uiso   1.00
C904   C     0.81595   0.50884   0.99273   0.00000  Uiso   1.00
C905   C     0.81550   0.49619   0.94738   0.00000  Uiso   1.00
C906   C     0.83439   0.48386   0.51590   0.00000  Uiso   1.00
C907   C     0.84356   0.44313   0.99698   0.00000  Uiso   1.00
C908   C     0.83569   0.42851   0.95507   0.00000  Uiso   1.00
C909   C     0.82217   0.45487   0.93076   0.00000  Uiso   1.00
Cl910  Cl    0.97791   0.45663   0.80661   0.00000  Uiso   1.00
Cl911  Cl    0.84298   0.37739   0.93084   0.00000  Uiso   1.00
H912   H     0.87434   0.41000   0.58281   0.00000  Uiso   1.00
H913   H     0.74886   0.52254   0.61274   0.00000  Uiso   1.00
H914   H     0.74744   0.49411   0.56033   0.00000  Uiso   1.00
H915   H     0.70644   0.57500   0.59852   0.00000  Uiso   1.00
H916   H     0.70509   0.54837   0.54440   0.00000  Uiso   1.00
H917   H     0.99933   0.48451   0.58039   0.00000  Uiso   1.00
H918   H     0.97136   0.52932   0.60174   0.00000  Uiso   1.00
H919   H     0.66795   0.51002   0.63508   0.00000  Uiso   1.00
H920   H     0.87342   0.33709   0.71185   0.00000  Uiso   1.00
H921   H     0.79182   0.66452   0.78870   0.00000  Uiso   1.00
H922   H     0.86613   0.38623   0.50797   0.00000  Uiso   1.00
H923   H     0.84187   0.52992   0.57141   0.00000  Uiso   1.00
H924   H     0.78588   0.58512   0.92068   0.00000  Uiso   1.00
H925   H     0.77320   0.60050   0.50150   0.00000  Uiso   1.00
H926   H     0.81528   0.44167   0.89939   0.00000  Uiso   1.00
H927   H     0.68125   0.52838   0.71277   0.00000  Uiso   1.00
O928   O     0.83333   0.50000   0.75000   0.00000  Uiso   1.00
O929   O     0.82118   0.45970   0.65459   0.00000  Uiso   1.00
O930   O     0.79607   0.53724   0.84968   0.00000  Uiso   1.00
O931   O     0.87491   0.51092   0.64606   0.00000  Uiso   1.00
O932   O     0.84118   0.49213   0.84968   0.00000  Uiso   1.00
O933   O     0.78405   0.55398   0.55905   0.00000  Uiso   1.00
O934   O     0.84597   0.41352   0.78214   0.00000  Uiso   1.00
O935   O     0.81298   0.59418   0.77014   0.00000  Uiso   1.00
O936   O     0.74078   0.46625   0.73413   0.00000  Uiso   1.00
O937   O     0.93360   0.52605   0.71361   0.00000  Uiso   1.00
O938   O     0.73738   0.52211   0.78213   0.00000  Uiso   1.00
O939   O     0.92158   0.48559   0.77014   0.00000  Uiso   1.00
O940   O     0.80426   0.40277   0.73413   0.00000  Uiso   1.00
O941   O     0.87012   0.58953   0.71361   0.00000  Uiso   1.00
Zn942  Zn    0.86005   0.47327   0.78734   0.00000  Uiso   1.00
Zn943  Zn    0.80046   0.45791   0.71876   0.00000  Uiso   1.00
Zn944  Zn    0.87723   0.53109   0.70657   0.00000  Uiso   1.00
Zn945  Zn    0.79560   0.53773   0.78734   0.00000  Uiso   1.00
C946   C     0.05309   0.82658   0.75938   0.00000  Uiso   1.00
C947   C     0.17811   0.83172   0.55694   0.00000  Uiso   1.00
C948   C     0.19856   0.76461   0.56338   0.00000  Uiso   1.00
C949   C     0.28061   0.84027   0.74036   0.00000  Uiso   1.00
C950   C     0.14011   0.85808   0.92039   0.00000  Uiso   1.00
C951   C     0.32601   0.84272   0.73765   0.00000  Uiso   1.00
C952   C     0.00802   0.82258   0.76466   0.00000  Uiso   1.00
C953   C     0.18044   0.98913   0.73671   0.00000  Uiso   1.00
C954   C     0.15191   0.67835   0.76381   0.00000  Uiso   1.00
C955   C     0.15612   0.72248   0.76021   0.00000  Uiso   1.00
C956   C     0.17656   0.94451   0.74022   0.00000  Uiso   1.00
C957   C     0.11984   0.90548   0.98633   0.00000  Uiso   1.00
C958   C     0.18508   0.81450   0.62942   0.00000  Uiso   1.00
C959   C     0.14794   0.85056   0.87112   0.00000  Uiso   1.00
C960   C     0.19283   0.75086   0.52095   0.00000  Uiso   1.00
C961   C     0.19098   0.80490   0.58146   0.00000  Uiso   1.00
C962   C     0.12609   0.89607   0.94046   0.00000  Uiso   1.00
C963   C     0.08114   0.85947   0.57777   0.00000  Uiso   1.00
C964   C     0.03996   0.87740   0.57902   0.00000  Uiso   1.00
C965   C     0.00060   0.84843   0.60043   0.00000  Uiso   1.00
C966   C     0.12962   0.87842   0.51309   0.00000  Uiso   1.00
C967   C     0.14928   0.84218   0.99273   0.00000  Uiso   1.00
C968   C     0.14884   0.82952   0.94738   0.00000  Uiso   1.00
C969   C     0.16772   0.81720   0.51590   0.00000  Uiso   1.00
C970   C     0.17689   0.77646   0.99698   0.00000  Uiso   1.00
C971   C     0.16903   0.76184   0.95507   0.00000  Uiso   1.00
C972   C     0.15550   0.78821   0.93076   0.00000  Uiso   1.00
Cl973  Cl    0.31124   0.78996   0.80661   0.00000  Uiso   1.00
Cl974  Cl    0.17632   0.71072   0.93084   0.00000  Uiso   1.00
H975   H     0.20768   0.74334   0.58281   0.00000  Uiso   1.00
H976   H     0.08220   0.85587   0.61274   0.00000  Uiso   1.00
H977   H     0.08077   0.82744   0.56033   0.00000  Uiso   1.00
H978   H     0.03978   0.90833   0.59852   0.00000  Uiso   1.00
H979   H     0.03842   0.88171   0.54440   0.00000  Uiso   1.00
H980   H     0.33266   0.81785   0.58039   0.00000  Uiso   1.00
H981   H     0.30470   0.86266   0.60174   0.00000  Uiso   1.00
H982   H     0.00128   0.84336   0.63508   0.00000  Uiso   1.00
H983   H     0.20676   0.67042   0.71185   0.00000  Uiso   1.00
H984   H     0.12516   0.99785   0.78870   0.00000  Uiso   1.00
H985   H     0.19947   0.71956   0.50797   0.00000  Uiso   1.00
H986   H     0.17520   0.86326   0.57141   0.00000  Uiso   1.00
H987   H     0.11922   0.91845   0.92068   0.00000  Uiso   1.00
H988   H     0.10653   0.93384   0.50150   0.00000  Uiso   1.00
H989   H     0.14862   0.77500   0.89939   0.00000  Uiso   1.00
H990   H     0.01458   0.86172   0.71277   0.00000  Uiso   1.00
O991   O     0.16667   0.83333   0.75000   0.00000  Uiso   1.00
O992   O     0.15451   0.79304   0.65459   0.00000  Uiso   1.00
O993   O     0.12940   0.87058   0.84968   0.00000  Uiso   1.00
O994   O     0.20824   0.84425   0.64606   0.00000  Uiso   1.00
O995   O     0.17451   0.82546   0.84968   0.00000  Uiso   1.00
O996   O     0.11739   0.88732   0.55905   0.00000  Uiso   1.00
O997   O     0.17930   0.74686   0.78214   0.00000  Uiso   1.00
O998   O     0.14632   0.92751   0.77014   0.00000  Uiso   1.00
O999   O     0.07412   0.79958   0.73413   0.00000  Uiso   1.00
O1000  O     0.26693   0.85939   0.71361   0.00000  Uiso   1.00
O1001  O     0.07071   0.85544   0.78213   0.00000  Uiso   1.00
O1002  O     0.25491   0.81892   0.77014   0.00000  Uiso   1.00
O1003  O     0.13760   0.73610   0.73413   0.00000  Uiso   1.00
O1004  O     0.20345   0.92286   0.71361   0.00000  Uiso   1.00
Zn1005 Zn    0.19338   0.80661   0.78734   0.00000  Uiso   1.00
Zn1006 Zn    0.13379   0.79124   0.71876   0.00000  Uiso   1.00
Zn1007 Zn    0.21056   0.86442   0.70657   0.00000  Uiso   1.00
Zn1008 Zn    0.12893   0.87106   0.78734   0.00000  Uiso   1.00
C1009  C     0.38642   0.82658   0.75938   0.00000  Uiso   1.00
C1010  C     0.51144   0.83172   0.55694   0.00000  Uiso   1.00
C1011  C     0.53189   0.76461   0.56338   0.00000  Uiso   1.00
C1012  C     0.61395   0.84027   0.74036   0.00000  Uiso   1.00
C1013  C     0.47345   0.85808   0.92039   0.00000  Uiso   1.00
C1014  C     0.65934   0.84272   0.73765   0.00000  Uiso   1.00
C1015  C     0.34136   0.82258   0.76466   0.00000  Uiso   1.00
C1016  C     0.51377   0.98913   0.73671   0.00000  Uiso   1.00
C1017  C     0.48524   0.67835   0.76381   0.00000  Uiso   1.00
C1018  C     0.48946   0.72248   0.76021   0.00000  Uiso   1.00
C1019  C     0.50989   0.94451   0.74022   0.00000  Uiso   1.00
C1020  C     0.45317   0.90548   0.98633   0.00000  Uiso   1.00
C1021  C     0.51841   0.81450   0.62942   0.00000  Uiso   1.00
C1022  C     0.48127   0.85056   0.87112   0.00000  Uiso   1.00
C1023  C     0.52616   0.75086   0.52095   0.00000  Uiso   1.00
C1024  C     0.52431   0.80490   0.58146   0.00000  Uiso   1.00
C1025  C     0.45943   0.89607   0.94046   0.00000  Uiso   1.00
C1026  C     0.41448   0.85947   0.57777   0.00000  Uiso   1.00
C1027  C     0.37329   0.87740   0.57902   0.00000  Uiso   1.00
C1028  C     0.33394   0.84843   0.60043   0.00000  Uiso   1.00
C1029  C     0.46295   0.87842   0.51309   0.00000  Uiso   1.00
C1030  C     0.48262   0.84218   0.99273   0.00000  Uiso   1.00
C1031  C     0.48217   0.82952   0.94738   0.00000  Uiso   1.00
C1032  C     0.50105   0.81720   0.51590   0.00000  Uiso   1.00
C1033  C     0.51023   0.77646   0.99698   0.00000  Uiso   1.00
C1034  C     0.50236   0.76184   0.95507   0.00000  Uiso   1.00
C1035  C     0.48883   0.78821   0.93076   0.00000  Uiso   1.00
Cl1036 Cl    0.64458   0.78996   0.80661   0.00000  Uiso   1.00
Cl1037 Cl    0.50965   0.71072   0.93084   0.00000  Uiso   1.00
H1038  H     0.54101   0.74334   0.58281   0.00000  Uiso   1.00
H1039  H     0.41553   0.85587   0.61274   0.00000  Uiso   1.00
H1040  H     0.41411   0.82744   0.56033   0.00000  Uiso   1.00
H1041  H     0.37311   0.90833   0.59852   0.00000  Uiso   1.00
H1042  H     0.37175   0.88171   0.54440   0.00000  Uiso   1.00
H1043  H     0.66600   0.81785   0.58039   0.00000  Uiso   1.00
H1044  H     0.63803   0.86266   0.60174   0.00000  Uiso   1.00
H1045  H     0.33462   0.84336   0.63508   0.00000  Uiso   1.00
H1046  H     0.54009   0.67042   0.71185   0.00000  Uiso   1.00
H1047  H     0.45849   0.99785   0.78870   0.00000  Uiso   1.00
H1048  H     0.53280   0.71956   0.50797   0.00000  Uiso   1.00
H1049  H     0.50853   0.86326   0.57141   0.00000  Uiso   1.00
H1050  H     0.45255   0.91845   0.92068   0.00000  Uiso   1.00
H1051  H     0.43987   0.93384   0.50150   0.00000  Uiso   1.00
H1052  H     0.48195   0.77500   0.89939   0.00000  Uiso   1.00
H1053  H     0.34792   0.86172   0.71277   0.00000  Uiso   1.00
O1054  O     0.50000   0.83333   0.75000   0.00000  Uiso   1.00
O1055  O     0.48784   0.79304   0.65459   0.00000  Uiso   1.00
O1056  O     0.46274   0.87058   0.84968   0.00000  Uiso   1.00
O1057  O     0.54157   0.84425   0.64606   0.00000  Uiso   1.00
O1058  O     0.50785   0.82546   0.84968   0.00000  Uiso   1.00
O1059  O     0.45072   0.88732   0.55905   0.00000  Uiso   1.00
O1060  O     0.51264   0.74686   0.78214   0.00000  Uiso   1.00
O1061  O     0.47965   0.92751   0.77014   0.00000  Uiso   1.00
O1062  O     0.40745   0.79958   0.73413   0.00000  Uiso   1.00
O1063  O     0.60026   0.85939   0.71361   0.00000  Uiso   1.00
O1064  O     0.40405   0.85544   0.78213   0.00000  Uiso   1.00
O1065  O     0.58824   0.81892   0.77014   0.00000  Uiso   1.00
O1066  O     0.47093   0.73610   0.73413   0.00000  Uiso   1.00
O1067  O     0.53678   0.92286   0.71361   0.00000  Uiso   1.00
Zn1068 Zn    0.52672   0.80661   0.78734   0.00000  Uiso   1.00
Zn1069 Zn    0.46713   0.79124   0.71876   0.00000  Uiso   1.00
Zn1070 Zn    0.54389   0.86442   0.70657   0.00000  Uiso   1.00
Zn1071 Zn    0.46226   0.87106   0.78734   0.00000  Uiso   1.00
C1072  C     0.71975   0.82658   0.75938   0.00000  Uiso   1.00
C1073  C     0.84478   0.83172   0.55694   0.00000  Uiso   1.00
C1074  C     0.86522   0.76461   0.56338   0.00000  Uiso   1.00
C1075  C     0.94728   0.84027   0.74036   0.00000  Uiso   1.00
C1076  C     0.80678   0.85808   0.92039   0.00000  Uiso   1.00
C1077  C     0.99267   0.84272   0.73765   0.00000  Uiso   1.00
C1078  C     0.67469   0.82258   0.76466   0.00000  Uiso   1.00
C1079  C     0.84710   0.98913   0.73671   0.00000  Uiso   1.00
C1080  C     0.81857   0.67835   0.76381   0.00000  Uiso   1.00
C1081  C     0.82279   0.72248   0.76021   0.00000  Uiso   1.00
C1082  C     0.84323   0.94451   0.74022   0.00000  Uiso   1.00
C1083  C     0.78651   0.90548   0.98633   0.00000  Uiso   1.00
C1084  C     0.85174   0.81450   0.62942   0.00000  Uiso   1.00
C1085  C     0.81461   0.85056   0.87112   0.00000  Uiso   1.00
C1086  C     0.85950   0.75086   0.52095   0.00000  Uiso   1.00
C1087  C     0.85765   0.80490   0.58146   0.00000  Uiso   1.00
C1088  C     0.79276   0.89607   0.94046   0.00000  Uiso   1.00
C1089  C     0.74781   0.85947   0.57777   0.00000  Uiso   1.00
C1090  C     0.70662   0.87740   0.57902   0.00000  Uiso   1.00
C1091  C     0.66727   0.84843   0.60043   0.00000  Uiso   1.00
C1092  C     0.79629   0.87842   0.51309   0.00000  Uiso   1.00
C1093  C     0.81595   0.84218   0.99273   0.00000  Uiso   1.00
C1094  C     0.81550   0.82952   0.94738   0.00000  Uiso   1.00
C1095  C     0.83439   0.81720   0.51590   0.00000  Uiso   1.00
C1096  C     0.84356   0.77646   0.99698   0.00000  Uiso   1.00
C1097  C     0.83569   0.76184   0.95507   0.00000  Uiso   1.00
C1098  C     0.82217   0.78821   0.93076   0.00000  Uiso   1.00
Cl1099 Cl    0.97791   0.78996   0.80661   0.00000  Uiso   1.00
Cl1100 Cl    0.84298   0.71072   0.93084   0.00000  Uiso   1.00
H1101  H     0.87434   0.74334   0.58281   0.00000  Uiso   1.00
H1102  H     0.74886   0.85587   0.61274   0.00000  Uiso   1.00
H1103  H     0.74744   0.82744   0.56033   0.00000  Uiso   1.00
H1104  H     0.70644   0.90833   0.59852   0.00000  Uiso   1.00
H1105  H     0.70509   0.88171   0.54440   0.00000  Uiso   1.00
H1106  H     0.99933   0.81785   0.58039   0.00000  Uiso   1.00
H1107  H     0.97136   0.86266   0.60174   0.00000  Uiso   1.00
H1108  H     0.66795   0.84336   0.63508   0.00000  Uiso   1.00
H1109  H     0.87342   0.67042   0.71185   0.00000  Uiso   1.00
H1110  H     0.79182   0.99785   0.78870   0.00000  Uiso   1.00
H1111  H     0.86613   0.71956   0.50797   0.00000  Uiso   1.00
H1112  H     0.84187   0.86326   0.57141   0.00000  Uiso   1.00
H1113  H     0.78588   0.91845   0.92068   0.00000  Uiso   1.00
H1114  H     0.77320   0.93384   0.50150   0.00000  Uiso   1.00
H1115  H     0.81528   0.77500   0.89939   0.00000  Uiso   1.00
H1116  H     0.68125   0.86172   0.71277   0.00000  Uiso   1.00
O1117  O     0.83333   0.83333   0.75000   0.00000  Uiso   1.00
O1118  O     0.82118   0.79304   0.65459   0.00000  Uiso   1.00
O1119  O     0.79607   0.87058   0.84968   0.00000  Uiso   1.00
O1120  O     0.87491   0.84425   0.64606   0.00000  Uiso   1.00
O1121  O     0.84118   0.82546   0.84968   0.00000  Uiso   1.00
O1122  O     0.78405   0.88732   0.55905   0.00000  Uiso   1.00
O1123  O     0.84597   0.74686   0.78214   0.00000  Uiso   1.00
O1124  O     0.81298   0.92751   0.77014   0.00000  Uiso   1.00
O1125  O     0.74078   0.79958   0.73413   0.00000  Uiso   1.00
O1126  O     0.93360   0.85939   0.71361   0.00000  Uiso   1.00
O1127  O     0.73738   0.85544   0.78213   0.00000  Uiso   1.00
O1128  O     0.92158   0.81892   0.77014   0.00000  Uiso   1.00
O1129  O     0.80426   0.73610   0.73413   0.00000  Uiso   1.00
O1130  O     0.87012   0.92286   0.71361   0.00000  Uiso   1.00
Zn1131 Zn    0.86005   0.80661   0.78734   0.00000  Uiso   1.00
Zn1132 Zn    0.80046   0.79124   0.71876   0.00000  Uiso   1.00
Zn1133 Zn    0.87723   0.86442   0.70657   0.00000  Uiso   1.00
Zn1134 Zn    0.79560   0.87106   0.78734   0.00000  Uiso   1.00
loop_
_geom_bond_atom_site_label_1
_geom_bond_atom_site_label_2
_geom_bond_distance
_geom_bond_site_symmetry_2
_ccdc_geom_bond_type
C1     O54     1.265   .     A
C1     O56     1.266   .     A
C1     C7      1.427   .     S
C2     C16     1.390   .     A
C2     H41     1.078   .     S
C2     C24     1.409   .     A
C3     H30     1.084   .     S
C3     C15     1.388   .     A
C3     C16     1.395   .     A
C4     O55     1.288   .     A
C4     C6      1.454   .     S
C4     O57     1.271   .     A
C5     C23     1.420   .     A
C5     C14     1.478   .     S
C5     C17     1.402   .     A
C6     C70     1.346   .     S
C6     H108    1.088   .     S
C7     C132    1.346   1_455 S
C7     Cl154   1.771   1_455 S
C8     C11     1.451   .     S
C8     C198    1.331   .     S
C8     H227    1.088   .     S
C9     C10     1.434   .     S
C9     C386    1.331   1_545 S
C9     H417    1.086   1_545 S
C10    O52     1.274   .     A
C10    O58     1.274   .     A
C11    O59     1.275   .     A
C11    O53     1.276   .     A
C12    C17     1.387   .     A
C12    C588    1.394   .     S
C12    H610    1.083   .     S
C13    O49     1.281   .     A
C13    C16     1.451   .     S
C13    O47     1.270   .     A
C14    O50     1.285   .     A
C14    O48     1.284   .     A
C15    H40     1.082   .     S
C15    C592    1.406   1_554 S
C17    H42     1.083   .     S
C18    O51     1.418   .     S
C18    H32     1.116   .     S
C18    C19     1.533   .     S
C18    H31     1.111   .     S
C19    C20     1.526   .     S
C19    H33     1.111   .     S
C19    H34     1.111   .     S
C20    H37     1.110   .     S
C20    H161    1.111   1_455 S
C20    H162    1.110   1_455 S
C21    O51     1.385   .     S
C21    C579    1.394   1_554 S
C21    C589    1.429   1_554 S
C22    C23     1.420   .     A
C22    C588    1.429   .     S
C22    C591    1.426   .     S
C23    C27     1.409   .     A
C24    C589    1.426   1_554 S
C24    C592    1.426   1_554 S
C25    C26     1.402   .     A
C25    C591    1.426   .     S
C25    C582    1.406   .     S
C26    C27     1.387   .     A
C26    Cl29    1.766   .     S
C27    H44     1.079   .     S
Cl28   C70     1.771   .     S
H35    C83     1.111   .     S
H36    C83     1.110   .     S
H38    C386    1.088   1_545 S
H39    C198    1.086   .     S
H43    C579    1.083   1_554 S
H45    C132    1.088   1_455 S
O46    Zn63    1.938   .     S
O46    Zn62    1.946   .     S
O46    Zn61    1.937   .     S
O46    Zn60    1.954   .     S
O47    Zn61    1.933   .     S
O48    Zn63    1.935   .     S
O49    Zn62    1.928   .     S
O50    Zn60    1.927   .     S
O52    Zn60    1.926   .     S
O53    Zn63    1.932   .     S
O54    Zn61    1.937   .     S
O55    Zn62    1.940   .     S
O56    Zn63    1.937   .     S
O57    Zn60    1.936   .     S
O58    Zn61    1.934   .     S
O59    Zn62    1.928   .     S
C64    O117    1.265   .     A
C64    O119    1.266   .     A
C64    C70     1.427   .     S
C65    C79     1.390   .     A
C65    H104    1.078   .     S
C65    C87     1.409   .     A
C66    H93     1.084   .     S
C66    C78     1.388   .     A
C66    C79     1.395   .     A
C67    O118    1.288   .     A
C67    C69     1.454   .     S
C67    O120    1.271   .     A
C68    C86     1.420   .     A
C68    C77     1.478   .     S
C68    C80     1.402   .     A
C69    C133    1.346   .     S
C69    H171    1.088   .     S
C71    C74     1.451   .     S
C71    C261    1.331   .     S
C71    H290    1.088   .     S
C72    C73     1.434   .     S
C72    C449    1.331   1_545 S
C72    H480    1.086   1_545 S
C73    O115    1.274   .     A
C73    O121    1.274   .     A
C74    O122    1.275   .     A
C74    O116    1.276   .     A
C75    C80     1.387   .     A
C75    C651    1.394   .     S
C75    H673    1.083   .     S
C76    O112    1.281   .     A
C76    C79     1.451   .     S
C76    O110    1.270   .     A
C77    O113    1.285   .     A
C77    O111    1.284   .     A
C78    H103    1.082   .     S
C78    C655    1.406   1_554 S
C80    H105    1.083   .     S
C81    O114    1.418   .     S
C81    H95     1.116   .     S
C81    C82     1.533   .     S
C81    H94     1.111   .     S
C82    C83     1.526   .     S
C82    H96     1.111   .     S
C82    H97     1.111   .     S
C83    H100    1.110   .     S
C84    O114    1.385   .     S
C84    C642    1.394   1_554 S
C84    C652    1.429   1_554 S
C85    C86     1.420   .     A
C85    C651    1.429   .     S
C85    C654    1.426   .     S
C86    C90     1.409   .     A
C87    C652    1.426   1_554 S
C87    C655    1.426   1_554 S
C88    C89     1.402   .     A
C88    C654    1.426   .     S
C88    C645    1.406   .     S
C89    C90     1.387   .     A
C89    Cl92    1.766   .     S
C90    H107    1.079   .     S
Cl91   C133    1.771   .     S
H98    C146    1.111   .     S
H99    C146    1.110   .     S
H101   C449    1.088   1_545 S
H102   C261    1.086   .     S
H106   C642    1.083   1_554 S
O109   Zn126   1.938   .     S
O109   Zn125   1.946   .     S
O109   Zn124   1.937   .     S
O109   Zn123   1.954   .     S
O110   Zn124   1.933   .     S
O111   Zn126   1.935   .     S
O112   Zn125   1.928   .     S
O113   Zn123   1.927   .     S
O115   Zn123   1.926   .     S
O116   Zn126   1.932   .     S
O117   Zn124   1.937   .     S
O118   Zn125   1.940   .     S
O119   Zn126   1.937   .     S
O120   Zn123   1.936   .     S
O121   Zn124   1.934   .     S
O122   Zn125   1.928   .     S
C127   O180    1.265   .     A
C127   O182    1.266   .     A
C127   C133    1.427   .     S
C128   C142    1.390   .     A
C128   H167    1.078   .     S
C128   C150    1.409   .     A
C129   H156    1.084   .     S
C129   C141    1.388   .     A
C129   C142    1.395   .     A
C130   O181    1.288   .     A
C130   C132    1.454   .     S
C130   O183    1.271   .     A
C131   C149    1.420   .     A
C131   C140    1.478   .     S
C131   C143    1.402   .     A
C132   C7      1.346   1_655 S
C132   H45     1.088   1_655 S
C134   C137    1.451   .     S
C134   C324    1.331   .     S
C134   H353    1.088   .     S
C135   C136    1.434   .     S
C135   C512    1.331   1_545 S
C135   H543    1.086   1_545 S
C136   O178    1.274   .     A
C136   O184    1.274   .     A
C137   O185    1.275   .     A
C137   O179    1.276   .     A
C138   C143    1.387   .     A
C138   C714    1.394   .     S
C138   H736    1.083   .     S
C139   O175    1.281   .     A
C139   C142    1.451   .     S
C139   O173    1.270   .     A
C140   O176    1.285   .     A
C140   O174    1.284   .     A
C141   H166    1.082   .     S
C141   C718    1.406   1_554 S
C143   H168    1.083   .     S
C144   O177    1.418   .     S
C144   H158    1.116   .     S
C144   C145    1.533   .     S
C144   H157    1.111   .     S
C145   C146    1.526   .     S
C145   H159    1.111   .     S
C145   H160    1.111   .     S
C146   H163    1.110   .     S
C147   O177    1.385   .     S
C147   C705    1.394   1_554 S
C147   C715    1.429   1_554 S
C148   C149    1.420   .     A
C148   C714    1.429   .     S
C148   C717    1.426   .     S
C149   C153    1.409   .     A
C150   C715    1.426   1_554 S
C150   C718    1.426   1_554 S
C151   C152    1.402   .     A
C151   C717    1.426   .     S
C151   C708    1.406   .     S
C152   C153    1.387   .     A
C152   Cl155   1.766   .     S
C153   H170    1.079   .     S
Cl154  C7      1.771   1_655 S
H161   C20     1.111   1_655 S
H162   C20     1.110   1_655 S
H164   C512    1.088   1_545 S
H165   C324    1.086   .     S
H169   C705    1.083   1_554 S
O172   Zn189   1.938   .     S
O172   Zn188   1.946   .     S
O172   Zn187   1.937   .     S
O172   Zn186   1.954   .     S
O173   Zn187   1.933   .     S
O174   Zn189   1.935   .     S
O175   Zn188   1.928   .     S
O176   Zn186   1.927   .     S
O178   Zn186   1.926   .     S
O179   Zn189   1.932   .     S
O180   Zn187   1.937   .     S
O181   Zn188   1.940   .     S
O182   Zn189   1.937   .     S
O183   Zn186   1.936   .     S
O184   Zn187   1.934   .     S
O185   Zn188   1.928   .     S
C190   O243    1.265   .     A
C190   O245    1.266   .     A
C190   C196    1.427   .     S
C191   C205    1.390   .     A
C191   H230    1.078   .     S
C191   C213    1.409   .     A
C192   H219    1.084   .     S
C192   C204    1.388   .     A
C192   C205    1.395   .     A
C193   O244    1.288   .     A
C193   C195    1.454   .     S
C193   O246    1.271   .     A
C194   C212    1.420   .     A
C194   C203    1.478   .     S
C194   C206    1.402   .     A
C195   C259    1.346   .     S
C195   H297    1.088   .     S
C196   C321    1.346   1_455 S
C196   Cl343   1.771   1_455 S
C197   C200    1.451   .     S
C197   C387    1.331   .     S
C197   H416    1.088   .     S
C198   C199    1.434   .     S
C199   O241    1.274   .     A
C199   O247    1.274   .     A
C200   O248    1.275   .     A
C200   O242    1.276   .     A
C201   C206    1.387   .     A
C201   C777    1.394   .     S
C201   H799    1.083   .     S
C202   O238    1.281   .     A
C202   C205    1.451   .     S
C202   O236    1.270   .     A
C203   O239    1.285   .     A
C203   O237    1.284   .     A
C204   H229    1.082   .     S
C204   C781    1.406   1_554 S
C206   H231    1.083   .     S
C207   O240    1.418   .     S
C207   H221    1.116   .     S
C207   C208    1.533   .     S
C207   H220    1.111   .     S
C208   C209    1.526   .     S
C208   H222    1.111   .     S
C208   H223    1.111   .     S
C209   H226    1.110   .     S
C209   H350    1.111   1_455 S
C209   H351    1.110   1_455 S
C210   O240    1.385   .     S
C210   C768    1.394   1_554 S
C210   C778    1.429   1_554 S
C211   C212    1.420   .     A
C211   C777    1.429   .     S
C211   C780    1.426   .     S
C212   C216    1.409   .     A
C213   C778    1.426   1_554 S
C213   C781    1.426   1_554 S
C214   C215    1.402   .     A
C214   C780    1.426   .     S
C214   C771    1.406   .     S
C215   C216    1.387   .     A
C215   Cl218   1.766   .     S
C216   H233    1.079   .     S
Cl217  C259    1.771   .     S
H224   C272    1.111   .     S
H225   C272    1.110   .     S
H228   C387    1.086   .     S
H232   C768    1.083   1_554 S
H234   C321    1.088   1_455 S
O235   Zn252   1.938   .     S
O235   Zn251   1.946   .     S
O235   Zn250   1.937   .     S
O235   Zn249   1.954   .     S
O236   Zn250   1.933   .     S
O237   Zn252   1.935   .     S
O238   Zn251   1.928   .     S
O239   Zn249   1.927   .     S
O241   Zn249   1.926   .     S
O242   Zn252   1.932   .     S
O243   Zn250   1.937   .     S
O244   Zn251   1.940   .     S
O245   Zn252   1.937   .     S
O246   Zn249   1.936   .     S
O247   Zn250   1.934   .     S
O248   Zn251   1.928   .     S
C253   O306    1.265   .     A
C253   O308    1.266   .     A
C253   C259    1.427   .     S
C254   C268    1.390   .     A
C254   H293    1.078   .     S
C254   C276    1.409   .     A
C255   H282    1.084   .     S
C255   C267    1.388   .     A
C255   C268    1.395   .     A
C256   O307    1.288   .     A
C256   C258    1.454   .     S
C256   O309    1.271   .     A
C257   C275    1.420   .     A
C257   C266    1.478   .     S
C257   C269    1.402   .     A
C258   C322    1.346   .     S
C258   H360    1.088   .     S
C260   C263    1.451   .     S
C260   C450    1.331   .     S
C260   H479    1.088   .     S
C261   C262    1.434   .     S
C262   O304    1.274   .     A
C262   O310    1.274   .     A
C263   O311    1.275   .     A
C263   O305    1.276   .     A
C264   C269    1.387   .     A
C264   C840    1.394   .     S
C264   H862    1.083   .     S
C265   O301    1.281   .     A
C265   C268    1.451   .     S
C265   O299    1.270   .     A
C266   O302    1.285   .     A
C266   O300    1.284   .     A
C267   H292    1.082   .     S
C267   C844    1.406   1_554 S
C269   H294    1.083   .     S
C270   O303    1.418   .     S
C270   H284    1.116   .     S
C270   C271    1.533   .     S
C270   H283    1.111   .     S
C271   C272    1.526   .     S
C271   H285    1.111   .     S
C271   H286    1.111   .     S
C272   H289    1.110   .     S
C273   O303    1.385   .     S
C273   C831    1.394   1_554 S
C273   C841    1.429   1_554 S
C274   C275    1.420   .     A
C274   C840    1.429   .     S
C274   C843    1.426   .     S
C275   C279    1.409   .     A
C276   C841    1.426   1_554 S
C276   C844    1.426   1_554 S
C277   C278    1.402   .     A
C277   C843    1.426   .     S
C277   C834    1.406   .     S
C278   C279    1.387   .     A
C278   Cl281   1.766   .     S
C279   H296    1.079   .     S
Cl280  C322    1.771   .     S
H287   C335    1.111   .     S
H288   C335    1.110   .     S
H291   C450    1.086   .     S
H295   C831    1.083   1_554 S
O298   Zn315   1.938   .     S
O298   Zn314   1.946   .     S
O298   Zn313   1.937   .     S
O298   Zn312   1.954   .     S
O299   Zn313   1.933   .     S
O300   Zn315   1.935   .     S
O301   Zn314   1.928   .     S
O302   Zn312   1.927   .     S
O304   Zn312   1.926   .     S
O305   Zn315   1.932   .     S
O306   Zn313   1.937   .     S
O307   Zn314   1.940   .     S
O308   Zn315   1.937   .     S
O309   Zn312   1.936   .     S
O310   Zn313   1.934   .     S
O311   Zn314   1.928   .     S
C316   O369    1.265   .     A
C316   O371    1.266   .     A
C316   C322    1.427   .     S
C317   C331    1.390   .     A
C317   H356    1.078   .     S
C317   C339    1.409   .     A
C318   H345    1.084   .     S
C318   C330    1.388   .     A
C318   C331    1.395   .     A
C319   O370    1.288   .     A
C319   C321    1.454   .     S
C319   O372    1.271   .     A
C320   C338    1.420   .     A
C320   C329    1.478   .     S
C320   C332    1.402   .     A
C321   C196    1.346   1_655 S
C321   H234    1.088   1_655 S
C323   C326    1.451   .     S
C323   C513    1.331   .     S
C323   H542    1.088   .     S
C324   C325    1.434   .     S
C325   O367    1.274   .     A
C325   O373    1.274   .     A
C326   O374    1.275   .     A
C326   O368    1.276   .     A
C327   C332    1.387   .     A
C327   C903    1.394   .     S
C327   H925    1.083   .     S
C328   O364    1.281   .     A
C328   C331    1.451   .     S
C328   O362    1.270   .     A
C329   O365    1.285   .     A
C329   O363    1.284   .     A
C330   H355    1.082   .     S
C330   C907    1.406   1_554 S
C332   H357    1.083   .     S
C333   O366    1.418   .     S
C333   H347    1.116   .     S
C333   C334    1.533   .     S
C333   H346    1.111   .     S
C334   C335    1.526   .     S
C334   H348    1.111   .     S
C334   H349    1.111   .     S
C335   H352    1.110   .     S
C336   O366    1.385   .     S
C336   C894    1.394   1_554 S
C336   C904    1.429   1_554 S
C337   C338    1.420   .     A
C337   C903    1.429   .     S
C337   C906    1.426   .     S
C338   C342    1.409   .     A
C339   C904    1.426   1_554 S
C339   C907    1.426   1_554 S
C340   C341    1.402   .     A
C340   C906    1.426   .     S
C340   C897    1.406   .     S
C341   C342    1.387   .     A
C341   Cl344   1.766   .     S
C342   H359    1.079   .     S
Cl343  C196    1.771   1_655 S
H350   C209    1.111   1_655 S
H351   C209    1.110   1_655 S
H354   C513    1.086   .     S
H358   C894    1.083   1_554 S
O361   Zn378   1.938   .     S
O361   Zn377   1.946   .     S
O361   Zn376   1.937   .     S
O361   Zn375   1.954   .     S
O362   Zn376   1.933   .     S
O363   Zn378   1.935   .     S
O364   Zn377   1.928   .     S
O365   Zn375   1.927   .     S
O367   Zn375   1.926   .     S
O368   Zn378   1.932   .     S
O369   Zn376   1.937   .     S
O370   Zn377   1.940   .     S
O371   Zn378   1.937   .     S
O372   Zn375   1.936   .     S
O373   Zn376   1.934   .     S
O374   Zn377   1.928   .     S
C379   O432    1.265   .     A
C379   O434    1.266   .     A
C379   C385    1.427   .     S
C380   C394    1.390   .     A
C380   H419    1.078   .     S
C380   C402    1.409   .     A
C381   H408    1.084   .     S
C381   C393    1.388   .     A
C381   C394    1.395   .     A
C382   O433    1.288   .     A
C382   C384    1.454   .     S
C382   O435    1.271   .     A
C383   C401    1.420   .     A
C383   C392    1.478   .     S
C383   C395    1.402   .     A
C384   C448    1.346   .     S
C384   H486    1.088   .     S
C385   C510    1.346   1_455 S
C385   Cl532   1.771   1_455 S
C386   C389    1.451   .     S
C386   C9      1.331   1_565 S
C386   H38     1.088   1_565 S
C387   C388    1.434   .     S
C388   O430    1.274   .     A
C388   O436    1.274   .     A
C389   O437    1.275   .     A
C389   O431    1.276   .     A
C390   C395    1.387   .     A
C390   C966    1.394   .     S
C390   H988    1.083   .     S
C391   O427    1.281   .     A
C391   C394    1.451   .     S
C391   O425    1.270   .     A
C392   O428    1.285   .     A
C392   O426    1.284   .     A
C393   H418    1.082   .     S
C393   C970    1.406   1_554 S
C395   H420    1.083   .     S
C396   O429    1.418   .     S
C396   H410    1.116   .     S
C396   C397    1.533   .     S
C396   H409    1.111   .     S
C397   C398    1.526   .     S
C397   H411    1.111   .     S
C397   H412    1.111   .     S
C398   H415    1.110   .     S
C398   H539    1.111   1_455 S
C398   H540    1.110   1_455 S
C399   O429    1.385   .     S
C399   C957    1.394   1_554 S
C399   C967    1.429   1_554 S
C400   C401    1.420   .     A
C400   C966    1.429   .     S
C400   C969    1.426   .     S
C401   C405    1.409   .     A
C402   C967    1.426   1_554 S
C402   C970    1.426   1_554 S
C403   C404    1.402   .     A
C403   C969    1.426   .     S
C403   C960    1.406   .     S
C404   C405    1.387   .     A
C404   Cl407   1.766   .     S
C405   H422    1.079   .     S
Cl406  C448    1.771   .     S
H413   C461    1.111   .     S
H414   C461    1.110   .     S
H417   C9      1.086   1_565 S
H421   C957    1.083   1_554 S
H423   C510    1.088   1_455 S
O424   Zn441   1.938   .     S
O424   Zn440   1.946   .     S
O424   Zn439   1.937   .     S
O424   Zn438   1.954   .     S
O425   Zn439   1.933   .     S
O426   Zn441   1.935   .     S
O427   Zn440   1.928   .     S
O428   Zn438   1.927   .     S
O430   Zn438   1.926   .     S
O431   Zn441   1.932   .     S
O432   Zn439   1.937   .     S
O433   Zn440   1.940   .     S
O434   Zn441   1.937   .     S
O435   Zn438   1.936   .     S
O436   Zn439   1.934   .     S
O437   Zn440   1.928   .     S
C442   O495    1.265   .     A
C442   O497    1.266   .     A
C442   C448    1.427   .     S
C443   C457    1.390   .     A
C443   H482    1.078   .     S
C443   C465    1.409   .     A
C444   H471    1.084   .     S
C444   C456    1.388   .     A
C444   C457    1.395   .     A
C445   O496    1.288   .     A
C445   C447    1.454   .     S
C445   O498    1.271   .     A
C446   C464    1.420   .     A
C446   C455    1.478   .     S
C446   C458    1.402   .     A
C447   C511    1.346   .     S
C447   H549    1.088   .     S
C449   C452    1.451   .     S
C449   C72     1.331   1_565 S
C449   H101    1.088   1_565 S
C450   C451    1.434   .     S
C451   O493    1.274   .     A
C451   O499    1.274   .     A
C452   O500    1.275   .     A
C452   O494    1.276   .     A
C453   C458    1.387   .     A
C453   C1029   1.394   .     S
C453   H1051   1.083   .     S
C454   O490    1.281   .     A
C454   C457    1.451   .     S
C454   O488    1.270   .     A
C455   O491    1.285   .     A
C455   O489    1.284   .     A
C456   H481    1.082   .     S
C456   C1033   1.406   1_554 S
C458   H483    1.083   .     S
C459   O492    1.418   .     S
C459   H473    1.116   .     S
C459   C460    1.533   .     S
C459   H472    1.111   .     S
C460   C461    1.526   .     S
C460   H474    1.111   .     S
C460   H475    1.111   .     S
C461   H478    1.110   .     S
C462   O492    1.385   .     S
C462   C1020   1.394   1_554 S
C462   C1030   1.429   1_554 S
C463   C464    1.420   .     A
C463   C1029   1.429   .     S
C463   C1032   1.426   .     S
C464   C468    1.409   .     A
C465   C1030   1.426   1_554 S
C465   C1033   1.426   1_554 S
C466   C467    1.402   .     A
C466   C1032   1.426   .     S
C466   C1023   1.406   .     S
C467   C468    1.387   .     A
C467   Cl470   1.766   .     S
C468   H485    1.079   .     S
Cl469  C511    1.771   .     S
H476   C524    1.111   .     S
H477   C524    1.110   .     S
H480   C72     1.086   1_565 S
H484   C1020   1.083   1_554 S
O487   Zn504   1.938   .     S
O487   Zn503   1.946   .     S
O487   Zn502   1.937   .     S
O487   Zn501   1.954   .     S
O488   Zn502   1.933   .     S
O489   Zn504   1.935   .     S
O490   Zn503   1.928   .     S
O491   Zn501   1.927   .     S
O493   Zn501   1.926   .     S
O494   Zn504   1.932   .     S
O495   Zn502   1.937   .     S
O496   Zn503   1.940   .     S
O497   Zn504   1.937   .     S
O498   Zn501   1.936   .     S
O499   Zn502   1.934   .     S
O500   Zn503   1.928   .     S
C505   O558    1.265   .     A
C505   O560    1.266   .     A
C505   C511    1.427   .     S
C506   C520    1.390   .     A
C506   H545    1.078   .     S
C506   C528    1.409   .     A
C507   H534    1.084   .     S
C507   C519    1.388   .     A
C507   C520    1.395   .     A
C508   O559    1.288   .     A
C508   C510    1.454   .     S
C508   O561    1.271   .     A
C509   C527    1.420   .     A
C509   C518    1.478   .     S
C509   C521    1.402   .     A
C510   C385    1.346   1_655 S
C510   H423    1.088   1_655 S
C512   C515    1.451   .     S
C512   C135    1.331   1_565 S
C512   H164    1.088   1_565 S
C513   C514    1.434   .     S
C514   O556    1.274   .     A
C514   O562    1.274   .     A
C515   O563    1.275   .     A
C515   O557    1.276   .     A
C516   C521    1.387   .     A
C516   C1092   1.394   .     S
C516   H1114   1.083   .     S
C517   O553    1.281   .     A
C517   C520    1.451   .     S
C517   O551    1.270   .     A
C518   O554    1.285   .     A
C518   O552    1.284   .     A
C519   H544    1.082   .     S
C519   C1096   1.406   1_554 S
C521   H546    1.083   .     S
C522   O555    1.418   .     S
C522   H536    1.116   .     S
C522   C523    1.533   .     S
C522   H535    1.111   .     S
C523   C524    1.526   .     S
C523   H537    1.111   .     S
C523   H538    1.111   .     S
C524   H541    1.110   .     S
C525   O555    1.385   .     S
C525   C1083   1.394   1_554 S
C525   C1093   1.429   1_554 S
C526   C527    1.420   .     A
C526   C1092   1.429   .     S
C526   C1095   1.426   .     S
C527   C531    1.409   .     A
C528   C1093   1.426   1_554 S
C528   C1096   1.426   1_554 S
C529   C530    1.402   .     A
C529   C1095   1.426   .     S
C529   C1086   1.406   .     S
C530   C531    1.387   .     A
C530   Cl533   1.766   .     S
C531   H548    1.079   .     S
Cl532  C385    1.771   1_655 S
H539   C398    1.111   1_655 S
H540   C398    1.110   1_655 S
H543   C135    1.086   1_565 S
H547   C1083   1.083   1_554 S
O550   Zn567   1.938   .     S
O550   Zn566   1.946   .     S
O550   Zn565   1.937   .     S
O550   Zn564   1.954   .     S
O551   Zn565   1.933   .     S
O552   Zn567   1.935   .     S
O553   Zn566   1.928   .     S
O554   Zn564   1.927   .     S
O556   Zn564   1.926   .     S
O557   Zn567   1.932   .     S
O558   Zn565   1.937   .     S
O559   Zn566   1.940   .     S
O560   Zn567   1.937   .     S
O561   Zn564   1.936   .     S
O562   Zn565   1.934   .     S
O563   Zn566   1.928   .     S
C568   O621    1.265   .     A
C568   O623    1.266   .     A
C568   C574    1.427   .     S
C569   C583    1.390   .     A
C569   H608    1.078   .     S
C569   C591    1.409   .     A
C570   H597    1.084   .     S
C570   C582    1.388   .     A
C570   C583    1.395   .     A
C571   O622    1.288   .     A
C571   C573    1.454   .     S
C571   O624    1.271   .     A
C572   C590    1.420   .     A
C572   C581    1.478   .     S
C572   C584    1.402   .     A
C573   C637    1.346   .     S
C573   H675    1.088   .     S
C574   C699    1.346   1_455 S
C574   Cl721   1.771   1_455 S
C575   C578    1.451   .     S
C575   C765    1.331   .     S
C575   H794    1.088   .     S
C576   C577    1.434   .     S
C576   C953    1.331   1_545 S
C576   H984    1.086   1_545 S
C577   O619    1.274   .     A
C577   O625    1.274   .     A
C578   O626    1.275   .     A
C578   O620    1.276   .     A
C579   C584    1.387   .     A
C579   C21     1.394   1_556 S
C579   H43     1.083   1_556 S
C580   O616    1.281   .     A
C580   C583    1.451   .     S
C580   O614    1.270   .     A
C581   O617    1.285   .     A
C581   O615    1.284   .     A
C582   H607    1.082   .     S
C584   H609    1.083   .     S
C585   O618    1.418   .     S
C585   H599    1.116   .     S
C585   C586    1.533   .     S
C585   H598    1.111   .     S
C586   C587    1.526   .     S
C586   H600    1.111   .     S
C586   H601    1.111   .     S
C587   H604    1.110   .     S
C587   H728    1.111   1_455 S
C587   H729    1.110   1_455 S
C588   O618    1.385   .     S
C589   C590    1.420   .     A
C589   C21     1.429   1_556 S
C589   C24     1.426   1_556 S
C590   C594    1.409   .     A
C592   C593    1.402   .     A
C592   C24     1.426   1_556 S
C592   C15     1.406   1_556 S
C593   C594    1.387   .     A
C593   Cl596   1.766   .     S
C594   H611    1.079   .     S
Cl595  C637    1.771   .     S
H602   C650    1.111   .     S
H603   C650    1.110   .     S
H605   C953    1.088   1_545 S
H606   C765    1.086   .     S
H612   C699    1.088   1_455 S
O613   Zn630   1.938   .     S
O613   Zn629   1.946   .     S
O613   Zn628   1.937   .     S
O613   Zn627   1.954   .     S
O614   Zn628   1.933   .     S
O615   Zn630   1.935   .     S
O616   Zn629   1.928   .     S
O617   Zn627   1.927   .     S
O619   Zn627   1.926   .     S
O620   Zn630   1.932   .     S
O621   Zn628   1.937   .     S
O622   Zn629   1.940   .     S
O623   Zn630   1.937   .     S
O624   Zn627   1.936   .     S
O625   Zn628   1.934   .     S
O626   Zn629   1.928   .     S
C631   O684    1.265   .     A
C631   O686    1.266   .     A
C631   C637    1.427   .     S
C632   C646    1.390   .     A
C632   H671    1.078   .     S
C632   C654    1.409   .     A
C633   H660    1.084   .     S
C633   C645    1.388   .     A
C633   C646    1.395   .     A
C634   O685    1.288   .     A
C634   C636    1.454   .     S
C634   O687    1.271   .     A
C635   C653    1.420   .     A
C635   C644    1.478   .     S
C635   C647    1.402   .     A
C636   C700    1.346   .     S
C636   H738    1.088   .     S
C638   C641    1.451   .     S
C638   C828    1.331   .     S
C638   H857    1.088   .     S
C639   C640    1.434   .     S
C639   C1016   1.331   1_545 S
C639   H1047   1.086   1_545 S
C640   O682    1.274   .     A
C640   O688    1.274   .     A
C641   O689    1.275   .     A
C641   O683    1.276   .     A
C642   C647    1.387   .     A
C642   C84     1.394   1_556 S
C642   H106    1.083   1_556 S
C643   O679    1.281   .     A
C643   C646    1.451   .     S
C643   O677    1.270   .     A
C644   O680    1.285   .     A
C644   O678    1.284   .     A
C645   H670    1.082   .     S
C647   H672    1.083   .     S
C648   O681    1.418   .     S
C648   H662    1.116   .     S
C648   C649    1.533   .     S
C648   H661    1.111   .     S
C649   C650    1.526   .     S
C649   H663    1.111   .     S
C649   H664    1.111   .     S
C650   H667    1.110   .     S
C651   O681    1.385   .     S
C652   C653    1.420   .     A
C652   C84     1.429   1_556 S
C652   C87     1.426   1_556 S
C653   C657    1.409   .     A
C655   C656    1.402   .     A
C655   C87     1.426   1_556 S
C655   C78     1.406   1_556 S
C656   C657    1.387   .     A
C656   Cl659   1.766   .     S
C657   H674    1.079   .     S
Cl658  C700    1.771   .     S
H665   C713    1.111   .     S
H666   C713    1.110   .     S
H668   C1016   1.088   1_545 S
H669   C828    1.086   .     S
O676   Zn693   1.938   .     S
O676   Zn692   1.946   .     S
O676   Zn691   1.937   .     S
O676   Zn690   1.954   .     S
O677   Zn691   1.933   .     S
O678   Zn693   1.935   .     S
O679   Zn692   1.928   .     S
O680   Zn690   1.927   .     S
O682   Zn690   1.926   .     S
O683   Zn693   1.932   .     S
O684   Zn691   1.937   .     S
O685   Zn692   1.940   .     S
O686   Zn693   1.937   .     S
O687   Zn690   1.936   .     S
O688   Zn691   1.934   .     S
O689   Zn692   1.928   .     S
C694   O747    1.265   .     A
C694   O749    1.266   .     A
C694   C700    1.427   .     S
C695   C709    1.390   .     A
C695   H734    1.078   .     S
C695   C717    1.409   .     A
C696   H723    1.084   .     S
C696   C708    1.388   .     A
C696   C709    1.395   .     A
C697   O748    1.288   .     A
C697   C699    1.454   .     S
C697   O750    1.271   .     A
C698   C716    1.420   .     A
C698   C707    1.478   .     S
C698   C710    1.402   .     A
C699   C574    1.346   1_655 S
C699   H612    1.088   1_655 S
C701   C704    1.451   .     S
C701   C891    1.331   .     S
C701   H920    1.088   .     S
C702   C703    1.434   .     S
C702   C1079   1.331   1_545 S
C702   H1110   1.086   1_545 S
C703   O745    1.274   .     A
C703   O751    1.274   .     A
C704   O752    1.275   .     A
C704   O746    1.276   .     A
C705   C710    1.387   .     A
C705   C147    1.394   1_556 S
C705   H169    1.083   1_556 S
C706   O742    1.281   .     A
C706   C709    1.451   .     S
C706   O740    1.270   .     A
C707   O743    1.285   .     A
C707   O741    1.284   .     A
C708   H733    1.082   .     S
C710   H735    1.083   .     S
C711   O744    1.418   .     S
C711   H725    1.116   .     S
C711   C712    1.533   .     S
C711   H724    1.111   .     S
C712   C713    1.526   .     S
C712   H726    1.111   .     S
C712   H727    1.111   .     S
C713   H730    1.110   .     S
C714   O744    1.385   .     S
C715   C716    1.420   .     A
C715   C147    1.429   1_556 S
C715   C150    1.426   1_556 S
C716   C720    1.409   .     A
C718   C719    1.402   .     A
C718   C150    1.426   1_556 S
C718   C141    1.406   1_556 S
C719   C720    1.387   .     A
C719   Cl722   1.766   .     S
C720   H737    1.079   .     S
Cl721  C574    1.771   1_655 S
H728   C587    1.111   1_655 S
H729   C587    1.110   1_655 S
H731   C1079   1.088   1_545 S
H732   C891    1.086   .     S
O739   Zn756   1.938   .     S
O739   Zn755   1.946   .     S
O739   Zn754   1.937   .     S
O739   Zn753   1.954   .     S
O740   Zn754   1.933   .     S
O741   Zn756   1.935   .     S
O742   Zn755   1.928   .     S
O743   Zn753   1.927   .     S
O745   Zn753   1.926   .     S
O746   Zn756   1.932   .     S
O747   Zn754   1.937   .     S
O748   Zn755   1.940   .     S
O749   Zn756   1.937   .     S
O750   Zn753   1.936   .     S
O751   Zn754   1.934   .     S
O752   Zn755   1.928   .     S
C757   O810    1.265   .     A
C757   O812    1.266   .     A
C757   C763    1.427   .     S
C758   C772    1.390   .     A
C758   H797    1.078   .     S
C758   C780    1.409   .     A
C759   H786    1.084   .     S
C759   C771    1.388   .     A
C759   C772    1.395   .     A
C760   O811    1.288   .     A
C760   C762    1.454   .     S
C760   O813    1.271   .     A
C761   C779    1.420   .     A
C761   C770    1.478   .     S
C761   C773    1.402   .     A
C762   C826    1.346   .     S
C762   H864    1.088   .     S
C763   C888    1.346   1_455 S
C763   Cl910   1.771   1_455 S
C764   C767    1.451   .     S
C764   C954    1.331   .     S
C764   H983    1.088   .     S
C765   C766    1.434   .     S
C766   O808    1.274   .     A
C766   O814    1.274   .     A
C767   O815    1.275   .     A
C767   O809    1.276   .     A
C768   C773    1.387   .     A
C768   C210    1.394   1_556 S
C768   H232    1.083   1_556 S
C769   O805    1.281   .     A
C769   C772    1.451   .     S
C769   O803    1.270   .     A
C770   O806    1.285   .     A
C770   O804    1.284   .     A
C771   H796    1.082   .     S
C773   H798    1.083   .     S
C774   O807    1.418   .     S
C774   H788    1.116   .     S
C774   C775    1.533   .     S
C774   H787    1.111   .     S
C775   C776    1.526   .     S
C775   H789    1.111   .     S
C775   H790    1.111   .     S
C776   H793    1.110   .     S
C776   H917    1.111   1_455 S
C776   H918    1.110   1_455 S
C777   O807    1.385   .     S
C778   C779    1.420   .     A
C778   C210    1.429   1_556 S
C778   C213    1.426   1_556 S
C779   C783    1.409   .     A
C781   C782    1.402   .     A
C781   C213    1.426   1_556 S
C781   C204    1.406   1_556 S
C782   C783    1.387   .     A
C782   Cl785   1.766   .     S
C783   H800    1.079   .     S
Cl784  C826    1.771   .     S
H791   C839    1.111   .     S
H792   C839    1.110   .     S
H795   C954    1.086   .     S
H801   C888    1.088   1_455 S
O802   Zn819   1.938   .     S
O802   Zn818   1.946   .     S
O802   Zn817   1.937   .     S
O802   Zn816   1.954   .     S
O803   Zn817   1.933   .     S
O804   Zn819   1.935   .     S
O805   Zn818   1.928   .     S
O806   Zn816   1.927   .     S
O808   Zn816   1.926   .     S
O809   Zn819   1.932   .     S
O810   Zn817   1.937   .     S
O811   Zn818   1.940   .     S
O812   Zn819   1.937   .     S
O813   Zn816   1.936   .     S
O814   Zn817   1.934   .     S
O815   Zn818   1.928   .     S
C820   O873    1.265   .     A
C820   O875    1.266   .     A
C820   C826    1.427   .     S
C821   C835    1.390   .     A
C821   H860    1.078   .     S
C821   C843    1.409   .     A
C822   H849    1.084   .     S
C822   C834    1.388   .     A
C822   C835    1.395   .     A
C823   O874    1.288   .     A
C823   C825    1.454   .     S
C823   O876    1.271   .     A
C824   C842    1.420   .     A
C824   C833    1.478   .     S
C824   C836    1.402   .     A
C825   C889    1.346   .     S
C825   H927    1.088   .     S
C827   C830    1.451   .     S
C827   C1017   1.331   .     S
C827   H1046   1.088   .     S
C828   C829    1.434   .     S
C829   O871    1.274   .     A
C829   O877    1.274   .     A
C830   O878    1.275   .     A
C830   O872    1.276   .     A
C831   C836    1.387   .     A
C831   C273    1.394   1_556 S
C831   H295    1.083   1_556 S
C832   O868    1.281   .     A
C832   C835    1.451   .     S
C832   O866    1.270   .     A
C833   O869    1.285   .     A
C833   O867    1.284   .     A
C834   H859    1.082   .     S
C836   H861    1.083   .     S
C837   O870    1.418   .     S
C837   H851    1.116   .     S
C837   C838    1.533   .     S
C837   H850    1.111   .     S
C838   C839    1.526   .     S
C838   H852    1.111   .     S
C838   H853    1.111   .     S
C839   H856    1.110   .     S
C840   O870    1.385   .     S
C841   C842    1.420   .     A
C841   C273    1.429   1_556 S
C841   C276    1.426   1_556 S
C842   C846    1.409   .     A
C844   C845    1.402   .     A
C844   C276    1.426   1_556 S
C844   C267    1.406   1_556 S
C845   C846    1.387   .     A
C845   Cl848   1.766   .     S
C846   H863    1.079   .     S
Cl847  C889    1.771   .     S
H854   C902    1.111   .     S
H855   C902    1.110   .     S
H858   C1017   1.086   .     S
O865   Zn882   1.938   .     S
O865   Zn881   1.946   .     S
O865   Zn880   1.937   .     S
O865   Zn879   1.954   .     S
O866   Zn880   1.933   .     S
O867   Zn882   1.935   .     S
O868   Zn881   1.928   .     S
O869   Zn879   1.927   .     S
O871   Zn879   1.926   .     S
O872   Zn882   1.932   .     S
O873   Zn880   1.937   .     S
O874   Zn881   1.940   .     S
O875   Zn882   1.937   .     S
O876   Zn879   1.936   .     S
O877   Zn880   1.934   .     S
O878   Zn881   1.928   .     S
C883   O936    1.265   .     A
C883   O938    1.266   .     A
C883   C889    1.427   .     S
C884   C898    1.390   .     A
C884   H923    1.078   .     S
C884   C906    1.409   .     A
C885   H912    1.084   .     S
C885   C897    1.388   .     A
C885   C898    1.395   .     A
C886   O937    1.288   .     A
C886   C888    1.454   .     S
C886   O939    1.271   .     A
C887   C905    1.420   .     A
C887   C896    1.478   .     S
C887   C899    1.402   .     A
C888   C763    1.346   1_655 S
C888   H801    1.088   1_655 S
C890   C893    1.451   .     S
C890   C1080   1.331   .     S
C890   H1109   1.088   .     S
C891   C892    1.434   .     S
C892   O934    1.274   .     A
C892   O940    1.274   .     A
C893   O941    1.275   .     A
C893   O935    1.276   .     A
C894   C899    1.387   .     A
C894   C336    1.394   1_556 S
C894   H358    1.083   1_556 S
C895   O931    1.281   .     A
C895   C898    1.451   .     S
C895   O929    1.270   .     A
C896   O932    1.285   .     A
C896   O930    1.284   .     A
C897   H922    1.082   .     S
C899   H924    1.083   .     S
C900   O933    1.418   .     S
C900   H914    1.116   .     S
C900   C901    1.533   .     S
C900   H913    1.111   .     S
C901   C902    1.526   .     S
C901   H915    1.111   .     S
C901   H916    1.111   .     S
C902   H919    1.110   .     S
C903   O933    1.385   .     S
C904   C905    1.420   .     A
C904   C336    1.429   1_556 S
C904   C339    1.426   1_556 S
C905   C909    1.409   .     A
C907   C908    1.402   .     A
C907   C339    1.426   1_556 S
C907   C330    1.406   1_556 S
C908   C909    1.387   .     A
C908   Cl911   1.766   .     S
C909   H926    1.079   .     S
Cl910  C763    1.771   1_655 S
H917   C776    1.111   1_655 S
H918   C776    1.110   1_655 S
H921   C1080   1.086   .     S
O928   Zn945   1.938   .     S
O928   Zn944   1.946   .     S
O928   Zn943   1.937   .     S
O928   Zn942   1.954   .     S
O929   Zn943   1.933   .     S
O930   Zn945   1.935   .     S
O931   Zn944   1.928   .     S
O932   Zn942   1.927   .     S
O934   Zn942   1.926   .     S
O935   Zn945   1.932   .     S
O936   Zn943   1.937   .     S
O937   Zn944   1.940   .     S
O938   Zn945   1.937   .     S
O939   Zn942   1.936   .     S
O940   Zn943   1.934   .     S
O941   Zn944   1.928   .     S
C946   O999    1.265   .     A
C946   O1001   1.266   .     A
C946   C952    1.427   .     S
C947   C961    1.390   .     A
C947   H986    1.078   .     S
C947   C969    1.409   .     A
C948   H975    1.084   .     S
C948   C960    1.388   .     A
C948   C961    1.395   .     A
C949   O1000   1.288   .     A
C949   C951    1.454   .     S
C949   O1002   1.271   .     A
C950   C968    1.420   .     A
C950   C959    1.478   .     S
C950   C962    1.402   .     A
C951   C1015   1.346   .     S
C951   H1053   1.088   .     S
C952   C1077   1.346   1_455 S
C952   Cl1099  1.771   1_455 S
C953   C956    1.451   .     S
C953   C576    1.331   1_565 S
C953   H605    1.088   1_565 S
C954   C955    1.434   .     S
C955   O997    1.274   .     A
C955   O1003   1.274   .     A
C956   O1004   1.275   .     A
C956   O998    1.276   .     A
C957   C962    1.387   .     A
C957   C399    1.394   1_556 S
C957   H421    1.083   1_556 S
C958   O994    1.281   .     A
C958   C961    1.451   .     S
C958   O992    1.270   .     A
C959   O995    1.285   .     A
C959   O993    1.284   .     A
C960   H985    1.082   .     S
C962   H987    1.083   .     S
C963   O996    1.418   .     S
C963   H977    1.116   .     S
C963   C964    1.533   .     S
C963   H976    1.111   .     S
C964   C965    1.526   .     S
C964   H978    1.111   .     S
C964   H979    1.111   .     S
C965   H982    1.110   .     S
C965   H1106   1.111   1_455 S
C965   H1107   1.110   1_455 S
C966   O996    1.385   .     S
C967   C968    1.420   .     A
C967   C399    1.429   1_556 S
C967   C402    1.426   1_556 S
C968   C972    1.409   .     A
C970   C971    1.402   .     A
C970   C402    1.426   1_556 S
C970   C393    1.406   1_556 S
C971   C972    1.387   .     A
C971   Cl974   1.766   .     S
C972   H989    1.079   .     S
Cl973  C1015   1.771   .     S
H980   C1028   1.111   .     S
H981   C1028   1.110   .     S
H984   C576    1.086   1_565 S
H990   C1077   1.088   1_455 S
O991   Zn1008  1.938   .     S
O991   Zn1007  1.946   .     S
O991   Zn1006  1.937   .     S
O991   Zn1005  1.954   .     S
O992   Zn1006  1.933   .     S
O993   Zn1008  1.935   .     S
O994   Zn1007  1.928   .     S
O995   Zn1005  1.927   .     S
O997   Zn1005  1.926   .     S
O998   Zn1008  1.932   .     S
O999   Zn1006  1.937   .     S
O1000  Zn1007  1.940   .     S
O1001  Zn1008  1.937   .     S
O1002  Zn1005  1.936   .     S
O1003  Zn1006  1.934   .     S
O1004  Zn1007  1.928   .     S
C1009  O1062   1.265   .     A
C1009  O1064   1.266   .     A
C1009  C1015   1.427   .     S
C1010  C1024   1.390   .     A
C1010  H1049   1.078   .     S
C1010  C1032   1.409   .     A
C1011  H1038   1.084   .     S
C1011  C1023   1.388   .     A
C1011  C1024   1.395   .     A
C1012  O1063   1.288   .     A
C1012  C1014   1.454   .     S
C1012  O1065   1.271   .     A
C1013  C1031   1.420   .     A
C1013  C1022   1.478   .     S
C1013  C1025   1.402   .     A
C1014  C1078   1.346   .     S
C1014  H1116   1.088   .     S
C1016  C1019   1.451   .     S
C1016  C639    1.331   1_565 S
C1016  H668    1.088   1_565 S
C1017  C1018   1.434   .     S
C1018  O1060   1.274   .     A
C1018  O1066   1.274   .     A
C1019  O1067   1.275   .     A
C1019  O1061   1.276   .     A
C1020  C1025   1.387   .     A
C1020  C462    1.394   1_556 S
C1020  H484    1.083   1_556 S
C1021  O1057   1.281   .     A
C1021  C1024   1.451   .     S
C1021  O1055   1.270   .     A
C1022  O1058   1.285   .     A
C1022  O1056   1.284   .     A
C1023  H1048   1.082   .     S
C1025  H1050   1.083   .     S
C1026  O1059   1.418   .     S
C1026  H1040   1.116   .     S
C1026  C1027   1.533   .     S
C1026  H1039   1.111   .     S
C1027  C1028   1.526   .     S
C1027  H1041   1.111   .     S
C1027  H1042   1.111   .     S
C1028  H1045   1.110   .     S
C1029  O1059   1.385   .     S
C1030  C1031   1.420   .     A
C1030  C462    1.429   1_556 S
C1030  C465    1.426   1_556 S
C1031  C1035   1.409   .     A
C1033  C1034   1.402   .     A
C1033  C465    1.426   1_556 S
C1033  C456    1.406   1_556 S
C1034  C1035   1.387   .     A
C1034  Cl1037  1.766   .     S
C1035  H1052   1.079   .     S
Cl1036 C1078   1.771   .     S
H1043  C1091   1.111   .     S
H1044  C1091   1.110   .     S
H1047  C639    1.086   1_565 S
O1054  Zn1071  1.938   .     S
O1054  Zn1070  1.946   .     S
O1054  Zn1069  1.937   .     S
O1054  Zn1068  1.954   .     S
O1055  Zn1069  1.933   .     S
O1056  Zn1071  1.935   .     S
O1057  Zn1070  1.928   .     S
O1058  Zn1068  1.927   .     S
O1060  Zn1068  1.926   .     S
O1061  Zn1071  1.932   .     S
O1062  Zn1069  1.937   .     S
O1063  Zn1070  1.940   .     S
O1064  Zn1071  1.937   .     S
O1065  Zn1068  1.936   .     S
O1066  Zn1069  1.934   .     S
O1067  Zn1070  1.928   .     S
C1072  O1125   1.265   .     A
C1072  O1127   1.266   .     A
C1072  C1078   1.427   .     S
C1073  C1087   1.390   .     A
C1073  H1112   1.078   .     S
C1073  C1095   1.409   .     A
C1074  H1101   1.084   .     S
C1074  C1086   1.388   .     A
C1074  C1087   1.395   .     A
C1075  O1126   1.288   .     A
C1075  C1077   1.454   .     S
C1075  O1128   1.271   .     A
C1076  C1094   1.420   .     A
C1076  C1085   1.478   .     S
C1076  C1088   1.402   .     A
C1077  C952    1.346   1_655 S
C1077  H990    1.088   1_655 S
C1079  C1082   1.451   .     S
C1079  C702    1.331   1_565 S
C1079  H731    1.088   1_565 S
C1080  C1081   1.434   .     S
C1081  O1123   1.274   .     A
C1081  O1129   1.274   .     A
C1082  O1130   1.275   .     A
C1082  O1124   1.276   .     A
C1083  C1088   1.387   .     A
C1083  C525    1.394   1_556 S
C1083  H547    1.083   1_556 S
C1084  O1120   1.281   .     A
C1084  C1087   1.451   .     S
C1084  O1118   1.270   .     A
C1085  O1121   1.285   .     A
C1085  O1119   1.284   .     A
C1086  H1111   1.082   .     S
C1088  H1113   1.083   .     S
C1089  O1122   1.418   .     S
C1089  H1103   1.116   .     S
C1089  C1090   1.533   .     S
C1089  H1102   1.111   .     S
C1090  C1091   1.526   .     S
C1090  H1104   1.111   .     S
C1090  H1105   1.111   .     S
C1091  H1108   1.110   .     S
C1092  O1122   1.385   .     S
C1093  C1094   1.420   .     A
C1093  C525    1.429   1_556 S
C1093  C528    1.426   1_556 S
C1094  C1098   1.409   .     A
C1096  C1097   1.402   .     A
C1096  C528    1.426   1_556 S
C1096  C519    1.406   1_556 S
C1097  C1098   1.387   .     A
C1097  Cl1100  1.766   .     S
C1098  H1115   1.079   .     S
Cl1099 C952    1.771   1_655 S
H1106  C965    1.111   1_655 S
H1107  C965    1.110   1_655 S
H1110  C702    1.086   1_565 S
O1117  Zn1134  1.938   .     S
O1117  Zn1133  1.946   .     S
O1117  Zn1132  1.937   .     S
O1117  Zn1131  1.954   .     S
O1118  Zn1132  1.933   .     S
O1119  Zn1134  1.935   .     S
O1120  Zn1133  1.928   .     S
O1121  Zn1131  1.927   .     S
O1123  Zn1131  1.926   .     S
O1124  Zn1134  1.932   .     S
O1125  Zn1132  1.937   .     S
O1126  Zn1133  1.940   .     S
O1127  Zn1134  1.937   .     S
O1128  Zn1131  1.936   .     S
O1129  Zn1132  1.934   .     S
O1130  Zn1133  1.928   .     S
