data_str_m3_o10_o17_pcu_sym.68
_audit_creation_date              2020-01-03
_audit_creation_method            'Materials Studio'
_symmetry_space_group_name_H-M    'P1'
_symmetry_Int_Tables_number       1
_symmetry_cell_setting            triclinic
loop_
_symmetry_equiv_pos_as_xyz
  x,y,z
_cell_length_a                    23.2077
_cell_length_b                    25.9060
_cell_length_c                    29.7602
_cell_angle_alpha                 90.5478
_cell_angle_beta                  86.4626
_cell_angle_gamma                 93.6593
loop_
_atom_site_label
_atom_site_type_symbol
_atom_site_fract_x
_atom_site_fract_y
_atom_site_fract_z
_atom_site_U_iso_or_equiv
_atom_site_adp_type
_atom_site_occupancy
C1     C     0.18192   0.26493   0.24780   0.00000  Uiso   1.00
C2     C     0.17891   0.21635   0.40559   0.00000  Uiso   1.00
C3     C     0.16284   0.16804   0.11588   0.00000  Uiso   1.00
C4     C     0.17022   0.16873   0.38406   0.00000  Uiso   1.00
C5     C     0.19044   0.21033   0.09259   0.00000  Uiso   1.00
C6     C     0.16130   0.12297   0.40793   0.00000  Uiso   1.00
C7     C     0.18221   0.21565   0.04669   0.00000  Uiso   1.00
C8     C     0.14556   0.12549   0.45368   0.00000  Uiso   1.00
C9     C     0.15752   0.17225   0.02373   0.00000  Uiso   1.00
C10    C     0.15936   0.17208   0.47675   0.00000  Uiso   1.00
C11    C     0.13343   0.12791   0.04740   0.00000  Uiso   1.00
C12    C     0.15136   0.06837   0.25108   0.00000  Uiso   1.00
C13    C     0.17831   0.21741   0.45265   0.00000  Uiso   1.00
C14    C     0.19920   0.26159   0.02252   0.00000  Uiso   1.00
C15    C     0.11890   0.08269   0.47702   0.00000  Uiso   1.00
C16    C     0.28390   0.23159   0.10755   0.00000  Uiso   1.00
C17    C     0.32231   0.26341   0.13847   0.00000  Uiso   1.00
C18    C     0.24029   0.07469   0.40076   0.00000  Uiso   1.00
C19    C     0.28137   0.07523   0.35868   0.00000  Uiso   1.00
C20    C     0.19590   0.26209   0.47608   0.00000  Uiso   1.00
C21    C     0.11146   0.08483   0.02351   0.00000  Uiso   1.00
C22    C     0.18992   0.31938   0.24637   0.00000  Uiso   1.00
C23    C     0.14330   0.01393   0.25109   0.00000  Uiso   1.00
C24    C     0.16770   0.16620   0.33644   0.00000  Uiso   1.00
C25    C     0.16560   0.16678   0.16354   0.00000  Uiso   1.00
C26    C     0.13272   0.12750   0.09427   0.00000  Uiso   1.00
H27    H     0.20908   0.29750   0.45855   0.00000  Uiso   1.00
H28    H     0.31871   0.30529   0.13252   0.00000  Uiso   1.00
H29    H     0.30901   0.25458   0.17419   0.00000  Uiso   1.00
H30    H     0.24321   0.03787   0.41873   0.00000  Uiso   1.00
H31    H     0.25687   0.10544   0.42418   0.00000  Uiso   1.00
H32    H     0.29202   0.11555   0.34739   0.00000  Uiso   1.00
H33    H     0.32236   0.05827   0.36643   0.00000  Uiso   1.00
H34    H     0.26175   0.05261   0.33101   0.00000  Uiso   1.00
H35    H     0.09029   0.05145   0.04036   0.00000  Uiso   1.00
H36    H     0.23397   0.00305   0.24215   0.00000  Uiso   1.00
H37    H     0.09924   0.33025   0.25526   0.00000  Uiso   1.00
H38    H     0.00475   0.12798   0.21623   0.00000  Uiso   1.00
H39    H     0.32857   0.20536   0.28376   0.00000  Uiso   1.00
H40    H     0.29956   0.23978   0.07208   0.00000  Uiso   1.00
H41    H     0.28872   0.18990   0.11440   0.00000  Uiso   1.00
H42    H     0.03476   0.25399   0.13175   0.00000  Uiso   1.00
I43    I     0.09205   0.06385   0.13302   0.00000  Uiso   1.00
I44    I     0.19776   0.28323   0.36512   0.00000  Uiso   1.00
I45    I     0.22576   0.00112   0.05119   0.00000  Uiso   1.00
I46    I     0.07977   0.01702   0.44476   0.00000  Uiso   1.00
N47    N     0.31678   0.15265   0.23783   0.00000  Uiso   1.00
N48    N     0.01656   0.18068   0.26217   0.00000  Uiso   1.00
O49    O     0.12975   0.24619   0.25298   0.00000  Uiso   1.00
O50    O     0.18200   0.07834   0.38897   0.00000  Uiso   1.00
O51    O     0.20358   0.08714   0.24701   0.00000  Uiso   1.00
O52    O     0.22613   0.23721   0.24518   0.00000  Uiso   1.00
O53    O     0.10720   0.09613   0.25481   0.00000  Uiso   1.00
O54    O     0.11847   0.17117   0.31997   0.00000  Uiso   1.00
O55    O     0.21486   0.16216   0.18002   0.00000  Uiso   1.00
O56    O     0.21485   0.16219   0.31217   0.00000  Uiso   1.00
O57    O     0.11848   0.17115   0.18782   0.00000  Uiso   1.00
O58    O     0.22594   0.24519   0.11537   0.00000  Uiso   1.00
Zn59   Zn    0.10231   0.17266   0.25521   0.00000  Uiso   1.00
Zn60   Zn    0.23102   0.16067   0.24479   0.00000  Uiso   1.00
C61    C     0.51525   0.26493   0.24780   0.00000  Uiso   1.00
C62    C     0.51224   0.21635   0.40559   0.00000  Uiso   1.00
C63    C     0.49617   0.16804   0.11588   0.00000  Uiso   1.00
C64    C     0.50355   0.16873   0.38406   0.00000  Uiso   1.00
C65    C     0.52377   0.21033   0.09259   0.00000  Uiso   1.00
C66    C     0.49463   0.12297   0.40793   0.00000  Uiso   1.00
C67    C     0.51555   0.21565   0.04669   0.00000  Uiso   1.00
C68    C     0.47889   0.12549   0.45368   0.00000  Uiso   1.00
C69    C     0.49085   0.17225   0.02373   0.00000  Uiso   1.00
C70    C     0.49269   0.17208   0.47675   0.00000  Uiso   1.00
C71    C     0.46677   0.12791   0.04740   0.00000  Uiso   1.00
C72    C     0.48470   0.06837   0.25108   0.00000  Uiso   1.00
C73    C     0.51164   0.21741   0.45265   0.00000  Uiso   1.00
C74    C     0.53254   0.26159   0.02252   0.00000  Uiso   1.00
C75    C     0.45223   0.08269   0.47702   0.00000  Uiso   1.00
C76    C     0.61723   0.23159   0.10755   0.00000  Uiso   1.00
C77    C     0.65564   0.26341   0.13847   0.00000  Uiso   1.00
C78    C     0.57362   0.07469   0.40076   0.00000  Uiso   1.00
C79    C     0.61470   0.07523   0.35868   0.00000  Uiso   1.00
C80    C     0.52924   0.26209   0.47608   0.00000  Uiso   1.00
C81    C     0.44479   0.08483   0.02351   0.00000  Uiso   1.00
C82    C     0.52325   0.31938   0.24637   0.00000  Uiso   1.00
C83    C     0.47663   0.01393   0.25109   0.00000  Uiso   1.00
C84    C     0.50103   0.16620   0.33644   0.00000  Uiso   1.00
C85    C     0.49894   0.16678   0.16354   0.00000  Uiso   1.00
C86    C     0.46605   0.12750   0.09427   0.00000  Uiso   1.00
H87    H     0.54242   0.29750   0.45855   0.00000  Uiso   1.00
H88    H     0.65204   0.30529   0.13252   0.00000  Uiso   1.00
H89    H     0.64234   0.25458   0.17419   0.00000  Uiso   1.00
H90    H     0.57654   0.03787   0.41873   0.00000  Uiso   1.00
H91    H     0.59020   0.10544   0.42418   0.00000  Uiso   1.00
H92    H     0.62535   0.11555   0.34739   0.00000  Uiso   1.00
H93    H     0.65569   0.05827   0.36643   0.00000  Uiso   1.00
H94    H     0.59508   0.05261   0.33101   0.00000  Uiso   1.00
H95    H     0.42362   0.05145   0.04036   0.00000  Uiso   1.00
H96    H     0.56731   0.00305   0.24215   0.00000  Uiso   1.00
H97    H     0.43257   0.33025   0.25526   0.00000  Uiso   1.00
H98    H     0.33809   0.12798   0.21623   0.00000  Uiso   1.00
H99    H     0.66190   0.20536   0.28376   0.00000  Uiso   1.00
H100   H     0.63290   0.23978   0.07208   0.00000  Uiso   1.00
H101   H     0.62205   0.18990   0.11440   0.00000  Uiso   1.00
H102   H     0.36809   0.25399   0.13175   0.00000  Uiso   1.00
I103   I     0.42538   0.06385   0.13302   0.00000  Uiso   1.00
I104   I     0.53109   0.28323   0.36512   0.00000  Uiso   1.00
I105   I     0.55909   0.00112   0.05119   0.00000  Uiso   1.00
I106   I     0.41310   0.01702   0.44476   0.00000  Uiso   1.00
N107   N     0.65011   0.15265   0.23783   0.00000  Uiso   1.00
N108   N     0.34989   0.18068   0.26217   0.00000  Uiso   1.00
O109   O     0.46308   0.24619   0.25298   0.00000  Uiso   1.00
O110   O     0.51533   0.07834   0.38897   0.00000  Uiso   1.00
O111   O     0.53692   0.08714   0.24701   0.00000  Uiso   1.00
O112   O     0.55946   0.23721   0.24518   0.00000  Uiso   1.00
O113   O     0.44054   0.09613   0.25481   0.00000  Uiso   1.00
O114   O     0.45181   0.17117   0.31997   0.00000  Uiso   1.00
O115   O     0.54819   0.16216   0.18002   0.00000  Uiso   1.00
O116   O     0.54819   0.16219   0.31217   0.00000  Uiso   1.00
O117   O     0.45181   0.17115   0.18782   0.00000  Uiso   1.00
O118   O     0.55928   0.24519   0.11537   0.00000  Uiso   1.00
Zn119  Zn    0.43565   0.17266   0.25521   0.00000  Uiso   1.00
Zn120  Zn    0.56435   0.16067   0.24479   0.00000  Uiso   1.00
C121   C     0.84858   0.26493   0.24780   0.00000  Uiso   1.00
C122   C     0.84557   0.21635   0.40559   0.00000  Uiso   1.00
C123   C     0.82950   0.16804   0.11588   0.00000  Uiso   1.00
C124   C     0.83689   0.16873   0.38406   0.00000  Uiso   1.00
C125   C     0.85711   0.21033   0.09259   0.00000  Uiso   1.00
C126   C     0.82796   0.12297   0.40793   0.00000  Uiso   1.00
C127   C     0.84888   0.21565   0.04669   0.00000  Uiso   1.00
C128   C     0.81223   0.12549   0.45368   0.00000  Uiso   1.00
C129   C     0.82419   0.17225   0.02373   0.00000  Uiso   1.00
C130   C     0.82603   0.17208   0.47675   0.00000  Uiso   1.00
C131   C     0.80010   0.12791   0.04740   0.00000  Uiso   1.00
C132   C     0.81803   0.06837   0.25108   0.00000  Uiso   1.00
C133   C     0.84497   0.21741   0.45265   0.00000  Uiso   1.00
C134   C     0.86587   0.26159   0.02252   0.00000  Uiso   1.00
C135   C     0.78557   0.08269   0.47702   0.00000  Uiso   1.00
C136   C     0.95057   0.23159   0.10755   0.00000  Uiso   1.00
C137   C     0.98898   0.26341   0.13847   0.00000  Uiso   1.00
C138   C     0.90695   0.07469   0.40076   0.00000  Uiso   1.00
C139   C     0.94803   0.07523   0.35868   0.00000  Uiso   1.00
C140   C     0.86257   0.26209   0.47608   0.00000  Uiso   1.00
C141   C     0.77812   0.08483   0.02351   0.00000  Uiso   1.00
C142   C     0.85658   0.31938   0.24637   0.00000  Uiso   1.00
C143   C     0.80996   0.01393   0.25109   0.00000  Uiso   1.00
C144   C     0.83437   0.16620   0.33644   0.00000  Uiso   1.00
C145   C     0.83227   0.16678   0.16354   0.00000  Uiso   1.00
C146   C     0.79938   0.12750   0.09427   0.00000  Uiso   1.00
H147   H     0.87575   0.29750   0.45855   0.00000  Uiso   1.00
H148   H     0.98537   0.30529   0.13252   0.00000  Uiso   1.00
H149   H     0.97567   0.25458   0.17419   0.00000  Uiso   1.00
H150   H     0.90987   0.03787   0.41873   0.00000  Uiso   1.00
H151   H     0.92354   0.10544   0.42418   0.00000  Uiso   1.00
H152   H     0.95868   0.11555   0.34739   0.00000  Uiso   1.00
H153   H     0.98902   0.05827   0.36643   0.00000  Uiso   1.00
H154   H     0.92842   0.05261   0.33101   0.00000  Uiso   1.00
H155   H     0.75696   0.05145   0.04036   0.00000  Uiso   1.00
H156   H     0.90064   0.00305   0.24215   0.00000  Uiso   1.00
H157   H     0.76591   0.33025   0.25526   0.00000  Uiso   1.00
H158   H     0.67142   0.12798   0.21623   0.00000  Uiso   1.00
H159   H     0.99523   0.20536   0.28376   0.00000  Uiso   1.00
H160   H     0.96623   0.23978   0.07208   0.00000  Uiso   1.00
H161   H     0.95539   0.18990   0.11440   0.00000  Uiso   1.00
H162   H     0.70142   0.25399   0.13175   0.00000  Uiso   1.00
I163   I     0.75871   0.06385   0.13302   0.00000  Uiso   1.00
I164   I     0.86443   0.28323   0.36512   0.00000  Uiso   1.00
I165   I     0.89242   0.00112   0.05119   0.00000  Uiso   1.00
I166   I     0.74643   0.01702   0.44476   0.00000  Uiso   1.00
N167   N     0.98344   0.15265   0.23783   0.00000  Uiso   1.00
N168   N     0.68322   0.18068   0.26217   0.00000  Uiso   1.00
O169   O     0.79642   0.24619   0.25298   0.00000  Uiso   1.00
O170   O     0.84867   0.07834   0.38897   0.00000  Uiso   1.00
O171   O     0.87025   0.08714   0.24701   0.00000  Uiso   1.00
O172   O     0.89280   0.23721   0.24518   0.00000  Uiso   1.00
O173   O     0.77387   0.09613   0.25481   0.00000  Uiso   1.00
O174   O     0.78514   0.17117   0.31997   0.00000  Uiso   1.00
O175   O     0.88153   0.16216   0.18002   0.00000  Uiso   1.00
O176   O     0.88152   0.16219   0.31217   0.00000  Uiso   1.00
O177   O     0.78515   0.17115   0.18782   0.00000  Uiso   1.00
O178   O     0.89261   0.24519   0.11537   0.00000  Uiso   1.00
Zn179  Zn    0.76898   0.17266   0.25521   0.00000  Uiso   1.00
Zn180  Zn    0.89769   0.16067   0.24479   0.00000  Uiso   1.00
C181   C     0.18192   0.59827   0.24780   0.00000  Uiso   1.00
C182   C     0.17891   0.54968   0.40559   0.00000  Uiso   1.00
C183   C     0.16284   0.50137   0.11588   0.00000  Uiso   1.00
C184   C     0.17022   0.50207   0.38406   0.00000  Uiso   1.00
C185   C     0.19044   0.54367   0.09259   0.00000  Uiso   1.00
C186   C     0.16130   0.45631   0.40793   0.00000  Uiso   1.00
C187   C     0.18221   0.54899   0.04669   0.00000  Uiso   1.00
C188   C     0.14556   0.45882   0.45368   0.00000  Uiso   1.00
C189   C     0.15752   0.50558   0.02373   0.00000  Uiso   1.00
C190   C     0.15936   0.50541   0.47675   0.00000  Uiso   1.00
C191   C     0.13343   0.46124   0.04740   0.00000  Uiso   1.00
C192   C     0.15136   0.40170   0.25108   0.00000  Uiso   1.00
C193   C     0.17831   0.55074   0.45265   0.00000  Uiso   1.00
C194   C     0.19920   0.59493   0.02252   0.00000  Uiso   1.00
C195   C     0.11890   0.41602   0.47702   0.00000  Uiso   1.00
C196   C     0.28390   0.56493   0.10755   0.00000  Uiso   1.00
C197   C     0.32231   0.59674   0.13847   0.00000  Uiso   1.00
C198   C     0.24029   0.40803   0.40076   0.00000  Uiso   1.00
C199   C     0.28137   0.40856   0.35868   0.00000  Uiso   1.00
C200   C     0.19590   0.59542   0.47608   0.00000  Uiso   1.00
C201   C     0.11146   0.41816   0.02351   0.00000  Uiso   1.00
C202   C     0.18992   0.65271   0.24637   0.00000  Uiso   1.00
C203   C     0.14330   0.34726   0.25109   0.00000  Uiso   1.00
C204   C     0.16770   0.49953   0.33644   0.00000  Uiso   1.00
C205   C     0.16560   0.50011   0.16354   0.00000  Uiso   1.00
C206   C     0.13272   0.46083   0.09427   0.00000  Uiso   1.00
H207   H     0.20908   0.63083   0.45855   0.00000  Uiso   1.00
H208   H     0.31871   0.63862   0.13252   0.00000  Uiso   1.00
H209   H     0.30901   0.58792   0.17419   0.00000  Uiso   1.00
H210   H     0.24321   0.37121   0.41873   0.00000  Uiso   1.00
H211   H     0.25687   0.43878   0.42418   0.00000  Uiso   1.00
H212   H     0.29202   0.44888   0.34739   0.00000  Uiso   1.00
H213   H     0.32236   0.39160   0.36643   0.00000  Uiso   1.00
H214   H     0.26175   0.38594   0.33101   0.00000  Uiso   1.00
H215   H     0.09029   0.38478   0.04036   0.00000  Uiso   1.00
H216   H     0.23397   0.33638   0.24215   0.00000  Uiso   1.00
H217   H     0.09924   0.66359   0.25526   0.00000  Uiso   1.00
H218   H     0.00475   0.46132   0.21623   0.00000  Uiso   1.00
H219   H     0.32857   0.53869   0.28376   0.00000  Uiso   1.00
H220   H     0.29956   0.57311   0.07208   0.00000  Uiso   1.00
H221   H     0.28872   0.52323   0.11440   0.00000  Uiso   1.00
H222   H     0.03476   0.58733   0.13175   0.00000  Uiso   1.00
I223   I     0.09205   0.39718   0.13302   0.00000  Uiso   1.00
I224   I     0.19776   0.61656   0.36512   0.00000  Uiso   1.00
I225   I     0.22576   0.33446   0.05119   0.00000  Uiso   1.00
I226   I     0.07977   0.35035   0.44476   0.00000  Uiso   1.00
N227   N     0.31678   0.48598   0.23783   0.00000  Uiso   1.00
N228   N     0.01656   0.51402   0.26217   0.00000  Uiso   1.00
O229   O     0.12975   0.57952   0.25298   0.00000  Uiso   1.00
O230   O     0.18200   0.41167   0.38897   0.00000  Uiso   1.00
O231   O     0.20358   0.42048   0.24701   0.00000  Uiso   1.00
O232   O     0.22613   0.57054   0.24518   0.00000  Uiso   1.00
O233   O     0.10720   0.42946   0.25481   0.00000  Uiso   1.00
O234   O     0.11847   0.50450   0.31997   0.00000  Uiso   1.00
O235   O     0.21486   0.49550   0.18002   0.00000  Uiso   1.00
O236   O     0.21485   0.49552   0.31217   0.00000  Uiso   1.00
O237   O     0.11848   0.50448   0.18782   0.00000  Uiso   1.00
O238   O     0.22594   0.57852   0.11537   0.00000  Uiso   1.00
Zn239  Zn    0.10231   0.50600   0.25521   0.00000  Uiso   1.00
Zn240  Zn    0.23102   0.49400   0.24479   0.00000  Uiso   1.00
C241   C     0.51525   0.59827   0.24780   0.00000  Uiso   1.00
C242   C     0.51224   0.54968   0.40559   0.00000  Uiso   1.00
C243   C     0.49617   0.50137   0.11588   0.00000  Uiso   1.00
C244   C     0.50355   0.50207   0.38406   0.00000  Uiso   1.00
C245   C     0.52377   0.54367   0.09259   0.00000  Uiso   1.00
C246   C     0.49463   0.45631   0.40793   0.00000  Uiso   1.00
C247   C     0.51555   0.54899   0.04669   0.00000  Uiso   1.00
C248   C     0.47889   0.45882   0.45368   0.00000  Uiso   1.00
C249   C     0.49085   0.50558   0.02373   0.00000  Uiso   1.00
C250   C     0.49269   0.50541   0.47675   0.00000  Uiso   1.00
C251   C     0.46677   0.46124   0.04740   0.00000  Uiso   1.00
C252   C     0.48470   0.40170   0.25108   0.00000  Uiso   1.00
C253   C     0.51164   0.55074   0.45265   0.00000  Uiso   1.00
C254   C     0.53254   0.59493   0.02252   0.00000  Uiso   1.00
C255   C     0.45223   0.41602   0.47702   0.00000  Uiso   1.00
C256   C     0.61723   0.56493   0.10755   0.00000  Uiso   1.00
C257   C     0.65564   0.59674   0.13847   0.00000  Uiso   1.00
C258   C     0.57362   0.40803   0.40076   0.00000  Uiso   1.00
C259   C     0.61470   0.40856   0.35868   0.00000  Uiso   1.00
C260   C     0.52924   0.59542   0.47608   0.00000  Uiso   1.00
C261   C     0.44479   0.41816   0.02351   0.00000  Uiso   1.00
C262   C     0.52325   0.65271   0.24637   0.00000  Uiso   1.00
C263   C     0.47663   0.34726   0.25109   0.00000  Uiso   1.00
C264   C     0.50103   0.49953   0.33644   0.00000  Uiso   1.00
C265   C     0.49894   0.50011   0.16354   0.00000  Uiso   1.00
C266   C     0.46605   0.46083   0.09427   0.00000  Uiso   1.00
H267   H     0.54242   0.63083   0.45855   0.00000  Uiso   1.00
H268   H     0.65204   0.63862   0.13252   0.00000  Uiso   1.00
H269   H     0.64234   0.58792   0.17419   0.00000  Uiso   1.00
H270   H     0.57654   0.37121   0.41873   0.00000  Uiso   1.00
H271   H     0.59020   0.43878   0.42418   0.00000  Uiso   1.00
H272   H     0.62535   0.44888   0.34739   0.00000  Uiso   1.00
H273   H     0.65569   0.39160   0.36643   0.00000  Uiso   1.00
H274   H     0.59508   0.38594   0.33101   0.00000  Uiso   1.00
H275   H     0.42362   0.38478   0.04036   0.00000  Uiso   1.00
H276   H     0.56731   0.33638   0.24215   0.00000  Uiso   1.00
H277   H     0.43257   0.66359   0.25526   0.00000  Uiso   1.00
H278   H     0.33809   0.46132   0.21623   0.00000  Uiso   1.00
H279   H     0.66190   0.53869   0.28376   0.00000  Uiso   1.00
H280   H     0.63290   0.57311   0.07208   0.00000  Uiso   1.00
H281   H     0.62205   0.52323   0.11440   0.00000  Uiso   1.00
H282   H     0.36809   0.58733   0.13175   0.00000  Uiso   1.00
I283   I     0.42538   0.39718   0.13302   0.00000  Uiso   1.00
I284   I     0.53109   0.61656   0.36512   0.00000  Uiso   1.00
I285   I     0.55909   0.33446   0.05119   0.00000  Uiso   1.00
I286   I     0.41310   0.35035   0.44476   0.00000  Uiso   1.00
N287   N     0.65011   0.48598   0.23783   0.00000  Uiso   1.00
N288   N     0.34989   0.51402   0.26217   0.00000  Uiso   1.00
O289   O     0.46308   0.57952   0.25298   0.00000  Uiso   1.00
O290   O     0.51533   0.41167   0.38897   0.00000  Uiso   1.00
O291   O     0.53692   0.42048   0.24701   0.00000  Uiso   1.00
O292   O     0.55946   0.57054   0.24518   0.00000  Uiso   1.00
O293   O     0.44054   0.42946   0.25481   0.00000  Uiso   1.00
O294   O     0.45181   0.50450   0.31997   0.00000  Uiso   1.00
O295   O     0.54819   0.49550   0.18002   0.00000  Uiso   1.00
O296   O     0.54819   0.49552   0.31217   0.00000  Uiso   1.00
O297   O     0.45181   0.50448   0.18782   0.00000  Uiso   1.00
O298   O     0.55928   0.57852   0.11537   0.00000  Uiso   1.00
Zn299  Zn    0.43565   0.50600   0.25521   0.00000  Uiso   1.00
Zn300  Zn    0.56435   0.49400   0.24479   0.00000  Uiso   1.00
C301   C     0.84858   0.59827   0.24780   0.00000  Uiso   1.00
C302   C     0.84557   0.54968   0.40559   0.00000  Uiso   1.00
C303   C     0.82950   0.50137   0.11588   0.00000  Uiso   1.00
C304   C     0.83689   0.50207   0.38406   0.00000  Uiso   1.00
C305   C     0.85711   0.54367   0.09259   0.00000  Uiso   1.00
C306   C     0.82796   0.45631   0.40793   0.00000  Uiso   1.00
C307   C     0.84888   0.54899   0.04669   0.00000  Uiso   1.00
C308   C     0.81223   0.45882   0.45368   0.00000  Uiso   1.00
C309   C     0.82419   0.50558   0.02373   0.00000  Uiso   1.00
C310   C     0.82603   0.50541   0.47675   0.00000  Uiso   1.00
C311   C     0.80010   0.46124   0.04740   0.00000  Uiso   1.00
C312   C     0.81803   0.40170   0.25108   0.00000  Uiso   1.00
C313   C     0.84497   0.55074   0.45265   0.00000  Uiso   1.00
C314   C     0.86587   0.59493   0.02252   0.00000  Uiso   1.00
C315   C     0.78557   0.41602   0.47702   0.00000  Uiso   1.00
C316   C     0.95057   0.56493   0.10755   0.00000  Uiso   1.00
C317   C     0.98898   0.59674   0.13847   0.00000  Uiso   1.00
C318   C     0.90695   0.40803   0.40076   0.00000  Uiso   1.00
C319   C     0.94803   0.40856   0.35868   0.00000  Uiso   1.00
C320   C     0.86257   0.59542   0.47608   0.00000  Uiso   1.00
C321   C     0.77812   0.41816   0.02351   0.00000  Uiso   1.00
C322   C     0.85658   0.65271   0.24637   0.00000  Uiso   1.00
C323   C     0.80996   0.34726   0.25109   0.00000  Uiso   1.00
C324   C     0.83437   0.49953   0.33644   0.00000  Uiso   1.00
C325   C     0.83227   0.50011   0.16354   0.00000  Uiso   1.00
C326   C     0.79938   0.46083   0.09427   0.00000  Uiso   1.00
H327   H     0.87575   0.63083   0.45855   0.00000  Uiso   1.00
H328   H     0.98537   0.63862   0.13252   0.00000  Uiso   1.00
H329   H     0.97567   0.58792   0.17419   0.00000  Uiso   1.00
H330   H     0.90987   0.37121   0.41873   0.00000  Uiso   1.00
H331   H     0.92354   0.43878   0.42418   0.00000  Uiso   1.00
H332   H     0.95868   0.44888   0.34739   0.00000  Uiso   1.00
H333   H     0.98902   0.39160   0.36643   0.00000  Uiso   1.00
H334   H     0.92842   0.38594   0.33101   0.00000  Uiso   1.00
H335   H     0.75696   0.38478   0.04036   0.00000  Uiso   1.00
H336   H     0.90064   0.33638   0.24215   0.00000  Uiso   1.00
H337   H     0.76591   0.66359   0.25526   0.00000  Uiso   1.00
H338   H     0.67142   0.46132   0.21623   0.00000  Uiso   1.00
H339   H     0.99523   0.53869   0.28376   0.00000  Uiso   1.00
H340   H     0.96623   0.57311   0.07208   0.00000  Uiso   1.00
H341   H     0.95539   0.52323   0.11440   0.00000  Uiso   1.00
H342   H     0.70142   0.58733   0.13175   0.00000  Uiso   1.00
I343   I     0.75871   0.39718   0.13302   0.00000  Uiso   1.00
I344   I     0.86443   0.61656   0.36512   0.00000  Uiso   1.00
I345   I     0.89242   0.33446   0.05119   0.00000  Uiso   1.00
I346   I     0.74643   0.35035   0.44476   0.00000  Uiso   1.00
N347   N     0.98344   0.48598   0.23783   0.00000  Uiso   1.00
N348   N     0.68322   0.51402   0.26217   0.00000  Uiso   1.00
O349   O     0.79642   0.57952   0.25298   0.00000  Uiso   1.00
O350   O     0.84867   0.41167   0.38897   0.00000  Uiso   1.00
O351   O     0.87025   0.42048   0.24701   0.00000  Uiso   1.00
O352   O     0.89280   0.57054   0.24518   0.00000  Uiso   1.00
O353   O     0.77387   0.42946   0.25481   0.00000  Uiso   1.00
O354   O     0.78514   0.50450   0.31997   0.00000  Uiso   1.00
O355   O     0.88153   0.49550   0.18002   0.00000  Uiso   1.00
O356   O     0.88152   0.49552   0.31217   0.00000  Uiso   1.00
O357   O     0.78515   0.50448   0.18782   0.00000  Uiso   1.00
O358   O     0.89261   0.57852   0.11537   0.00000  Uiso   1.00
Zn359  Zn    0.76898   0.50600   0.25521   0.00000  Uiso   1.00
Zn360  Zn    0.89769   0.49400   0.24479   0.00000  Uiso   1.00
C361   C     0.18192   0.93160   0.24780   0.00000  Uiso   1.00
C362   C     0.17891   0.88301   0.40559   0.00000  Uiso   1.00
C363   C     0.16284   0.83471   0.11588   0.00000  Uiso   1.00
C364   C     0.17022   0.83540   0.38406   0.00000  Uiso   1.00
C365   C     0.19044   0.87700   0.09259   0.00000  Uiso   1.00
C366   C     0.16130   0.78964   0.40793   0.00000  Uiso   1.00
C367   C     0.18221   0.88232   0.04669   0.00000  Uiso   1.00
C368   C     0.14556   0.79216   0.45368   0.00000  Uiso   1.00
C369   C     0.15752   0.83891   0.02373   0.00000  Uiso   1.00
C370   C     0.15936   0.83874   0.47675   0.00000  Uiso   1.00
C371   C     0.13343   0.79457   0.04740   0.00000  Uiso   1.00
C372   C     0.15136   0.73504   0.25108   0.00000  Uiso   1.00
C373   C     0.17831   0.88408   0.45265   0.00000  Uiso   1.00
C374   C     0.19920   0.92826   0.02252   0.00000  Uiso   1.00
C375   C     0.11890   0.74935   0.47702   0.00000  Uiso   1.00
C376   C     0.28390   0.89826   0.10755   0.00000  Uiso   1.00
C377   C     0.32231   0.93007   0.13847   0.00000  Uiso   1.00
C378   C     0.24029   0.74136   0.40076   0.00000  Uiso   1.00
C379   C     0.28137   0.74189   0.35868   0.00000  Uiso   1.00
C380   C     0.19590   0.92876   0.47608   0.00000  Uiso   1.00
C381   C     0.11146   0.75150   0.02351   0.00000  Uiso   1.00
C382   C     0.18992   0.98605   0.24637   0.00000  Uiso   1.00
C383   C     0.14330   0.68059   0.25109   0.00000  Uiso   1.00
C384   C     0.16770   0.83287   0.33644   0.00000  Uiso   1.00
C385   C     0.16560   0.83345   0.16354   0.00000  Uiso   1.00
C386   C     0.13272   0.79416   0.09427   0.00000  Uiso   1.00
H387   H     0.20908   0.96416   0.45855   0.00000  Uiso   1.00
H388   H     0.31871   0.97195   0.13252   0.00000  Uiso   1.00
H389   H     0.30901   0.92125   0.17419   0.00000  Uiso   1.00
H390   H     0.24321   0.70454   0.41873   0.00000  Uiso   1.00
H391   H     0.25687   0.77211   0.42418   0.00000  Uiso   1.00
H392   H     0.29202   0.78222   0.34739   0.00000  Uiso   1.00
H393   H     0.32236   0.72493   0.36643   0.00000  Uiso   1.00
H394   H     0.26175   0.71928   0.33101   0.00000  Uiso   1.00
H395   H     0.09029   0.71812   0.04036   0.00000  Uiso   1.00
H396   H     0.23397   0.66971   0.24215   0.00000  Uiso   1.00
H397   H     0.09924   0.99692   0.25526   0.00000  Uiso   1.00
H398   H     0.00475   0.79465   0.21623   0.00000  Uiso   1.00
H399   H     0.32857   0.87202   0.28376   0.00000  Uiso   1.00
H400   H     0.29956   0.90644   0.07208   0.00000  Uiso   1.00
H401   H     0.28872   0.85656   0.11440   0.00000  Uiso   1.00
H402   H     0.03476   0.92066   0.13175   0.00000  Uiso   1.00
I403   I     0.09205   0.73052   0.13302   0.00000  Uiso   1.00
I404   I     0.19776   0.94989   0.36512   0.00000  Uiso   1.00
I405   I     0.22576   0.66779   0.05119   0.00000  Uiso   1.00
I406   I     0.07977   0.68369   0.44476   0.00000  Uiso   1.00
N407   N     0.31678   0.81932   0.23783   0.00000  Uiso   1.00
N408   N     0.01656   0.84735   0.26217   0.00000  Uiso   1.00
O409   O     0.12975   0.91286   0.25298   0.00000  Uiso   1.00
O410   O     0.18200   0.74500   0.38897   0.00000  Uiso   1.00
O411   O     0.20358   0.75381   0.24701   0.00000  Uiso   1.00
O412   O     0.22613   0.90387   0.24518   0.00000  Uiso   1.00
O413   O     0.10720   0.76279   0.25481   0.00000  Uiso   1.00
O414   O     0.11847   0.83784   0.31997   0.00000  Uiso   1.00
O415   O     0.21486   0.82883   0.18002   0.00000  Uiso   1.00
O416   O     0.21485   0.82885   0.31217   0.00000  Uiso   1.00
O417   O     0.11848   0.83781   0.18782   0.00000  Uiso   1.00
O418   O     0.22594   0.91186   0.11537   0.00000  Uiso   1.00
Zn419  Zn    0.10231   0.83933   0.25521   0.00000  Uiso   1.00
Zn420  Zn    0.23102   0.82734   0.24479   0.00000  Uiso   1.00
C421   C     0.51525   0.93160   0.24780   0.00000  Uiso   1.00
C422   C     0.51224   0.88301   0.40559   0.00000  Uiso   1.00
C423   C     0.49617   0.83471   0.11588   0.00000  Uiso   1.00
C424   C     0.50355   0.83540   0.38406   0.00000  Uiso   1.00
C425   C     0.52377   0.87700   0.09259   0.00000  Uiso   1.00
C426   C     0.49463   0.78964   0.40793   0.00000  Uiso   1.00
C427   C     0.51555   0.88232   0.04669   0.00000  Uiso   1.00
C428   C     0.47889   0.79216   0.45368   0.00000  Uiso   1.00
C429   C     0.49085   0.83891   0.02373   0.00000  Uiso   1.00
C430   C     0.49269   0.83874   0.47675   0.00000  Uiso   1.00
C431   C     0.46677   0.79457   0.04740   0.00000  Uiso   1.00
C432   C     0.48470   0.73504   0.25108   0.00000  Uiso   1.00
C433   C     0.51164   0.88408   0.45265   0.00000  Uiso   1.00
C434   C     0.53254   0.92826   0.02252   0.00000  Uiso   1.00
C435   C     0.45223   0.74935   0.47702   0.00000  Uiso   1.00
C436   C     0.61723   0.89826   0.10755   0.00000  Uiso   1.00
C437   C     0.65564   0.93007   0.13847   0.00000  Uiso   1.00
C438   C     0.57362   0.74136   0.40076   0.00000  Uiso   1.00
C439   C     0.61470   0.74189   0.35868   0.00000  Uiso   1.00
C440   C     0.52924   0.92876   0.47608   0.00000  Uiso   1.00
C441   C     0.44479   0.75150   0.02351   0.00000  Uiso   1.00
C442   C     0.52325   0.98605   0.24637   0.00000  Uiso   1.00
C443   C     0.47663   0.68059   0.25109   0.00000  Uiso   1.00
C444   C     0.50103   0.83287   0.33644   0.00000  Uiso   1.00
C445   C     0.49894   0.83345   0.16354   0.00000  Uiso   1.00
C446   C     0.46605   0.79416   0.09427   0.00000  Uiso   1.00
H447   H     0.54242   0.96416   0.45855   0.00000  Uiso   1.00
H448   H     0.65204   0.97195   0.13252   0.00000  Uiso   1.00
H449   H     0.64234   0.92125   0.17419   0.00000  Uiso   1.00
H450   H     0.57654   0.70454   0.41873   0.00000  Uiso   1.00
H451   H     0.59020   0.77211   0.42418   0.00000  Uiso   1.00
H452   H     0.62535   0.78222   0.34739   0.00000  Uiso   1.00
H453   H     0.65569   0.72493   0.36643   0.00000  Uiso   1.00
H454   H     0.59508   0.71928   0.33101   0.00000  Uiso   1.00
H455   H     0.42362   0.71812   0.04036   0.00000  Uiso   1.00
H456   H     0.56731   0.66971   0.24215   0.00000  Uiso   1.00
H457   H     0.43257   0.99692   0.25526   0.00000  Uiso   1.00
H458   H     0.33809   0.79465   0.21623   0.00000  Uiso   1.00
H459   H     0.66190   0.87202   0.28376   0.00000  Uiso   1.00
H460   H     0.63290   0.90644   0.07208   0.00000  Uiso   1.00
H461   H     0.62205   0.85656   0.11440   0.00000  Uiso   1.00
H462   H     0.36809   0.92066   0.13175   0.00000  Uiso   1.00
I463   I     0.42538   0.73052   0.13302   0.00000  Uiso   1.00
I464   I     0.53109   0.94989   0.36512   0.00000  Uiso   1.00
I465   I     0.55909   0.66779   0.05119   0.00000  Uiso   1.00
I466   I     0.41310   0.68369   0.44476   0.00000  Uiso   1.00
N467   N     0.65011   0.81932   0.23783   0.00000  Uiso   1.00
N468   N     0.34989   0.84735   0.26217   0.00000  Uiso   1.00
O469   O     0.46308   0.91286   0.25298   0.00000  Uiso   1.00
O470   O     0.51533   0.74500   0.38897   0.00000  Uiso   1.00
O471   O     0.53692   0.75381   0.24701   0.00000  Uiso   1.00
O472   O     0.55946   0.90387   0.24518   0.00000  Uiso   1.00
O473   O     0.44054   0.76279   0.25481   0.00000  Uiso   1.00
O474   O     0.45181   0.83784   0.31997   0.00000  Uiso   1.00
O475   O     0.54819   0.82883   0.18002   0.00000  Uiso   1.00
O476   O     0.54819   0.82885   0.31217   0.00000  Uiso   1.00
O477   O     0.45181   0.83781   0.18782   0.00000  Uiso   1.00
O478   O     0.55928   0.91186   0.11537   0.00000  Uiso   1.00
Zn479  Zn    0.43565   0.83933   0.25521   0.00000  Uiso   1.00
Zn480  Zn    0.56435   0.82734   0.24479   0.00000  Uiso   1.00
C481   C     0.84858   0.93160   0.24780   0.00000  Uiso   1.00
C482   C     0.84557   0.88301   0.40559   0.00000  Uiso   1.00
C483   C     0.82950   0.83471   0.11588   0.00000  Uiso   1.00
C484   C     0.83689   0.83540   0.38406   0.00000  Uiso   1.00
C485   C     0.85711   0.87700   0.09259   0.00000  Uiso   1.00
C486   C     0.82796   0.78964   0.40793   0.00000  Uiso   1.00
C487   C     0.84888   0.88232   0.04669   0.00000  Uiso   1.00
C488   C     0.81223   0.79216   0.45368   0.00000  Uiso   1.00
C489   C     0.82419   0.83891   0.02373   0.00000  Uiso   1.00
C490   C     0.82603   0.83874   0.47675   0.00000  Uiso   1.00
C491   C     0.80010   0.79457   0.04740   0.00000  Uiso   1.00
C492   C     0.81803   0.73504   0.25108   0.00000  Uiso   1.00
C493   C     0.84497   0.88408   0.45265   0.00000  Uiso   1.00
C494   C     0.86587   0.92826   0.02252   0.00000  Uiso   1.00
C495   C     0.78557   0.74935   0.47702   0.00000  Uiso   1.00
C496   C     0.95057   0.89826   0.10755   0.00000  Uiso   1.00
C497   C     0.98898   0.93007   0.13847   0.00000  Uiso   1.00
C498   C     0.90695   0.74136   0.40076   0.00000  Uiso   1.00
C499   C     0.94803   0.74189   0.35868   0.00000  Uiso   1.00
C500   C     0.86257   0.92876   0.47608   0.00000  Uiso   1.00
C501   C     0.77812   0.75150   0.02351   0.00000  Uiso   1.00
C502   C     0.85658   0.98605   0.24637   0.00000  Uiso   1.00
C503   C     0.80996   0.68059   0.25109   0.00000  Uiso   1.00
C504   C     0.83437   0.83287   0.33644   0.00000  Uiso   1.00
C505   C     0.83227   0.83345   0.16354   0.00000  Uiso   1.00
C506   C     0.79938   0.79416   0.09427   0.00000  Uiso   1.00
H507   H     0.87575   0.96416   0.45855   0.00000  Uiso   1.00
H508   H     0.98537   0.97195   0.13252   0.00000  Uiso   1.00
H509   H     0.97567   0.92125   0.17419   0.00000  Uiso   1.00
H510   H     0.90987   0.70454   0.41873   0.00000  Uiso   1.00
H511   H     0.92354   0.77211   0.42418   0.00000  Uiso   1.00
H512   H     0.95868   0.78222   0.34739   0.00000  Uiso   1.00
H513   H     0.98902   0.72493   0.36643   0.00000  Uiso   1.00
H514   H     0.92842   0.71928   0.33101   0.00000  Uiso   1.00
H515   H     0.75696   0.71812   0.04036   0.00000  Uiso   1.00
H516   H     0.90064   0.66971   0.24215   0.00000  Uiso   1.00
H517   H     0.76591   0.99692   0.25526   0.00000  Uiso   1.00
H518   H     0.67142   0.79465   0.21623   0.00000  Uiso   1.00
H519   H     0.99523   0.87202   0.28376   0.00000  Uiso   1.00
H520   H     0.96623   0.90644   0.07208   0.00000  Uiso   1.00
H521   H     0.95539   0.85656   0.11440   0.00000  Uiso   1.00
H522   H     0.70142   0.92066   0.13175   0.00000  Uiso   1.00
I523   I     0.75871   0.73052   0.13302   0.00000  Uiso   1.00
I524   I     0.86443   0.94989   0.36512   0.00000  Uiso   1.00
I525   I     0.89242   0.66779   0.05119   0.00000  Uiso   1.00
I526   I     0.74643   0.68369   0.44476   0.00000  Uiso   1.00
N527   N     0.98344   0.81932   0.23783   0.00000  Uiso   1.00
N528   N     0.68322   0.84735   0.26217   0.00000  Uiso   1.00
O529   O     0.79642   0.91286   0.25298   0.00000  Uiso   1.00
O530   O     0.84867   0.74500   0.38897   0.00000  Uiso   1.00
O531   O     0.87025   0.75381   0.24701   0.00000  Uiso   1.00
O532   O     0.89280   0.90387   0.24518   0.00000  Uiso   1.00
O533   O     0.77387   0.76279   0.25481   0.00000  Uiso   1.00
O534   O     0.78514   0.83784   0.31997   0.00000  Uiso   1.00
O535   O     0.88153   0.82883   0.18002   0.00000  Uiso   1.00
O536   O     0.88152   0.82885   0.31217   0.00000  Uiso   1.00
O537   O     0.78515   0.83781   0.18782   0.00000  Uiso   1.00
O538   O     0.89261   0.91186   0.11537   0.00000  Uiso   1.00
Zn539  Zn    0.76898   0.83933   0.25521   0.00000  Uiso   1.00
Zn540  Zn    0.89769   0.82734   0.24479   0.00000  Uiso   1.00
C541   C     0.18192   0.26493   0.74780   0.00000  Uiso   1.00
C542   C     0.17891   0.21635   0.90559   0.00000  Uiso   1.00
C543   C     0.16284   0.16804   0.61588   0.00000  Uiso   1.00
C544   C     0.17022   0.16873   0.88406   0.00000  Uiso   1.00
C545   C     0.19044   0.21033   0.59259   0.00000  Uiso   1.00
C546   C     0.16130   0.12297   0.90793   0.00000  Uiso   1.00
C547   C     0.18221   0.21565   0.54669   0.00000  Uiso   1.00
C548   C     0.14556   0.12549   0.95368   0.00000  Uiso   1.00
C549   C     0.15752   0.17225   0.52373   0.00000  Uiso   1.00
C550   C     0.15936   0.17208   0.97675   0.00000  Uiso   1.00
C551   C     0.13343   0.12791   0.54740   0.00000  Uiso   1.00
C552   C     0.15136   0.06837   0.75108   0.00000  Uiso   1.00
C553   C     0.17831   0.21741   0.95265   0.00000  Uiso   1.00
C554   C     0.19920   0.26159   0.52252   0.00000  Uiso   1.00
C555   C     0.11890   0.08269   0.97702   0.00000  Uiso   1.00
C556   C     0.28390   0.23159   0.60755   0.00000  Uiso   1.00
C557   C     0.32231   0.26341   0.63847   0.00000  Uiso   1.00
C558   C     0.24029   0.07469   0.90076   0.00000  Uiso   1.00
C559   C     0.28137   0.07523   0.85868   0.00000  Uiso   1.00
C560   C     0.19590   0.26209   0.97608   0.00000  Uiso   1.00
C561   C     0.11146   0.08483   0.52351   0.00000  Uiso   1.00
C562   C     0.18992   0.31938   0.74637   0.00000  Uiso   1.00
C563   C     0.14330   0.01393   0.75109   0.00000  Uiso   1.00
C564   C     0.16770   0.16620   0.83644   0.00000  Uiso   1.00
C565   C     0.16560   0.16678   0.66354   0.00000  Uiso   1.00
C566   C     0.13272   0.12750   0.59427   0.00000  Uiso   1.00
H567   H     0.20908   0.29750   0.95855   0.00000  Uiso   1.00
H568   H     0.31871   0.30529   0.63252   0.00000  Uiso   1.00
H569   H     0.30901   0.25458   0.67419   0.00000  Uiso   1.00
H570   H     0.24321   0.03787   0.91873   0.00000  Uiso   1.00
H571   H     0.25687   0.10544   0.92418   0.00000  Uiso   1.00
H572   H     0.29202   0.11555   0.84739   0.00000  Uiso   1.00
H573   H     0.32236   0.05827   0.86643   0.00000  Uiso   1.00
H574   H     0.26175   0.05261   0.83101   0.00000  Uiso   1.00
H575   H     0.09029   0.05145   0.54036   0.00000  Uiso   1.00
H576   H     0.23397   0.00305   0.74215   0.00000  Uiso   1.00
H577   H     0.09924   0.33025   0.75526   0.00000  Uiso   1.00
H578   H     0.00475   0.12798   0.71623   0.00000  Uiso   1.00
H579   H     0.32857   0.20536   0.78376   0.00000  Uiso   1.00
H580   H     0.29956   0.23978   0.57208   0.00000  Uiso   1.00
H581   H     0.28872   0.18990   0.61440   0.00000  Uiso   1.00
H582   H     0.03476   0.25399   0.63175   0.00000  Uiso   1.00
I583   I     0.09205   0.06385   0.63302   0.00000  Uiso   1.00
I584   I     0.19776   0.28323   0.86512   0.00000  Uiso   1.00
I585   I     0.22576   0.00112   0.55119   0.00000  Uiso   1.00
I586   I     0.07977   0.01702   0.94476   0.00000  Uiso   1.00
N587   N     0.31678   0.15265   0.73783   0.00000  Uiso   1.00
N588   N     0.01656   0.18068   0.76217   0.00000  Uiso   1.00
O589   O     0.12975   0.24619   0.75298   0.00000  Uiso   1.00
O590   O     0.18200   0.07834   0.88897   0.00000  Uiso   1.00
O591   O     0.20358   0.08714   0.74701   0.00000  Uiso   1.00
O592   O     0.22613   0.23721   0.74518   0.00000  Uiso   1.00
O593   O     0.10720   0.09613   0.75481   0.00000  Uiso   1.00
O594   O     0.11847   0.17117   0.81997   0.00000  Uiso   1.00
O595   O     0.21486   0.16216   0.68002   0.00000  Uiso   1.00
O596   O     0.21485   0.16219   0.81217   0.00000  Uiso   1.00
O597   O     0.11848   0.17115   0.68782   0.00000  Uiso   1.00
O598   O     0.22594   0.24519   0.61537   0.00000  Uiso   1.00
Zn599  Zn    0.10231   0.17266   0.75521   0.00000  Uiso   1.00
Zn600  Zn    0.23102   0.16067   0.74479   0.00000  Uiso   1.00
C601   C     0.51525   0.26493   0.74780   0.00000  Uiso   1.00
C602   C     0.51224   0.21635   0.90559   0.00000  Uiso   1.00
C603   C     0.49617   0.16804   0.61588   0.00000  Uiso   1.00
C604   C     0.50355   0.16873   0.88406   0.00000  Uiso   1.00
C605   C     0.52377   0.21033   0.59259   0.00000  Uiso   1.00
C606   C     0.49463   0.12297   0.90793   0.00000  Uiso   1.00
C607   C     0.51555   0.21565   0.54669   0.00000  Uiso   1.00
C608   C     0.47889   0.12549   0.95368   0.00000  Uiso   1.00
C609   C     0.49085   0.17225   0.52373   0.00000  Uiso   1.00
C610   C     0.49269   0.17208   0.97675   0.00000  Uiso   1.00
C611   C     0.46677   0.12791   0.54740   0.00000  Uiso   1.00
C612   C     0.48470   0.06837   0.75108   0.00000  Uiso   1.00
C613   C     0.51164   0.21741   0.95265   0.00000  Uiso   1.00
C614   C     0.53254   0.26159   0.52252   0.00000  Uiso   1.00
C615   C     0.45223   0.08269   0.97702   0.00000  Uiso   1.00
C616   C     0.61723   0.23159   0.60755   0.00000  Uiso   1.00
C617   C     0.65564   0.26341   0.63847   0.00000  Uiso   1.00
C618   C     0.57362   0.07469   0.90076   0.00000  Uiso   1.00
C619   C     0.61470   0.07523   0.85868   0.00000  Uiso   1.00
C620   C     0.52924   0.26209   0.97608   0.00000  Uiso   1.00
C621   C     0.44479   0.08483   0.52351   0.00000  Uiso   1.00
C622   C     0.52325   0.31938   0.74637   0.00000  Uiso   1.00
C623   C     0.47663   0.01393   0.75109   0.00000  Uiso   1.00
C624   C     0.50103   0.16620   0.83644   0.00000  Uiso   1.00
C625   C     0.49894   0.16678   0.66354   0.00000  Uiso   1.00
C626   C     0.46605   0.12750   0.59427   0.00000  Uiso   1.00
H627   H     0.54242   0.29750   0.95855   0.00000  Uiso   1.00
H628   H     0.65204   0.30529   0.63252   0.00000  Uiso   1.00
H629   H     0.64234   0.25458   0.67419   0.00000  Uiso   1.00
H630   H     0.57654   0.03787   0.91873   0.00000  Uiso   1.00
H631   H     0.59020   0.10544   0.92418   0.00000  Uiso   1.00
H632   H     0.62535   0.11555   0.84739   0.00000  Uiso   1.00
H633   H     0.65569   0.05827   0.86643   0.00000  Uiso   1.00
H634   H     0.59508   0.05261   0.83101   0.00000  Uiso   1.00
H635   H     0.42362   0.05145   0.54036   0.00000  Uiso   1.00
H636   H     0.56731   0.00305   0.74215   0.00000  Uiso   1.00
H637   H     0.43257   0.33025   0.75526   0.00000  Uiso   1.00
H638   H     0.33809   0.12798   0.71623   0.00000  Uiso   1.00
H639   H     0.66190   0.20536   0.78376   0.00000  Uiso   1.00
H640   H     0.63290   0.23978   0.57208   0.00000  Uiso   1.00
H641   H     0.62205   0.18990   0.61440   0.00000  Uiso   1.00
H642   H     0.36809   0.25399   0.63175   0.00000  Uiso   1.00
I643   I     0.42538   0.06385   0.63302   0.00000  Uiso   1.00
I644   I     0.53109   0.28323   0.86512   0.00000  Uiso   1.00
I645   I     0.55909   0.00112   0.55119   0.00000  Uiso   1.00
I646   I     0.41310   0.01702   0.94476   0.00000  Uiso   1.00
N647   N     0.65011   0.15265   0.73783   0.00000  Uiso   1.00
N648   N     0.34989   0.18068   0.76217   0.00000  Uiso   1.00
O649   O     0.46308   0.24619   0.75298   0.00000  Uiso   1.00
O650   O     0.51533   0.07834   0.88897   0.00000  Uiso   1.00
O651   O     0.53692   0.08714   0.74701   0.00000  Uiso   1.00
O652   O     0.55946   0.23721   0.74518   0.00000  Uiso   1.00
O653   O     0.44054   0.09613   0.75481   0.00000  Uiso   1.00
O654   O     0.45181   0.17117   0.81997   0.00000  Uiso   1.00
O655   O     0.54819   0.16216   0.68002   0.00000  Uiso   1.00
O656   O     0.54819   0.16219   0.81217   0.00000  Uiso   1.00
O657   O     0.45181   0.17115   0.68782   0.00000  Uiso   1.00
O658   O     0.55928   0.24519   0.61537   0.00000  Uiso   1.00
Zn659  Zn    0.43565   0.17266   0.75521   0.00000  Uiso   1.00
Zn660  Zn    0.56435   0.16067   0.74479   0.00000  Uiso   1.00
C661   C     0.84858   0.26493   0.74780   0.00000  Uiso   1.00
C662   C     0.84557   0.21635   0.90559   0.00000  Uiso   1.00
C663   C     0.82950   0.16804   0.61588   0.00000  Uiso   1.00
C664   C     0.83689   0.16873   0.88406   0.00000  Uiso   1.00
C665   C     0.85711   0.21033   0.59259   0.00000  Uiso   1.00
C666   C     0.82796   0.12297   0.90793   0.00000  Uiso   1.00
C667   C     0.84888   0.21565   0.54669   0.00000  Uiso   1.00
C668   C     0.81223   0.12549   0.95368   0.00000  Uiso   1.00
C669   C     0.82419   0.17225   0.52373   0.00000  Uiso   1.00
C670   C     0.82603   0.17208   0.97675   0.00000  Uiso   1.00
C671   C     0.80010   0.12791   0.54740   0.00000  Uiso   1.00
C672   C     0.81803   0.06837   0.75108   0.00000  Uiso   1.00
C673   C     0.84497   0.21741   0.95265   0.00000  Uiso   1.00
C674   C     0.86587   0.26159   0.52252   0.00000  Uiso   1.00
C675   C     0.78557   0.08269   0.97702   0.00000  Uiso   1.00
C676   C     0.95057   0.23159   0.60755   0.00000  Uiso   1.00
C677   C     0.98898   0.26341   0.63847   0.00000  Uiso   1.00
C678   C     0.90695   0.07469   0.90076   0.00000  Uiso   1.00
C679   C     0.94803   0.07523   0.85868   0.00000  Uiso   1.00
C680   C     0.86257   0.26209   0.97608   0.00000  Uiso   1.00
C681   C     0.77812   0.08483   0.52351   0.00000  Uiso   1.00
C682   C     0.85658   0.31938   0.74637   0.00000  Uiso   1.00
C683   C     0.80996   0.01393   0.75109   0.00000  Uiso   1.00
C684   C     0.83437   0.16620   0.83644   0.00000  Uiso   1.00
C685   C     0.83227   0.16678   0.66354   0.00000  Uiso   1.00
C686   C     0.79938   0.12750   0.59427   0.00000  Uiso   1.00
H687   H     0.87575   0.29750   0.95855   0.00000  Uiso   1.00
H688   H     0.98537   0.30529   0.63252   0.00000  Uiso   1.00
H689   H     0.97567   0.25458   0.67419   0.00000  Uiso   1.00
H690   H     0.90987   0.03787   0.91873   0.00000  Uiso   1.00
H691   H     0.92354   0.10544   0.92418   0.00000  Uiso   1.00
H692   H     0.95868   0.11555   0.84739   0.00000  Uiso   1.00
H693   H     0.98902   0.05827   0.86643   0.00000  Uiso   1.00
H694   H     0.92842   0.05261   0.83101   0.00000  Uiso   1.00
H695   H     0.75696   0.05145   0.54036   0.00000  Uiso   1.00
H696   H     0.90064   0.00305   0.74215   0.00000  Uiso   1.00
H697   H     0.76591   0.33025   0.75526   0.00000  Uiso   1.00
H698   H     0.67142   0.12798   0.71623   0.00000  Uiso   1.00
H699   H     0.99523   0.20536   0.78376   0.00000  Uiso   1.00
H700   H     0.96623   0.23978   0.57208   0.00000  Uiso   1.00
H701   H     0.95539   0.18990   0.61440   0.00000  Uiso   1.00
H702   H     0.70142   0.25399   0.63175   0.00000  Uiso   1.00
I703   I     0.75871   0.06385   0.63302   0.00000  Uiso   1.00
I704   I     0.86443   0.28323   0.86512   0.00000  Uiso   1.00
I705   I     0.89242   0.00112   0.55119   0.00000  Uiso   1.00
I706   I     0.74643   0.01702   0.94476   0.00000  Uiso   1.00
N707   N     0.98344   0.15265   0.73783   0.00000  Uiso   1.00
N708   N     0.68322   0.18068   0.76217   0.00000  Uiso   1.00
O709   O     0.79642   0.24619   0.75298   0.00000  Uiso   1.00
O710   O     0.84867   0.07834   0.88897   0.00000  Uiso   1.00
O711   O     0.87025   0.08714   0.74701   0.00000  Uiso   1.00
O712   O     0.89280   0.23721   0.74518   0.00000  Uiso   1.00
O713   O     0.77387   0.09613   0.75481   0.00000  Uiso   1.00
O714   O     0.78514   0.17117   0.81997   0.00000  Uiso   1.00
O715   O     0.88153   0.16216   0.68002   0.00000  Uiso   1.00
O716   O     0.88152   0.16219   0.81217   0.00000  Uiso   1.00
O717   O     0.78515   0.17115   0.68782   0.00000  Uiso   1.00
O718   O     0.89261   0.24519   0.61537   0.00000  Uiso   1.00
Zn719  Zn    0.76898   0.17266   0.75521   0.00000  Uiso   1.00
Zn720  Zn    0.89769   0.16067   0.74479   0.00000  Uiso   1.00
C721   C     0.18192   0.59827   0.74780   0.00000  Uiso   1.00
C722   C     0.17891   0.54968   0.90559   0.00000  Uiso   1.00
C723   C     0.16284   0.50137   0.61588   0.00000  Uiso   1.00
C724   C     0.17022   0.50207   0.88406   0.00000  Uiso   1.00
C725   C     0.19044   0.54367   0.59259   0.00000  Uiso   1.00
C726   C     0.16130   0.45631   0.90793   0.00000  Uiso   1.00
C727   C     0.18221   0.54899   0.54669   0.00000  Uiso   1.00
C728   C     0.14556   0.45882   0.95368   0.00000  Uiso   1.00
C729   C     0.15752   0.50558   0.52373   0.00000  Uiso   1.00
C730   C     0.15936   0.50541   0.97675   0.00000  Uiso   1.00
C731   C     0.13343   0.46124   0.54740   0.00000  Uiso   1.00
C732   C     0.15136   0.40170   0.75108   0.00000  Uiso   1.00
C733   C     0.17831   0.55074   0.95265   0.00000  Uiso   1.00
C734   C     0.19920   0.59493   0.52252   0.00000  Uiso   1.00
C735   C     0.11890   0.41602   0.97702   0.00000  Uiso   1.00
C736   C     0.28390   0.56493   0.60755   0.00000  Uiso   1.00
C737   C     0.32231   0.59674   0.63847   0.00000  Uiso   1.00
C738   C     0.24029   0.40803   0.90076   0.00000  Uiso   1.00
C739   C     0.28137   0.40856   0.85868   0.00000  Uiso   1.00
C740   C     0.19590   0.59542   0.97608   0.00000  Uiso   1.00
C741   C     0.11146   0.41816   0.52351   0.00000  Uiso   1.00
C742   C     0.18992   0.65271   0.74637   0.00000  Uiso   1.00
C743   C     0.14330   0.34726   0.75109   0.00000  Uiso   1.00
C744   C     0.16770   0.49953   0.83644   0.00000  Uiso   1.00
C745   C     0.16560   0.50011   0.66354   0.00000  Uiso   1.00
C746   C     0.13272   0.46083   0.59427   0.00000  Uiso   1.00
H747   H     0.20908   0.63083   0.95855   0.00000  Uiso   1.00
H748   H     0.31871   0.63862   0.63252   0.00000  Uiso   1.00
H749   H     0.30901   0.58792   0.67419   0.00000  Uiso   1.00
H750   H     0.24321   0.37121   0.91873   0.00000  Uiso   1.00
H751   H     0.25687   0.43878   0.92418   0.00000  Uiso   1.00
H752   H     0.29202   0.44888   0.84739   0.00000  Uiso   1.00
H753   H     0.32236   0.39160   0.86643   0.00000  Uiso   1.00
H754   H     0.26175   0.38594   0.83101   0.00000  Uiso   1.00
H755   H     0.09029   0.38478   0.54036   0.00000  Uiso   1.00
H756   H     0.23397   0.33638   0.74215   0.00000  Uiso   1.00
H757   H     0.09924   0.66359   0.75526   0.00000  Uiso   1.00
H758   H     0.00475   0.46132   0.71623   0.00000  Uiso   1.00
H759   H     0.32857   0.53869   0.78376   0.00000  Uiso   1.00
H760   H     0.29956   0.57311   0.57208   0.00000  Uiso   1.00
H761   H     0.28872   0.52323   0.61440   0.00000  Uiso   1.00
H762   H     0.03476   0.58733   0.63175   0.00000  Uiso   1.00
I763   I     0.09205   0.39718   0.63302   0.00000  Uiso   1.00
I764   I     0.19776   0.61656   0.86512   0.00000  Uiso   1.00
I765   I     0.22576   0.33446   0.55119   0.00000  Uiso   1.00
I766   I     0.07977   0.35035   0.94476   0.00000  Uiso   1.00
N767   N     0.31678   0.48598   0.73783   0.00000  Uiso   1.00
N768   N     0.01656   0.51402   0.76217   0.00000  Uiso   1.00
O769   O     0.12975   0.57952   0.75298   0.00000  Uiso   1.00
O770   O     0.18200   0.41167   0.88897   0.00000  Uiso   1.00
O771   O     0.20358   0.42048   0.74701   0.00000  Uiso   1.00
O772   O     0.22613   0.57054   0.74518   0.00000  Uiso   1.00
O773   O     0.10720   0.42946   0.75481   0.00000  Uiso   1.00
O774   O     0.11847   0.50450   0.81997   0.00000  Uiso   1.00
O775   O     0.21486   0.49550   0.68002   0.00000  Uiso   1.00
O776   O     0.21485   0.49552   0.81217   0.00000  Uiso   1.00
O777   O     0.11848   0.50448   0.68782   0.00000  Uiso   1.00
O778   O     0.22594   0.57852   0.61537   0.00000  Uiso   1.00
Zn779  Zn    0.10231   0.50600   0.75521   0.00000  Uiso   1.00
Zn780  Zn    0.23102   0.49400   0.74479   0.00000  Uiso   1.00
C781   C     0.51525   0.59827   0.74780   0.00000  Uiso   1.00
C782   C     0.51224   0.54968   0.90559   0.00000  Uiso   1.00
C783   C     0.49617   0.50137   0.61588   0.00000  Uiso   1.00
C784   C     0.50355   0.50207   0.88406   0.00000  Uiso   1.00
C785   C     0.52377   0.54367   0.59259   0.00000  Uiso   1.00
C786   C     0.49463   0.45631   0.90793   0.00000  Uiso   1.00
C787   C     0.51555   0.54899   0.54669   0.00000  Uiso   1.00
C788   C     0.47889   0.45882   0.95368   0.00000  Uiso   1.00
C789   C     0.49085   0.50558   0.52373   0.00000  Uiso   1.00
C790   C     0.49269   0.50541   0.97675   0.00000  Uiso   1.00
C791   C     0.46677   0.46124   0.54740   0.00000  Uiso   1.00
C792   C     0.48470   0.40170   0.75108   0.00000  Uiso   1.00
C793   C     0.51164   0.55074   0.95265   0.00000  Uiso   1.00
C794   C     0.53254   0.59493   0.52252   0.00000  Uiso   1.00
C795   C     0.45223   0.41602   0.97702   0.00000  Uiso   1.00
C796   C     0.61723   0.56493   0.60755   0.00000  Uiso   1.00
C797   C     0.65564   0.59674   0.63847   0.00000  Uiso   1.00
C798   C     0.57362   0.40803   0.90076   0.00000  Uiso   1.00
C799   C     0.61470   0.40856   0.85868   0.00000  Uiso   1.00
C800   C     0.52924   0.59542   0.97608   0.00000  Uiso   1.00
C801   C     0.44479   0.41816   0.52351   0.00000  Uiso   1.00
C802   C     0.52325   0.65271   0.74637   0.00000  Uiso   1.00
C803   C     0.47663   0.34726   0.75109   0.00000  Uiso   1.00
C804   C     0.50103   0.49953   0.83644   0.00000  Uiso   1.00
C805   C     0.49894   0.50011   0.66354   0.00000  Uiso   1.00
C806   C     0.46605   0.46083   0.59427   0.00000  Uiso   1.00
H807   H     0.54242   0.63083   0.95855   0.00000  Uiso   1.00
H808   H     0.65204   0.63862   0.63252   0.00000  Uiso   1.00
H809   H     0.64234   0.58792   0.67419   0.00000  Uiso   1.00
H810   H     0.57654   0.37121   0.91873   0.00000  Uiso   1.00
H811   H     0.59020   0.43878   0.92418   0.00000  Uiso   1.00
H812   H     0.62535   0.44888   0.84739   0.00000  Uiso   1.00
H813   H     0.65569   0.39160   0.86643   0.00000  Uiso   1.00
H814   H     0.59508   0.38594   0.83101   0.00000  Uiso   1.00
H815   H     0.42362   0.38478   0.54036   0.00000  Uiso   1.00
H816   H     0.56731   0.33638   0.74215   0.00000  Uiso   1.00
H817   H     0.43257   0.66359   0.75526   0.00000  Uiso   1.00
H818   H     0.33809   0.46132   0.71623   0.00000  Uiso   1.00
H819   H     0.66190   0.53869   0.78376   0.00000  Uiso   1.00
H820   H     0.63290   0.57311   0.57208   0.00000  Uiso   1.00
H821   H     0.62205   0.52323   0.61440   0.00000  Uiso   1.00
H822   H     0.36809   0.58733   0.63175   0.00000  Uiso   1.00
I823   I     0.42538   0.39718   0.63302   0.00000  Uiso   1.00
I824   I     0.53109   0.61656   0.86512   0.00000  Uiso   1.00
I825   I     0.55909   0.33446   0.55119   0.00000  Uiso   1.00
I826   I     0.41310   0.35035   0.94476   0.00000  Uiso   1.00
N827   N     0.65011   0.48598   0.73783   0.00000  Uiso   1.00
N828   N     0.34989   0.51402   0.76217   0.00000  Uiso   1.00
O829   O     0.46308   0.57952   0.75298   0.00000  Uiso   1.00
O830   O     0.51533   0.41167   0.88897   0.00000  Uiso   1.00
O831   O     0.53692   0.42048   0.74701   0.00000  Uiso   1.00
O832   O     0.55946   0.57054   0.74518   0.00000  Uiso   1.00
O833   O     0.44054   0.42946   0.75481   0.00000  Uiso   1.00
O834   O     0.45181   0.50450   0.81997   0.00000  Uiso   1.00
O835   O     0.54819   0.49550   0.68002   0.00000  Uiso   1.00
O836   O     0.54819   0.49552   0.81217   0.00000  Uiso   1.00
O837   O     0.45181   0.50448   0.68782   0.00000  Uiso   1.00
O838   O     0.55928   0.57852   0.61537   0.00000  Uiso   1.00
Zn839  Zn    0.43565   0.50600   0.75521   0.00000  Uiso   1.00
Zn840  Zn    0.56435   0.49400   0.74479   0.00000  Uiso   1.00
C841   C     0.84858   0.59827   0.74780   0.00000  Uiso   1.00
C842   C     0.84557   0.54968   0.90559   0.00000  Uiso   1.00
C843   C     0.82950   0.50137   0.61588   0.00000  Uiso   1.00
C844   C     0.83689   0.50207   0.88406   0.00000  Uiso   1.00
C845   C     0.85711   0.54367   0.59259   0.00000  Uiso   1.00
C846   C     0.82796   0.45631   0.90793   0.00000  Uiso   1.00
C847   C     0.84888   0.54899   0.54669   0.00000  Uiso   1.00
C848   C     0.81223   0.45882   0.95368   0.00000  Uiso   1.00
C849   C     0.82419   0.50558   0.52373   0.00000  Uiso   1.00
C850   C     0.82603   0.50541   0.97675   0.00000  Uiso   1.00
C851   C     0.80010   0.46124   0.54740   0.00000  Uiso   1.00
C852   C     0.81803   0.40170   0.75108   0.00000  Uiso   1.00
C853   C     0.84497   0.55074   0.95265   0.00000  Uiso   1.00
C854   C     0.86587   0.59493   0.52252   0.00000  Uiso   1.00
C855   C     0.78557   0.41602   0.97702   0.00000  Uiso   1.00
C856   C     0.95057   0.56493   0.60755   0.00000  Uiso   1.00
C857   C     0.98898   0.59674   0.63847   0.00000  Uiso   1.00
C858   C     0.90695   0.40803   0.90076   0.00000  Uiso   1.00
C859   C     0.94803   0.40856   0.85868   0.00000  Uiso   1.00
C860   C     0.86257   0.59542   0.97608   0.00000  Uiso   1.00
C861   C     0.77812   0.41816   0.52351   0.00000  Uiso   1.00
C862   C     0.85658   0.65271   0.74637   0.00000  Uiso   1.00
C863   C     0.80996   0.34726   0.75109   0.00000  Uiso   1.00
C864   C     0.83437   0.49953   0.83644   0.00000  Uiso   1.00
C865   C     0.83227   0.50011   0.66354   0.00000  Uiso   1.00
C866   C     0.79938   0.46083   0.59427   0.00000  Uiso   1.00
H867   H     0.87575   0.63083   0.95855   0.00000  Uiso   1.00
H868   H     0.98537   0.63862   0.63252   0.00000  Uiso   1.00
H869   H     0.97567   0.58792   0.67419   0.00000  Uiso   1.00
H870   H     0.90987   0.37121   0.91873   0.00000  Uiso   1.00
H871   H     0.92354   0.43878   0.92418   0.00000  Uiso   1.00
H872   H     0.95868   0.44888   0.84739   0.00000  Uiso   1.00
H873   H     0.98902   0.39160   0.86643   0.00000  Uiso   1.00
H874   H     0.92842   0.38594   0.83101   0.00000  Uiso   1.00
H875   H     0.75696   0.38478   0.54036   0.00000  Uiso   1.00
H876   H     0.90064   0.33638   0.74215   0.00000  Uiso   1.00
H877   H     0.76591   0.66359   0.75526   0.00000  Uiso   1.00
H878   H     0.67142   0.46132   0.71623   0.00000  Uiso   1.00
H879   H     0.99523   0.53869   0.78376   0.00000  Uiso   1.00
H880   H     0.96623   0.57311   0.57208   0.00000  Uiso   1.00
H881   H     0.95539   0.52323   0.61440   0.00000  Uiso   1.00
H882   H     0.70142   0.58733   0.63175   0.00000  Uiso   1.00
I883   I     0.75871   0.39718   0.63302   0.00000  Uiso   1.00
I884   I     0.86443   0.61656   0.86512   0.00000  Uiso   1.00
I885   I     0.89242   0.33446   0.55119   0.00000  Uiso   1.00
I886   I     0.74643   0.35035   0.94476   0.00000  Uiso   1.00
N887   N     0.98344   0.48598   0.73783   0.00000  Uiso   1.00
N888   N     0.68322   0.51402   0.76217   0.00000  Uiso   1.00
O889   O     0.79642   0.57952   0.75298   0.00000  Uiso   1.00
O890   O     0.84867   0.41167   0.88897   0.00000  Uiso   1.00
O891   O     0.87025   0.42048   0.74701   0.00000  Uiso   1.00
O892   O     0.89280   0.57054   0.74518   0.00000  Uiso   1.00
O893   O     0.77387   0.42946   0.75481   0.00000  Uiso   1.00
O894   O     0.78514   0.50450   0.81997   0.00000  Uiso   1.00
O895   O     0.88153   0.49550   0.68002   0.00000  Uiso   1.00
O896   O     0.88152   0.49552   0.81217   0.00000  Uiso   1.00
O897   O     0.78515   0.50448   0.68782   0.00000  Uiso   1.00
O898   O     0.89261   0.57852   0.61537   0.00000  Uiso   1.00
Zn899  Zn    0.76898   0.50600   0.75521   0.00000  Uiso   1.00
Zn900  Zn    0.89769   0.49400   0.74479   0.00000  Uiso   1.00
C901   C     0.18192   0.93160   0.74780   0.00000  Uiso   1.00
C902   C     0.17891   0.88301   0.90559   0.00000  Uiso   1.00
C903   C     0.16284   0.83471   0.61588   0.00000  Uiso   1.00
C904   C     0.17022   0.83540   0.88406   0.00000  Uiso   1.00
C905   C     0.19044   0.87700   0.59259   0.00000  Uiso   1.00
C906   C     0.16130   0.78964   0.90793   0.00000  Uiso   1.00
C907   C     0.18221   0.88232   0.54669   0.00000  Uiso   1.00
C908   C     0.14556   0.79216   0.95368   0.00000  Uiso   1.00
C909   C     0.15752   0.83891   0.52373   0.00000  Uiso   1.00
C910   C     0.15936   0.83874   0.97675   0.00000  Uiso   1.00
C911   C     0.13343   0.79457   0.54740   0.00000  Uiso   1.00
C912   C     0.15136   0.73504   0.75108   0.00000  Uiso   1.00
C913   C     0.17831   0.88408   0.95265   0.00000  Uiso   1.00
C914   C     0.19920   0.92826   0.52252   0.00000  Uiso   1.00
C915   C     0.11890   0.74935   0.97702   0.00000  Uiso   1.00
C916   C     0.28390   0.89826   0.60755   0.00000  Uiso   1.00
C917   C     0.32231   0.93007   0.63847   0.00000  Uiso   1.00
C918   C     0.24029   0.74136   0.90076   0.00000  Uiso   1.00
C919   C     0.28137   0.74189   0.85868   0.00000  Uiso   1.00
C920   C     0.19590   0.92876   0.97608   0.00000  Uiso   1.00
C921   C     0.11146   0.75150   0.52351   0.00000  Uiso   1.00
C922   C     0.18992   0.98605   0.74637   0.00000  Uiso   1.00
C923   C     0.14330   0.68059   0.75109   0.00000  Uiso   1.00
C924   C     0.16770   0.83287   0.83644   0.00000  Uiso   1.00
C925   C     0.16560   0.83345   0.66354   0.00000  Uiso   1.00
C926   C     0.13272   0.79416   0.59427   0.00000  Uiso   1.00
H927   H     0.20908   0.96416   0.95855   0.00000  Uiso   1.00
H928   H     0.31871   0.97195   0.63252   0.00000  Uiso   1.00
H929   H     0.30901   0.92125   0.67419   0.00000  Uiso   1.00
H930   H     0.24321   0.70454   0.91873   0.00000  Uiso   1.00
H931   H     0.25687   0.77211   0.92418   0.00000  Uiso   1.00
H932   H     0.29202   0.78222   0.84739   0.00000  Uiso   1.00
H933   H     0.32236   0.72493   0.86643   0.00000  Uiso   1.00
H934   H     0.26175   0.71928   0.83101   0.00000  Uiso   1.00
H935   H     0.09029   0.71812   0.54036   0.00000  Uiso   1.00
H936   H     0.23397   0.66971   0.74215   0.00000  Uiso   1.00
H937   H     0.09924   0.99692   0.75526   0.00000  Uiso   1.00
H938   H     0.00475   0.79465   0.71623   0.00000  Uiso   1.00
H939   H     0.32857   0.87202   0.78376   0.00000  Uiso   1.00
H940   H     0.29956   0.90644   0.57208   0.00000  Uiso   1.00
H941   H     0.28872   0.85656   0.61440   0.00000  Uiso   1.00
H942   H     0.03476   0.92066   0.63175   0.00000  Uiso   1.00
I943   I     0.09205   0.73052   0.63302   0.00000  Uiso   1.00
I944   I     0.19776   0.94989   0.86512   0.00000  Uiso   1.00
I945   I     0.22576   0.66779   0.55119   0.00000  Uiso   1.00
I946   I     0.07977   0.68369   0.94476   0.00000  Uiso   1.00
N947   N     0.31678   0.81932   0.73783   0.00000  Uiso   1.00
N948   N     0.01656   0.84735   0.76217   0.00000  Uiso   1.00
O949   O     0.12975   0.91286   0.75298   0.00000  Uiso   1.00
O950   O     0.18200   0.74500   0.88897   0.00000  Uiso   1.00
O951   O     0.20358   0.75381   0.74701   0.00000  Uiso   1.00
O952   O     0.22613   0.90387   0.74518   0.00000  Uiso   1.00
O953   O     0.10720   0.76279   0.75481   0.00000  Uiso   1.00
O954   O     0.11847   0.83784   0.81997   0.00000  Uiso   1.00
O955   O     0.21486   0.82883   0.68002   0.00000  Uiso   1.00
O956   O     0.21485   0.82885   0.81217   0.00000  Uiso   1.00
O957   O     0.11848   0.83781   0.68782   0.00000  Uiso   1.00
O958   O     0.22594   0.91186   0.61537   0.00000  Uiso   1.00
Zn959  Zn    0.10231   0.83933   0.75521   0.00000  Uiso   1.00
Zn960  Zn    0.23102   0.82734   0.74479   0.00000  Uiso   1.00
C961   C     0.51525   0.93160   0.74780   0.00000  Uiso   1.00
C962   C     0.51224   0.88301   0.90559   0.00000  Uiso   1.00
C963   C     0.49617   0.83471   0.61588   0.00000  Uiso   1.00
C964   C     0.50355   0.83540   0.88406   0.00000  Uiso   1.00
C965   C     0.52377   0.87700   0.59259   0.00000  Uiso   1.00
C966   C     0.49463   0.78964   0.90793   0.00000  Uiso   1.00
C967   C     0.51555   0.88232   0.54669   0.00000  Uiso   1.00
C968   C     0.47889   0.79216   0.95368   0.00000  Uiso   1.00
C969   C     0.49085   0.83891   0.52373   0.00000  Uiso   1.00
C970   C     0.49269   0.83874   0.97675   0.00000  Uiso   1.00
C971   C     0.46677   0.79457   0.54740   0.00000  Uiso   1.00
C972   C     0.48470   0.73504   0.75108   0.00000  Uiso   1.00
C973   C     0.51164   0.88408   0.95265   0.00000  Uiso   1.00
C974   C     0.53254   0.92826   0.52252   0.00000  Uiso   1.00
C975   C     0.45223   0.74935   0.97702   0.00000  Uiso   1.00
C976   C     0.61723   0.89826   0.60755   0.00000  Uiso   1.00
C977   C     0.65564   0.93007   0.63847   0.00000  Uiso   1.00
C978   C     0.57362   0.74136   0.90076   0.00000  Uiso   1.00
C979   C     0.61470   0.74189   0.85868   0.00000  Uiso   1.00
C980   C     0.52924   0.92876   0.97608   0.00000  Uiso   1.00
C981   C     0.44479   0.75150   0.52351   0.00000  Uiso   1.00
C982   C     0.52325   0.98605   0.74637   0.00000  Uiso   1.00
C983   C     0.47663   0.68059   0.75109   0.00000  Uiso   1.00
C984   C     0.50103   0.83287   0.83644   0.00000  Uiso   1.00
C985   C     0.49894   0.83345   0.66354   0.00000  Uiso   1.00
C986   C     0.46605   0.79416   0.59427   0.00000  Uiso   1.00
H987   H     0.54242   0.96416   0.95855   0.00000  Uiso   1.00
H988   H     0.65204   0.97195   0.63252   0.00000  Uiso   1.00
H989   H     0.64234   0.92125   0.67419   0.00000  Uiso   1.00
H990   H     0.57654   0.70454   0.91873   0.00000  Uiso   1.00
H991   H     0.59020   0.77211   0.92418   0.00000  Uiso   1.00
H992   H     0.62535   0.78222   0.84739   0.00000  Uiso   1.00
H993   H     0.65569   0.72493   0.86643   0.00000  Uiso   1.00
H994   H     0.59508   0.71928   0.83101   0.00000  Uiso   1.00
H995   H     0.42362   0.71812   0.54036   0.00000  Uiso   1.00
H996   H     0.56731   0.66971   0.74215   0.00000  Uiso   1.00
H997   H     0.43257   0.99692   0.75526   0.00000  Uiso   1.00
H998   H     0.33809   0.79465   0.71623   0.00000  Uiso   1.00
H999   H     0.66190   0.87202   0.78376   0.00000  Uiso   1.00
H1000  H     0.63290   0.90644   0.57208   0.00000  Uiso   1.00
H1001  H     0.62205   0.85656   0.61440   0.00000  Uiso   1.00
H1002  H     0.36809   0.92066   0.63175   0.00000  Uiso   1.00
I1003  I     0.42538   0.73052   0.63302   0.00000  Uiso   1.00
I1004  I     0.53109   0.94989   0.86512   0.00000  Uiso   1.00
I1005  I     0.55909   0.66779   0.55119   0.00000  Uiso   1.00
I1006  I     0.41310   0.68369   0.94476   0.00000  Uiso   1.00
N1007  N     0.65011   0.81932   0.73783   0.00000  Uiso   1.00
N1008  N     0.34989   0.84735   0.76217   0.00000  Uiso   1.00
O1009  O     0.46308   0.91286   0.75298   0.00000  Uiso   1.00
O1010  O     0.51533   0.74500   0.88897   0.00000  Uiso   1.00
O1011  O     0.53692   0.75381   0.74701   0.00000  Uiso   1.00
O1012  O     0.55946   0.90387   0.74518   0.00000  Uiso   1.00
O1013  O     0.44054   0.76279   0.75481   0.00000  Uiso   1.00
O1014  O     0.45181   0.83784   0.81997   0.00000  Uiso   1.00
O1015  O     0.54819   0.82883   0.68002   0.00000  Uiso   1.00
O1016  O     0.54819   0.82885   0.81217   0.00000  Uiso   1.00
O1017  O     0.45181   0.83781   0.68782   0.00000  Uiso   1.00
O1018  O     0.55928   0.91186   0.61537   0.00000  Uiso   1.00
Zn1019 Zn    0.43565   0.83933   0.75521   0.00000  Uiso   1.00
Zn1020 Zn    0.56435   0.82734   0.74479   0.00000  Uiso   1.00
C1021  C     0.84858   0.93160   0.74780   0.00000  Uiso   1.00
C1022  C     0.84557   0.88301   0.90559   0.00000  Uiso   1.00
C1023  C     0.82950   0.83471   0.61588   0.00000  Uiso   1.00
C1024  C     0.83689   0.83540   0.88406   0.00000  Uiso   1.00
C1025  C     0.85711   0.87700   0.59259   0.00000  Uiso   1.00
C1026  C     0.82796   0.78964   0.90793   0.00000  Uiso   1.00
C1027  C     0.84888   0.88232   0.54669   0.00000  Uiso   1.00
C1028  C     0.81223   0.79216   0.95368   0.00000  Uiso   1.00
C1029  C     0.82419   0.83891   0.52373   0.00000  Uiso   1.00
C1030  C     0.82603   0.83874   0.97675   0.00000  Uiso   1.00
C1031  C     0.80010   0.79457   0.54740   0.00000  Uiso   1.00
C1032  C     0.81803   0.73504   0.75108   0.00000  Uiso   1.00
C1033  C     0.84497   0.88408   0.95265   0.00000  Uiso   1.00
C1034  C     0.86587   0.92826   0.52252   0.00000  Uiso   1.00
C1035  C     0.78557   0.74935   0.97702   0.00000  Uiso   1.00
C1036  C     0.95057   0.89826   0.60755   0.00000  Uiso   1.00
C1037  C     0.98898   0.93007   0.63847   0.00000  Uiso   1.00
C1038  C     0.90695   0.74136   0.90076   0.00000  Uiso   1.00
C1039  C     0.94803   0.74189   0.85868   0.00000  Uiso   1.00
C1040  C     0.86257   0.92876   0.97608   0.00000  Uiso   1.00
C1041  C     0.77812   0.75150   0.52351   0.00000  Uiso   1.00
C1042  C     0.85658   0.98605   0.74637   0.00000  Uiso   1.00
C1043  C     0.80996   0.68059   0.75109   0.00000  Uiso   1.00
C1044  C     0.83437   0.83287   0.83644   0.00000  Uiso   1.00
C1045  C     0.83227   0.83345   0.66354   0.00000  Uiso   1.00
C1046  C     0.79938   0.79416   0.59427   0.00000  Uiso   1.00
H1047  H     0.87575   0.96416   0.95855   0.00000  Uiso   1.00
H1048  H     0.98537   0.97195   0.63252   0.00000  Uiso   1.00
H1049  H     0.97567   0.92125   0.67419   0.00000  Uiso   1.00
H1050  H     0.90987   0.70454   0.91873   0.00000  Uiso   1.00
H1051  H     0.92354   0.77211   0.92418   0.00000  Uiso   1.00
H1052  H     0.95868   0.78222   0.84739   0.00000  Uiso   1.00
H1053  H     0.98902   0.72493   0.86643   0.00000  Uiso   1.00
H1054  H     0.92842   0.71928   0.83101   0.00000  Uiso   1.00
H1055  H     0.75696   0.71812   0.54036   0.00000  Uiso   1.00
H1056  H     0.90064   0.66971   0.74215   0.00000  Uiso   1.00
H1057  H     0.76591   0.99692   0.75526   0.00000  Uiso   1.00
H1058  H     0.67142   0.79465   0.71623   0.00000  Uiso   1.00
H1059  H     0.99523   0.87202   0.78376   0.00000  Uiso   1.00
H1060  H     0.96623   0.90644   0.57208   0.00000  Uiso   1.00
H1061  H     0.95539   0.85656   0.61440   0.00000  Uiso   1.00
H1062  H     0.70142   0.92066   0.63175   0.00000  Uiso   1.00
I1063  I     0.75871   0.73052   0.63302   0.00000  Uiso   1.00
I1064  I     0.86443   0.94989   0.86512   0.00000  Uiso   1.00
I1065  I     0.89242   0.66779   0.55119   0.00000  Uiso   1.00
I1066  I     0.74643   0.68369   0.94476   0.00000  Uiso   1.00
N1067  N     0.98344   0.81932   0.73783   0.00000  Uiso   1.00
N1068  N     0.68322   0.84735   0.76217   0.00000  Uiso   1.00
O1069  O     0.79642   0.91286   0.75298   0.00000  Uiso   1.00
O1070  O     0.84867   0.74500   0.88897   0.00000  Uiso   1.00
O1071  O     0.87025   0.75381   0.74701   0.00000  Uiso   1.00
O1072  O     0.89280   0.90387   0.74518   0.00000  Uiso   1.00
O1073  O     0.77387   0.76279   0.75481   0.00000  Uiso   1.00
O1074  O     0.78514   0.83784   0.81997   0.00000  Uiso   1.00
O1075  O     0.88153   0.82883   0.68002   0.00000  Uiso   1.00
O1076  O     0.88152   0.82885   0.81217   0.00000  Uiso   1.00
O1077  O     0.78515   0.83781   0.68782   0.00000  Uiso   1.00
O1078  O     0.89261   0.91186   0.61537   0.00000  Uiso   1.00
Zn1079 Zn    0.76898   0.83933   0.75521   0.00000  Uiso   1.00
Zn1080 Zn    0.89769   0.82734   0.74479   0.00000  Uiso   1.00
loop_
_geom_bond_atom_site_label_1
_geom_bond_atom_site_label_2
_geom_bond_distance
_geom_bond_site_symmetry_2
_ccdc_geom_bond_type
C1     C22     1.412   .     S
C1     O52     1.288   .     A
C1     O49     1.276   .     A
C2     C4      1.394   .     A
C2     C13     1.400   .     A
C2     I44     2.126   .     S
C3     C26     1.398   .     A
C3     C25     1.424   .     S
C3     C5      1.401   .     A
C4     C24     1.423   .     S
C4     C6      1.385   .     A
C5     O58     1.384   .     S
C5     C7      1.400   .     A
C6     O50     1.382   .     S
C6     C8      1.390   .     A
C7     C9      1.418   .     A
C7     C14     1.418   .     A
C8     C10     1.412   .     A
C8     C15     1.403   .     A
C9     C11     1.419   .     A
C9     C550    1.396   1_554 S
C10    C13     1.414   .     A
C10    C549    1.396   .     S
C11    C26     1.394   .     A
C11    C21     1.403   .     A
C12    C23     1.411   .     S
C12    O51     1.276   .     A
C12    O53     1.288   .     A
C13    C20     1.397   .     A
C14    C560    1.389   1_554 S
C14    I225    2.134   .     S
C15    I46     2.126   .     S
C15    C561    1.385   .     S
C16    O58     1.417   .     S
C16    H40     1.113   .     S
C16    C17     1.521   .     S
C16    H41     1.115   .     S
C17    H29     1.110   .     S
C17    H28     1.110   .     S
C17    H102    1.111   .     S
C18    H30     1.106   .     S
C18    H31     1.119   .     S
C18    O50     1.427   .     S
C18    C19     1.526   .     S
C19    H32     1.108   .     S
C19    H33     1.111   .     S
C19    H34     1.110   .     S
C20    H27     1.077   .     S
C20    C554    1.389   .     S
C21    H35     1.079   .     S
C21    C555    1.385   1_554 S
C22    C203    1.338   .     S
C22    H216    1.088   .     S
C23    C382    1.338   1_545 S
C23    H397    1.088   1_545 S
C24    O56     1.283   .     A
C24    O54     1.285   .     A
C25    O57     1.284   .     A
C25    O55     1.284   .     A
C26    I43     2.155   .     S
H36    C382    1.088   1_545 S
H37    C203    1.088   .     S
H38    N167    1.029   1_455 S
H39    N108    1.029   .     S
H42    C137    1.111   1_455 S
I45    C374    2.134   1_545 S
N47    Zn60    2.012   .     S
N47    H98     1.029   .     S
N47    N108    1.277   .     S
N48    Zn59    2.012   .     S
N48    H159    1.029   1_455 S
N48    N167    1.277   1_455 S
O49    Zn59    1.970   .     S
O51    Zn60    1.970   .     S
O52    Zn60    1.993   .     S
O53    Zn59    1.993   .     S
O54    Zn59    1.987   .     S
O55    Zn60    1.987   .     S
O56    Zn60    2.018   .     S
O57    Zn59    2.018   .     S
C61    C82     1.412   .     S
C61    O112    1.288   .     A
C61    O109    1.276   .     A
C62    C64     1.394   .     A
C62    C73     1.400   .     A
C62    I104    2.126   .     S
C63    C86     1.398   .     A
C63    C85     1.424   .     S
C63    C65     1.401   .     A
C64    C84     1.423   .     S
C64    C66     1.385   .     A
C65    O118    1.384   .     S
C65    C67     1.400   .     A
C66    O110    1.382   .     S
C66    C68     1.390   .     A
C67    C69     1.418   .     A
C67    C74     1.418   .     A
C68    C70     1.412   .     A
C68    C75     1.403   .     A
C69    C71     1.419   .     A
C69    C610    1.396   1_554 S
C70    C73     1.414   .     A
C70    C609    1.396   .     S
C71    C86     1.394   .     A
C71    C81     1.403   .     A
C72    C83     1.411   .     S
C72    O111    1.276   .     A
C72    O113    1.288   .     A
C73    C80     1.397   .     A
C74    C620    1.389   1_554 S
C74    I285    2.134   .     S
C75    I106    2.126   .     S
C75    C621    1.385   .     S
C76    O118    1.417   .     S
C76    H100    1.113   .     S
C76    C77     1.521   .     S
C76    H101    1.115   .     S
C77    H89     1.110   .     S
C77    H88     1.110   .     S
C77    H162    1.111   .     S
C78    H90     1.106   .     S
C78    H91     1.119   .     S
C78    O110    1.427   .     S
C78    C79     1.526   .     S
C79    H92     1.108   .     S
C79    H93     1.111   .     S
C79    H94     1.110   .     S
C80    H87     1.077   .     S
C80    C614    1.389   .     S
C81    H95     1.079   .     S
C81    C615    1.385   1_554 S
C82    C263    1.338   .     S
C82    H276    1.088   .     S
C83    C442    1.338   1_545 S
C83    H457    1.088   1_545 S
C84    O116    1.283   .     A
C84    O114    1.285   .     A
C85    O117    1.284   .     A
C85    O115    1.284   .     A
C86    I103    2.155   .     S
H96    C442    1.088   1_545 S
H97    C263    1.088   .     S
H99    N168    1.029   .     S
I105   C434    2.134   1_545 S
N107   Zn120   2.012   .     S
N107   H158    1.029   .     S
N107   N168    1.277   .     S
N108   Zn119   2.012   .     S
O109   Zn119   1.970   .     S
O111   Zn120   1.970   .     S
O112   Zn120   1.993   .     S
O113   Zn119   1.993   .     S
O114   Zn119   1.987   .     S
O115   Zn120   1.987   .     S
O116   Zn120   2.018   .     S
O117   Zn119   2.018   .     S
C121   C142    1.412   .     S
C121   O172    1.288   .     A
C121   O169    1.276   .     A
C122   C124    1.394   .     A
C122   C133    1.400   .     A
C122   I164    2.126   .     S
C123   C146    1.398   .     A
C123   C145    1.424   .     S
C123   C125    1.401   .     A
C124   C144    1.423   .     S
C124   C126    1.385   .     A
C125   O178    1.384   .     S
C125   C127    1.400   .     A
C126   O170    1.382   .     S
C126   C128    1.390   .     A
C127   C129    1.418   .     A
C127   C134    1.418   .     A
C128   C130    1.412   .     A
C128   C135    1.403   .     A
C129   C131    1.419   .     A
C129   C670    1.396   1_554 S
C130   C133    1.414   .     A
C130   C669    1.396   .     S
C131   C146    1.394   .     A
C131   C141    1.403   .     A
C132   C143    1.411   .     S
C132   O171    1.276   .     A
C132   O173    1.288   .     A
C133   C140    1.397   .     A
C134   C680    1.389   1_554 S
C134   I345    2.134   .     S
C135   I166    2.126   .     S
C135   C681    1.385   .     S
C136   O178    1.417   .     S
C136   H160    1.113   .     S
C136   C137    1.521   .     S
C136   H161    1.115   .     S
C137   H149    1.110   .     S
C137   H148    1.110   .     S
C137   H42     1.111   1_655 S
C138   H150    1.106   .     S
C138   H151    1.119   .     S
C138   O170    1.427   .     S
C138   C139    1.526   .     S
C139   H152    1.108   .     S
C139   H153    1.111   .     S
C139   H154    1.110   .     S
C140   H147    1.077   .     S
C140   C674    1.389   .     S
C141   H155    1.079   .     S
C141   C675    1.385   1_554 S
C142   C323    1.338   .     S
C142   H336    1.088   .     S
C143   C502    1.338   1_545 S
C143   H517    1.088   1_545 S
C144   O176    1.283   .     A
C144   O174    1.285   .     A
C145   O177    1.284   .     A
C145   O175    1.284   .     A
C146   I163    2.155   .     S
H156   C502    1.088   1_545 S
H157   C323    1.088   .     S
H159   N48     1.029   1_655 S
I165   C494    2.134   1_545 S
N167   Zn180   2.012   .     S
N167   H38     1.029   1_655 S
N167   N48     1.277   1_655 S
N168   Zn179   2.012   .     S
O169   Zn179   1.970   .     S
O171   Zn180   1.970   .     S
O172   Zn180   1.993   .     S
O173   Zn179   1.993   .     S
O174   Zn179   1.987   .     S
O175   Zn180   1.987   .     S
O176   Zn180   2.018   .     S
O177   Zn179   2.018   .     S
C181   C202    1.412   .     S
C181   O232    1.288   .     A
C181   O229    1.276   .     A
C182   C184    1.394   .     A
C182   C193    1.400   .     A
C182   I224    2.126   .     S
C183   C206    1.398   .     A
C183   C205    1.424   .     S
C183   C185    1.401   .     A
C184   C204    1.423   .     S
C184   C186    1.385   .     A
C185   O238    1.384   .     S
C185   C187    1.400   .     A
C186   O230    1.382   .     S
C186   C188    1.390   .     A
C187   C189    1.418   .     A
C187   C194    1.418   .     A
C188   C190    1.412   .     A
C188   C195    1.403   .     A
C189   C191    1.419   .     A
C189   C730    1.396   1_554 S
C190   C193    1.414   .     A
C190   C729    1.396   .     S
C191   C206    1.394   .     A
C191   C201    1.403   .     A
C192   C203    1.411   .     S
C192   O231    1.276   .     A
C192   O233    1.288   .     A
C193   C200    1.397   .     A
C194   C740    1.389   1_554 S
C194   I405    2.134   .     S
C195   I226    2.126   .     S
C195   C741    1.385   .     S
C196   O238    1.417   .     S
C196   H220    1.113   .     S
C196   C197    1.521   .     S
C196   H221    1.115   .     S
C197   H209    1.110   .     S
C197   H208    1.110   .     S
C197   H282    1.111   .     S
C198   H210    1.106   .     S
C198   H211    1.119   .     S
C198   O230    1.427   .     S
C198   C199    1.526   .     S
C199   H212    1.108   .     S
C199   H213    1.111   .     S
C199   H214    1.110   .     S
C200   H207    1.077   .     S
C200   C734    1.389   .     S
C201   H215    1.079   .     S
C201   C735    1.385   1_554 S
C202   C383    1.338   .     S
C202   H396    1.088   .     S
C204   O236    1.283   .     A
C204   O234    1.285   .     A
C205   O237    1.284   .     A
C205   O235    1.284   .     A
C206   I223    2.155   .     S
H217   C383    1.088   .     S
H218   N347    1.029   1_455 S
H219   N288    1.029   .     S
H222   C317    1.111   1_455 S
N227   Zn240   2.012   .     S
N227   H278    1.029   .     S
N227   N288    1.277   .     S
N228   Zn239   2.012   .     S
N228   H339    1.029   1_455 S
N228   N347    1.277   1_455 S
O229   Zn239   1.970   .     S
O231   Zn240   1.970   .     S
O232   Zn240   1.993   .     S
O233   Zn239   1.993   .     S
O234   Zn239   1.987   .     S
O235   Zn240   1.987   .     S
O236   Zn240   2.018   .     S
O237   Zn239   2.018   .     S
C241   C262    1.412   .     S
C241   O292    1.288   .     A
C241   O289    1.276   .     A
C242   C244    1.394   .     A
C242   C253    1.400   .     A
C242   I284    2.126   .     S
C243   C266    1.398   .     A
C243   C265    1.424   .     S
C243   C245    1.401   .     A
C244   C264    1.423   .     S
C244   C246    1.385   .     A
C245   O298    1.384   .     S
C245   C247    1.400   .     A
C246   O290    1.382   .     S
C246   C248    1.390   .     A
C247   C249    1.418   .     A
C247   C254    1.418   .     A
C248   C250    1.412   .     A
C248   C255    1.403   .     A
C249   C251    1.419   .     A
C249   C790    1.396   1_554 S
C250   C253    1.414   .     A
C250   C789    1.396   .     S
C251   C266    1.394   .     A
C251   C261    1.403   .     A
C252   C263    1.411   .     S
C252   O291    1.276   .     A
C252   O293    1.288   .     A
C253   C260    1.397   .     A
C254   C800    1.389   1_554 S
C254   I465    2.134   .     S
C255   I286    2.126   .     S
C255   C801    1.385   .     S
C256   O298    1.417   .     S
C256   H280    1.113   .     S
C256   C257    1.521   .     S
C256   H281    1.115   .     S
C257   H269    1.110   .     S
C257   H268    1.110   .     S
C257   H342    1.111   .     S
C258   H270    1.106   .     S
C258   H271    1.119   .     S
C258   O290    1.427   .     S
C258   C259    1.526   .     S
C259   H272    1.108   .     S
C259   H273    1.111   .     S
C259   H274    1.110   .     S
C260   H267    1.077   .     S
C260   C794    1.389   .     S
C261   H275    1.079   .     S
C261   C795    1.385   1_554 S
C262   C443    1.338   .     S
C262   H456    1.088   .     S
C264   O296    1.283   .     A
C264   O294    1.285   .     A
C265   O297    1.284   .     A
C265   O295    1.284   .     A
C266   I283    2.155   .     S
H277   C443    1.088   .     S
H279   N348    1.029   .     S
N287   Zn300   2.012   .     S
N287   H338    1.029   .     S
N287   N348    1.277   .     S
N288   Zn299   2.012   .     S
O289   Zn299   1.970   .     S
O291   Zn300   1.970   .     S
O292   Zn300   1.993   .     S
O293   Zn299   1.993   .     S
O294   Zn299   1.987   .     S
O295   Zn300   1.987   .     S
O296   Zn300   2.018   .     S
O297   Zn299   2.018   .     S
C301   C322    1.412   .     S
C301   O352    1.288   .     A
C301   O349    1.276   .     A
C302   C304    1.394   .     A
C302   C313    1.400   .     A
C302   I344    2.126   .     S
C303   C326    1.398   .     A
C303   C325    1.424   .     S
C303   C305    1.401   .     A
C304   C324    1.423   .     S
C304   C306    1.385   .     A
C305   O358    1.384   .     S
C305   C307    1.400   .     A
C306   O350    1.382   .     S
C306   C308    1.390   .     A
C307   C309    1.418   .     A
C307   C314    1.418   .     A
C308   C310    1.412   .     A
C308   C315    1.403   .     A
C309   C311    1.419   .     A
C309   C850    1.396   1_554 S
C310   C313    1.414   .     A
C310   C849    1.396   .     S
C311   C326    1.394   .     A
C311   C321    1.403   .     A
C312   C323    1.411   .     S
C312   O351    1.276   .     A
C312   O353    1.288   .     A
C313   C320    1.397   .     A
C314   C860    1.389   1_554 S
C314   I525    2.134   .     S
C315   I346    2.126   .     S
C315   C861    1.385   .     S
C316   O358    1.417   .     S
C316   H340    1.113   .     S
C316   C317    1.521   .     S
C316   H341    1.115   .     S
C317   H329    1.110   .     S
C317   H328    1.110   .     S
C317   H222    1.111   1_655 S
C318   H330    1.106   .     S
C318   H331    1.119   .     S
C318   O350    1.427   .     S
C318   C319    1.526   .     S
C319   H332    1.108   .     S
C319   H333    1.111   .     S
C319   H334    1.110   .     S
C320   H327    1.077   .     S
C320   C854    1.389   .     S
C321   H335    1.079   .     S
C321   C855    1.385   1_554 S
C322   C503    1.338   .     S
C322   H516    1.088   .     S
C324   O356    1.283   .     A
C324   O354    1.285   .     A
C325   O357    1.284   .     A
C325   O355    1.284   .     A
C326   I343    2.155   .     S
H337   C503    1.088   .     S
H339   N228    1.029   1_655 S
N347   Zn360   2.012   .     S
N347   H218    1.029   1_655 S
N347   N228    1.277   1_655 S
N348   Zn359   2.012   .     S
O349   Zn359   1.970   .     S
O351   Zn360   1.970   .     S
O352   Zn360   1.993   .     S
O353   Zn359   1.993   .     S
O354   Zn359   1.987   .     S
O355   Zn360   1.987   .     S
O356   Zn360   2.018   .     S
O357   Zn359   2.018   .     S
C361   C382    1.412   .     S
C361   O412    1.288   .     A
C361   O409    1.276   .     A
C362   C364    1.394   .     A
C362   C373    1.400   .     A
C362   I404    2.126   .     S
C363   C386    1.398   .     A
C363   C385    1.424   .     S
C363   C365    1.401   .     A
C364   C384    1.423   .     S
C364   C366    1.385   .     A
C365   O418    1.384   .     S
C365   C367    1.400   .     A
C366   O410    1.382   .     S
C366   C368    1.390   .     A
C367   C369    1.418   .     A
C367   C374    1.418   .     A
C368   C370    1.412   .     A
C368   C375    1.403   .     A
C369   C371    1.419   .     A
C369   C910    1.396   1_554 S
C370   C373    1.414   .     A
C370   C909    1.396   .     S
C371   C386    1.394   .     A
C371   C381    1.403   .     A
C372   C383    1.411   .     S
C372   O411    1.276   .     A
C372   O413    1.288   .     A
C373   C380    1.397   .     A
C374   C920    1.389   1_554 S
C374   I45     2.134   1_565 S
C375   I406    2.126   .     S
C375   C921    1.385   .     S
C376   O418    1.417   .     S
C376   H400    1.113   .     S
C376   C377    1.521   .     S
C376   H401    1.115   .     S
C377   H389    1.110   .     S
C377   H388    1.110   .     S
C377   H462    1.111   .     S
C378   H390    1.106   .     S
C378   H391    1.119   .     S
C378   O410    1.427   .     S
C378   C379    1.526   .     S
C379   H392    1.108   .     S
C379   H393    1.111   .     S
C379   H394    1.110   .     S
C380   H387    1.077   .     S
C380   C914    1.389   .     S
C381   H395    1.079   .     S
C381   C915    1.385   1_554 S
C382   C23     1.338   1_565 S
C382   H36     1.088   1_565 S
C384   O416    1.283   .     A
C384   O414    1.285   .     A
C385   O417    1.284   .     A
C385   O415    1.284   .     A
C386   I403    2.155   .     S
H397   C23     1.088   1_565 S
H398   N527    1.029   1_455 S
H399   N468    1.029   .     S
H402   C497    1.111   1_455 S
N407   Zn420   2.012   .     S
N407   H458    1.029   .     S
N407   N468    1.277   .     S
N408   Zn419   2.012   .     S
N408   H519    1.029   1_455 S
N408   N527    1.277   1_455 S
O409   Zn419   1.970   .     S
O411   Zn420   1.970   .     S
O412   Zn420   1.993   .     S
O413   Zn419   1.993   .     S
O414   Zn419   1.987   .     S
O415   Zn420   1.987   .     S
O416   Zn420   2.018   .     S
O417   Zn419   2.018   .     S
C421   C442    1.412   .     S
C421   O472    1.288   .     A
C421   O469    1.276   .     A
C422   C424    1.394   .     A
C422   C433    1.400   .     A
C422   I464    2.126   .     S
C423   C446    1.398   .     A
C423   C445    1.424   .     S
C423   C425    1.401   .     A
C424   C444    1.423   .     S
C424   C426    1.385   .     A
C425   O478    1.384   .     S
C425   C427    1.400   .     A
C426   O470    1.382   .     S
C426   C428    1.390   .     A
C427   C429    1.418   .     A
C427   C434    1.418   .     A
C428   C430    1.412   .     A
C428   C435    1.403   .     A
C429   C431    1.419   .     A
C429   C970    1.396   1_554 S
C430   C433    1.414   .     A
C430   C969    1.396   .     S
C431   C446    1.394   .     A
C431   C441    1.403   .     A
C432   C443    1.411   .     S
C432   O471    1.276   .     A
C432   O473    1.288   .     A
C433   C440    1.397   .     A
C434   C980    1.389   1_554 S
C434   I105    2.134   1_565 S
C435   I466    2.126   .     S
C435   C981    1.385   .     S
C436   O478    1.417   .     S
C436   H460    1.113   .     S
C436   C437    1.521   .     S
C436   H461    1.115   .     S
C437   H449    1.110   .     S
C437   H448    1.110   .     S
C437   H522    1.111   .     S
C438   H450    1.106   .     S
C438   H451    1.119   .     S
C438   O470    1.427   .     S
C438   C439    1.526   .     S
C439   H452    1.108   .     S
C439   H453    1.111   .     S
C439   H454    1.110   .     S
C440   H447    1.077   .     S
C440   C974    1.389   .     S
C441   H455    1.079   .     S
C441   C975    1.385   1_554 S
C442   C83     1.338   1_565 S
C442   H96     1.088   1_565 S
C444   O476    1.283   .     A
C444   O474    1.285   .     A
C445   O477    1.284   .     A
C445   O475    1.284   .     A
C446   I463    2.155   .     S
H457   C83     1.088   1_565 S
H459   N528    1.029   .     S
N467   Zn480   2.012   .     S
N467   H518    1.029   .     S
N467   N528    1.277   .     S
N468   Zn479   2.012   .     S
O469   Zn479   1.970   .     S
O471   Zn480   1.970   .     S
O472   Zn480   1.993   .     S
O473   Zn479   1.993   .     S
O474   Zn479   1.987   .     S
O475   Zn480   1.987   .     S
O476   Zn480   2.018   .     S
O477   Zn479   2.018   .     S
C481   C502    1.412   .     S
C481   O532    1.288   .     A
C481   O529    1.276   .     A
C482   C484    1.394   .     A
C482   C493    1.400   .     A
C482   I524    2.126   .     S
C483   C506    1.398   .     A
C483   C505    1.424   .     S
C483   C485    1.401   .     A
C484   C504    1.423   .     S
C484   C486    1.385   .     A
C485   O538    1.384   .     S
C485   C487    1.400   .     A
C486   O530    1.382   .     S
C486   C488    1.390   .     A
C487   C489    1.418   .     A
C487   C494    1.418   .     A
C488   C490    1.412   .     A
C488   C495    1.403   .     A
C489   C491    1.419   .     A
C489   C1030   1.396   1_554 S
C490   C493    1.414   .     A
C490   C1029   1.396   .     S
C491   C506    1.394   .     A
C491   C501    1.403   .     A
C492   C503    1.411   .     S
C492   O531    1.276   .     A
C492   O533    1.288   .     A
C493   C500    1.397   .     A
C494   C1040   1.389   1_554 S
C494   I165    2.134   1_565 S
C495   I526    2.126   .     S
C495   C1041   1.385   .     S
C496   O538    1.417   .     S
C496   H520    1.113   .     S
C496   C497    1.521   .     S
C496   H521    1.115   .     S
C497   H509    1.110   .     S
C497   H508    1.110   .     S
C497   H402    1.111   1_655 S
C498   H510    1.106   .     S
C498   H511    1.119   .     S
C498   O530    1.427   .     S
C498   C499    1.526   .     S
C499   H512    1.108   .     S
C499   H513    1.111   .     S
C499   H514    1.110   .     S
C500   H507    1.077   .     S
C500   C1034   1.389   .     S
C501   H515    1.079   .     S
C501   C1035   1.385   1_554 S
C502   C143    1.338   1_565 S
C502   H156    1.088   1_565 S
C504   O536    1.283   .     A
C504   O534    1.285   .     A
C505   O537    1.284   .     A
C505   O535    1.284   .     A
C506   I523    2.155   .     S
H517   C143    1.088   1_565 S
H519   N408    1.029   1_655 S
N527   Zn540   2.012   .     S
N527   H398    1.029   1_655 S
N527   N408    1.277   1_655 S
N528   Zn539   2.012   .     S
O529   Zn539   1.970   .     S
O531   Zn540   1.970   .     S
O532   Zn540   1.993   .     S
O533   Zn539   1.993   .     S
O534   Zn539   1.987   .     S
O535   Zn540   1.987   .     S
O536   Zn540   2.018   .     S
O537   Zn539   2.018   .     S
C541   C562    1.412   .     S
C541   O592    1.288   .     A
C541   O589    1.276   .     A
C542   C544    1.394   .     A
C542   C553    1.400   .     A
C542   I584    2.126   .     S
C543   C566    1.398   .     A
C543   C565    1.424   .     S
C543   C545    1.401   .     A
C544   C564    1.423   .     S
C544   C546    1.385   .     A
C545   O598    1.384   .     S
C545   C547    1.400   .     A
C546   O590    1.382   .     S
C546   C548    1.390   .     A
C547   C549    1.418   .     A
C547   C554    1.418   .     A
C548   C550    1.412   .     A
C548   C555    1.403   .     A
C549   C551    1.419   .     A
C550   C553    1.414   .     A
C550   C9      1.396   1_556 S
C551   C566    1.394   .     A
C551   C561    1.403   .     A
C552   C563    1.411   .     S
C552   O591    1.276   .     A
C552   O593    1.288   .     A
C553   C560    1.397   .     A
C554   I765    2.134   .     S
C555   I586    2.126   .     S
C555   C21     1.385   1_556 S
C556   O598    1.417   .     S
C556   H580    1.113   .     S
C556   C557    1.521   .     S
C556   H581    1.115   .     S
C557   H569    1.110   .     S
C557   H568    1.110   .     S
C557   H642    1.111   .     S
C558   H570    1.106   .     S
C558   H571    1.119   .     S
C558   O590    1.427   .     S
C558   C559    1.526   .     S
C559   H572    1.108   .     S
C559   H573    1.111   .     S
C559   H574    1.110   .     S
C560   H567    1.077   .     S
C560   C14     1.389   1_556 S
C561   H575    1.079   .     S
C562   C743    1.338   .     S
C562   H756    1.088   .     S
C563   C922    1.338   1_545 S
C563   H937    1.088   1_545 S
C564   O596    1.283   .     A
C564   O594    1.285   .     A
C565   O597    1.284   .     A
C565   O595    1.284   .     A
C566   I583    2.155   .     S
H576   C922    1.088   1_545 S
H577   C743    1.088   .     S
H578   N707    1.029   1_455 S
H579   N648    1.029   .     S
H582   C677    1.111   1_455 S
I585   C914    2.134   1_545 S
N587   Zn600   2.012   .     S
N587   H638    1.029   .     S
N587   N648    1.277   .     S
N588   Zn599   2.012   .     S
N588   H699    1.029   1_455 S
N588   N707    1.277   1_455 S
O589   Zn599   1.970   .     S
O591   Zn600   1.970   .     S
O592   Zn600   1.993   .     S
O593   Zn599   1.993   .     S
O594   Zn599   1.987   .     S
O595   Zn600   1.987   .     S
O596   Zn600   2.018   .     S
O597   Zn599   2.018   .     S
C601   C622    1.412   .     S
C601   O652    1.288   .     A
C601   O649    1.276   .     A
C602   C604    1.394   .     A
C602   C613    1.400   .     A
C602   I644    2.126   .     S
C603   C626    1.398   .     A
C603   C625    1.424   .     S
C603   C605    1.401   .     A
C604   C624    1.423   .     S
C604   C606    1.385   .     A
C605   O658    1.384   .     S
C605   C607    1.400   .     A
C606   O650    1.382   .     S
C606   C608    1.390   .     A
C607   C609    1.418   .     A
C607   C614    1.418   .     A
C608   C610    1.412   .     A
C608   C615    1.403   .     A
C609   C611    1.419   .     A
C610   C613    1.414   .     A
C610   C69     1.396   1_556 S
C611   C626    1.394   .     A
C611   C621    1.403   .     A
C612   C623    1.411   .     S
C612   O651    1.276   .     A
C612   O653    1.288   .     A
C613   C620    1.397   .     A
C614   I825    2.134   .     S
C615   I646    2.126   .     S
C615   C81     1.385   1_556 S
C616   O658    1.417   .     S
C616   H640    1.113   .     S
C616   C617    1.521   .     S
C616   H641    1.115   .     S
C617   H629    1.110   .     S
C617   H628    1.110   .     S
C617   H702    1.111   .     S
C618   H630    1.106   .     S
C618   H631    1.119   .     S
C618   O650    1.427   .     S
C618   C619    1.526   .     S
C619   H632    1.108   .     S
C619   H633    1.111   .     S
C619   H634    1.110   .     S
C620   H627    1.077   .     S
C620   C74     1.389   1_556 S
C621   H635    1.079   .     S
C622   C803    1.338   .     S
C622   H816    1.088   .     S
C623   C982    1.338   1_545 S
C623   H997    1.088   1_545 S
C624   O656    1.283   .     A
C624   O654    1.285   .     A
C625   O657    1.284   .     A
C625   O655    1.284   .     A
C626   I643    2.155   .     S
H636   C982    1.088   1_545 S
H637   C803    1.088   .     S
H639   N708    1.029   .     S
I645   C974    2.134   1_545 S
N647   Zn660   2.012   .     S
N647   H698    1.029   .     S
N647   N708    1.277   .     S
N648   Zn659   2.012   .     S
O649   Zn659   1.970   .     S
O651   Zn660   1.970   .     S
O652   Zn660   1.993   .     S
O653   Zn659   1.993   .     S
O654   Zn659   1.987   .     S
O655   Zn660   1.987   .     S
O656   Zn660   2.018   .     S
O657   Zn659   2.018   .     S
C661   C682    1.412   .     S
C661   O712    1.288   .     A
C661   O709    1.276   .     A
C662   C664    1.394   .     A
C662   C673    1.400   .     A
C662   I704    2.126   .     S
C663   C686    1.398   .     A
C663   C685    1.424   .     S
C663   C665    1.401   .     A
C664   C684    1.423   .     S
C664   C666    1.385   .     A
C665   O718    1.384   .     S
C665   C667    1.400   .     A
C666   O710    1.382   .     S
C666   C668    1.390   .     A
C667   C669    1.418   .     A
C667   C674    1.418   .     A
C668   C670    1.412   .     A
C668   C675    1.403   .     A
C669   C671    1.419   .     A
C670   C673    1.414   .     A
C670   C129    1.396   1_556 S
C671   C686    1.394   .     A
C671   C681    1.403   .     A
C672   C683    1.411   .     S
C672   O711    1.276   .     A
C672   O713    1.288   .     A
C673   C680    1.397   .     A
C674   I885    2.134   .     S
C675   I706    2.126   .     S
C675   C141    1.385   1_556 S
C676   O718    1.417   .     S
C676   H700    1.113   .     S
C676   C677    1.521   .     S
C676   H701    1.115   .     S
C677   H689    1.110   .     S
C677   H688    1.110   .     S
C677   H582    1.111   1_655 S
C678   H690    1.106   .     S
C678   H691    1.119   .     S
C678   O710    1.427   .     S
C678   C679    1.526   .     S
C679   H692    1.108   .     S
C679   H693    1.111   .     S
C679   H694    1.110   .     S
C680   H687    1.077   .     S
C680   C134    1.389   1_556 S
C681   H695    1.079   .     S
C682   C863    1.338   .     S
C682   H876    1.088   .     S
C683   C1042   1.338   1_545 S
C683   H1057   1.088   1_545 S
C684   O716    1.283   .     A
C684   O714    1.285   .     A
C685   O717    1.284   .     A
C685   O715    1.284   .     A
C686   I703    2.155   .     S
H696   C1042   1.088   1_545 S
H697   C863    1.088   .     S
H699   N588    1.029   1_655 S
I705   C1034   2.134   1_545 S
N707   Zn720   2.012   .     S
N707   H578    1.029   1_655 S
N707   N588    1.277   1_655 S
N708   Zn719   2.012   .     S
O709   Zn719   1.970   .     S
O711   Zn720   1.970   .     S
O712   Zn720   1.993   .     S
O713   Zn719   1.993   .     S
O714   Zn719   1.987   .     S
O715   Zn720   1.987   .     S
O716   Zn720   2.018   .     S
O717   Zn719   2.018   .     S
C721   C742    1.412   .     S
C721   O772    1.288   .     A
C721   O769    1.276   .     A
C722   C724    1.394   .     A
C722   C733    1.400   .     A
C722   I764    2.126   .     S
C723   C746    1.398   .     A
C723   C745    1.424   .     S
C723   C725    1.401   .     A
C724   C744    1.423   .     S
C724   C726    1.385   .     A
C725   O778    1.384   .     S
C725   C727    1.400   .     A
C726   O770    1.382   .     S
C726   C728    1.390   .     A
C727   C729    1.418   .     A
C727   C734    1.418   .     A
C728   C730    1.412   .     A
C728   C735    1.403   .     A
C729   C731    1.419   .     A
C730   C733    1.414   .     A
C730   C189    1.396   1_556 S
C731   C746    1.394   .     A
C731   C741    1.403   .     A
C732   C743    1.411   .     S
C732   O771    1.276   .     A
C732   O773    1.288   .     A
C733   C740    1.397   .     A
C734   I945    2.134   .     S
C735   I766    2.126   .     S
C735   C201    1.385   1_556 S
C736   O778    1.417   .     S
C736   H760    1.113   .     S
C736   C737    1.521   .     S
C736   H761    1.115   .     S
C737   H749    1.110   .     S
C737   H748    1.110   .     S
C737   H822    1.111   .     S
C738   H750    1.106   .     S
C738   H751    1.119   .     S
C738   O770    1.427   .     S
C738   C739    1.526   .     S
C739   H752    1.108   .     S
C739   H753    1.111   .     S
C739   H754    1.110   .     S
C740   H747    1.077   .     S
C740   C194    1.389   1_556 S
C741   H755    1.079   .     S
C742   C923    1.338   .     S
C742   H936    1.088   .     S
C744   O776    1.283   .     A
C744   O774    1.285   .     A
C745   O777    1.284   .     A
C745   O775    1.284   .     A
C746   I763    2.155   .     S
H757   C923    1.088   .     S
H758   N887    1.029   1_455 S
H759   N828    1.029   .     S
H762   C857    1.111   1_455 S
N767   Zn780   2.012   .     S
N767   H818    1.029   .     S
N767   N828    1.277   .     S
N768   Zn779   2.012   .     S
N768   H879    1.029   1_455 S
N768   N887    1.277   1_455 S
O769   Zn779   1.970   .     S
O771   Zn780   1.970   .     S
O772   Zn780   1.993   .     S
O773   Zn779   1.993   .     S
O774   Zn779   1.987   .     S
O775   Zn780   1.987   .     S
O776   Zn780   2.018   .     S
O777   Zn779   2.018   .     S
C781   C802    1.412   .     S
C781   O832    1.288   .     A
C781   O829    1.276   .     A
C782   C784    1.394   .     A
C782   C793    1.400   .     A
C782   I824    2.126   .     S
C783   C806    1.398   .     A
C783   C805    1.424   .     S
C783   C785    1.401   .     A
C784   C804    1.423   .     S
C784   C786    1.385   .     A
C785   O838    1.384   .     S
C785   C787    1.400   .     A
C786   O830    1.382   .     S
C786   C788    1.390   .     A
C787   C789    1.418   .     A
C787   C794    1.418   .     A
C788   C790    1.412   .     A
C788   C795    1.403   .     A
C789   C791    1.419   .     A
C790   C793    1.414   .     A
C790   C249    1.396   1_556 S
C791   C806    1.394   .     A
C791   C801    1.403   .     A
C792   C803    1.411   .     S
C792   O831    1.276   .     A
C792   O833    1.288   .     A
C793   C800    1.397   .     A
C794   I1005   2.134   .     S
C795   I826    2.126   .     S
C795   C261    1.385   1_556 S
C796   O838    1.417   .     S
C796   H820    1.113   .     S
C796   C797    1.521   .     S
C796   H821    1.115   .     S
C797   H809    1.110   .     S
C797   H808    1.110   .     S
C797   H882    1.111   .     S
C798   H810    1.106   .     S
C798   H811    1.119   .     S
C798   O830    1.427   .     S
C798   C799    1.526   .     S
C799   H812    1.108   .     S
C799   H813    1.111   .     S
C799   H814    1.110   .     S
C800   H807    1.077   .     S
C800   C254    1.389   1_556 S
C801   H815    1.079   .     S
C802   C983    1.338   .     S
C802   H996    1.088   .     S
C804   O836    1.283   .     A
C804   O834    1.285   .     A
C805   O837    1.284   .     A
C805   O835    1.284   .     A
C806   I823    2.155   .     S
H817   C983    1.088   .     S
H819   N888    1.029   .     S
N827   Zn840   2.012   .     S
N827   H878    1.029   .     S
N827   N888    1.277   .     S
N828   Zn839   2.012   .     S
O829   Zn839   1.970   .     S
O831   Zn840   1.970   .     S
O832   Zn840   1.993   .     S
O833   Zn839   1.993   .     S
O834   Zn839   1.987   .     S
O835   Zn840   1.987   .     S
O836   Zn840   2.018   .     S
O837   Zn839   2.018   .     S
C841   C862    1.412   .     S
C841   O892    1.288   .     A
C841   O889    1.276   .     A
C842   C844    1.394   .     A
C842   C853    1.400   .     A
C842   I884    2.126   .     S
C843   C866    1.398   .     A
C843   C865    1.424   .     S
C843   C845    1.401   .     A
C844   C864    1.423   .     S
C844   C846    1.385   .     A
C845   O898    1.384   .     S
C845   C847    1.400   .     A
C846   O890    1.382   .     S
C846   C848    1.390   .     A
C847   C849    1.418   .     A
C847   C854    1.418   .     A
C848   C850    1.412   .     A
C848   C855    1.403   .     A
C849   C851    1.419   .     A
C850   C853    1.414   .     A
C850   C309    1.396   1_556 S
C851   C866    1.394   .     A
C851   C861    1.403   .     A
C852   C863    1.411   .     S
C852   O891    1.276   .     A
C852   O893    1.288   .     A
C853   C860    1.397   .     A
C854   I1065   2.134   .     S
C855   I886    2.126   .     S
C855   C321    1.385   1_556 S
C856   O898    1.417   .     S
C856   H880    1.113   .     S
C856   C857    1.521   .     S
C856   H881    1.115   .     S
C857   H869    1.110   .     S
C857   H868    1.110   .     S
C857   H762    1.111   1_655 S
C858   H870    1.106   .     S
C858   H871    1.119   .     S
C858   O890    1.427   .     S
C858   C859    1.526   .     S
C859   H872    1.108   .     S
C859   H873    1.111   .     S
C859   H874    1.110   .     S
C860   H867    1.077   .     S
C860   C314    1.389   1_556 S
C861   H875    1.079   .     S
C862   C1043   1.338   .     S
C862   H1056   1.088   .     S
C864   O896    1.283   .     A
C864   O894    1.285   .     A
C865   O897    1.284   .     A
C865   O895    1.284   .     A
C866   I883    2.155   .     S
H877   C1043   1.088   .     S
H879   N768    1.029   1_655 S
N887   Zn900   2.012   .     S
N887   H758    1.029   1_655 S
N887   N768    1.277   1_655 S
N888   Zn899   2.012   .     S
O889   Zn899   1.970   .     S
O891   Zn900   1.970   .     S
O892   Zn900   1.993   .     S
O893   Zn899   1.993   .     S
O894   Zn899   1.987   .     S
O895   Zn900   1.987   .     S
O896   Zn900   2.018   .     S
O897   Zn899   2.018   .     S
C901   C922    1.412   .     S
C901   O952    1.288   .     A
C901   O949    1.276   .     A
C902   C904    1.394   .     A
C902   C913    1.400   .     A
C902   I944    2.126   .     S
C903   C926    1.398   .     A
C903   C925    1.424   .     S
C903   C905    1.401   .     A
C904   C924    1.423   .     S
C904   C906    1.385   .     A
C905   O958    1.384   .     S
C905   C907    1.400   .     A
C906   O950    1.382   .     S
C906   C908    1.390   .     A
C907   C909    1.418   .     A
C907   C914    1.418   .     A
C908   C910    1.412   .     A
C908   C915    1.403   .     A
C909   C911    1.419   .     A
C910   C913    1.414   .     A
C910   C369    1.396   1_556 S
C911   C926    1.394   .     A
C911   C921    1.403   .     A
C912   C923    1.411   .     S
C912   O951    1.276   .     A
C912   O953    1.288   .     A
C913   C920    1.397   .     A
C914   I585    2.134   1_565 S
C915   I946    2.126   .     S
C915   C381    1.385   1_556 S
C916   O958    1.417   .     S
C916   H940    1.113   .     S
C916   C917    1.521   .     S
C916   H941    1.115   .     S
C917   H929    1.110   .     S
C917   H928    1.110   .     S
C917   H1002   1.111   .     S
C918   H930    1.106   .     S
C918   H931    1.119   .     S
C918   O950    1.427   .     S
C918   C919    1.526   .     S
C919   H932    1.108   .     S
C919   H933    1.111   .     S
C919   H934    1.110   .     S
C920   H927    1.077   .     S
C920   C374    1.389   1_556 S
C921   H935    1.079   .     S
C922   C563    1.338   1_565 S
C922   H576    1.088   1_565 S
C924   O956    1.283   .     A
C924   O954    1.285   .     A
C925   O957    1.284   .     A
C925   O955    1.284   .     A
C926   I943    2.155   .     S
H937   C563    1.088   1_565 S
H938   N1067   1.029   1_455 S
H939   N1008   1.029   .     S
H942   C1037   1.111   1_455 S
N947   Zn960   2.012   .     S
N947   H998    1.029   .     S
N947   N1008   1.277   .     S
N948   Zn959   2.012   .     S
N948   H1059   1.029   1_455 S
N948   N1067   1.277   1_455 S
O949   Zn959   1.970   .     S
O951   Zn960   1.970   .     S
O952   Zn960   1.993   .     S
O953   Zn959   1.993   .     S
O954   Zn959   1.987   .     S
O955   Zn960   1.987   .     S
O956   Zn960   2.018   .     S
O957   Zn959   2.018   .     S
C961   C982    1.412   .     S
C961   O1012   1.288   .     A
C961   O1009   1.276   .     A
C962   C964    1.394   .     A
C962   C973    1.400   .     A
C962   I1004   2.126   .     S
C963   C986    1.398   .     A
C963   C985    1.424   .     S
C963   C965    1.401   .     A
C964   C984    1.423   .     S
C964   C966    1.385   .     A
C965   O1018   1.384   .     S
C965   C967    1.400   .     A
C966   O1010   1.382   .     S
C966   C968    1.390   .     A
C967   C969    1.418   .     A
C967   C974    1.418   .     A
C968   C970    1.412   .     A
C968   C975    1.403   .     A
C969   C971    1.419   .     A
C970   C973    1.414   .     A
C970   C429    1.396   1_556 S
C971   C986    1.394   .     A
C971   C981    1.403   .     A
C972   C983    1.411   .     S
C972   O1011   1.276   .     A
C972   O1013   1.288   .     A
C973   C980    1.397   .     A
C974   I645    2.134   1_565 S
C975   I1006   2.126   .     S
C975   C441    1.385   1_556 S
C976   O1018   1.417   .     S
C976   H1000   1.113   .     S
C976   C977    1.521   .     S
C976   H1001   1.115   .     S
C977   H989    1.110   .     S
C977   H988    1.110   .     S
C977   H1062   1.111   .     S
C978   H990    1.106   .     S
C978   H991    1.119   .     S
C978   O1010   1.427   .     S
C978   C979    1.526   .     S
C979   H992    1.108   .     S
C979   H993    1.111   .     S
C979   H994    1.110   .     S
C980   H987    1.077   .     S
C980   C434    1.389   1_556 S
C981   H995    1.079   .     S
C982   C623    1.338   1_565 S
C982   H636    1.088   1_565 S
C984   O1016   1.283   .     A
C984   O1014   1.285   .     A
C985   O1017   1.284   .     A
C985   O1015   1.284   .     A
C986   I1003   2.155   .     S
H997   C623    1.088   1_565 S
H999   N1068   1.029   .     S
N1007  Zn1020  2.012   .     S
N1007  H1058   1.029   .     S
N1007  N1068   1.277   .     S
N1008  Zn1019  2.012   .     S
O1009  Zn1019  1.970   .     S
O1011  Zn1020  1.970   .     S
O1012  Zn1020  1.993   .     S
O1013  Zn1019  1.993   .     S
O1014  Zn1019  1.987   .     S
O1015  Zn1020  1.987   .     S
O1016  Zn1020  2.018   .     S
O1017  Zn1019  2.018   .     S
C1021  C1042   1.412   .     S
C1021  O1072   1.288   .     A
C1021  O1069   1.276   .     A
C1022  C1024   1.394   .     A
C1022  C1033   1.400   .     A
C1022  I1064   2.126   .     S
C1023  C1046   1.398   .     A
C1023  C1045   1.424   .     S
C1023  C1025   1.401   .     A
C1024  C1044   1.423   .     S
C1024  C1026   1.385   .     A
C1025  O1078   1.384   .     S
C1025  C1027   1.400   .     A
C1026  O1070   1.382   .     S
C1026  C1028   1.390   .     A
C1027  C1029   1.418   .     A
C1027  C1034   1.418   .     A
C1028  C1030   1.412   .     A
C1028  C1035   1.403   .     A
C1029  C1031   1.419   .     A
C1030  C1033   1.414   .     A
C1030  C489    1.396   1_556 S
C1031  C1046   1.394   .     A
C1031  C1041   1.403   .     A
C1032  C1043   1.411   .     S
C1032  O1071   1.276   .     A
C1032  O1073   1.288   .     A
C1033  C1040   1.397   .     A
C1034  I705    2.134   1_565 S
C1035  I1066   2.126   .     S
C1035  C501    1.385   1_556 S
C1036  O1078   1.417   .     S
C1036  H1060   1.113   .     S
C1036  C1037   1.521   .     S
C1036  H1061   1.115   .     S
C1037  H1049   1.110   .     S
C1037  H1048   1.110   .     S
C1037  H942    1.111   1_655 S
C1038  H1050   1.106   .     S
C1038  H1051   1.119   .     S
C1038  O1070   1.427   .     S
C1038  C1039   1.526   .     S
C1039  H1052   1.108   .     S
C1039  H1053   1.111   .     S
C1039  H1054   1.110   .     S
C1040  H1047   1.077   .     S
C1040  C494    1.389   1_556 S
C1041  H1055   1.079   .     S
C1042  C683    1.338   1_565 S
C1042  H696    1.088   1_565 S
C1044  O1076   1.283   .     A
C1044  O1074   1.285   .     A
C1045  O1077   1.284   .     A
C1045  O1075   1.284   .     A
C1046  I1063   2.155   .     S
H1057  C683    1.088   1_565 S
H1059  N948    1.029   1_655 S
N1067  Zn1080  2.012   .     S
N1067  H938    1.029   1_655 S
N1067  N948    1.277   1_655 S
N1068  Zn1079  2.012   .     S
O1069  Zn1079  1.970   .     S
O1071  Zn1080  1.970   .     S
O1072  Zn1080  1.993   .     S
O1073  Zn1079  1.993   .     S
O1074  Zn1079  1.987   .     S
O1075  Zn1080  1.987   .     S
O1076  Zn1080  2.018   .     S
O1077  Zn1079  2.018   .     S
