data_str_m2_o10_o16_pcu_sym.7
_audit_creation_date              2020-01-03
_audit_creation_method            'Materials Studio'
_symmetry_space_group_name_H-M    'P1'
_symmetry_Int_Tables_number       1
_symmetry_cell_setting            triclinic
loop_
_symmetry_equiv_pos_as_xyz
  x,y,z
_cell_length_a                    22.4693
_cell_length_b                    26.0346
_cell_length_c                    26.9142
_cell_angle_alpha                 94.0672
_cell_angle_beta                  78.7464
_cell_angle_gamma                 103.0435
loop_
_atom_site_label
_atom_site_type_symbol
_atom_site_fract_x
_atom_site_fract_y
_atom_site_fract_z
_atom_site_U_iso_or_equiv
_atom_site_adp_type
_atom_site_occupancy
C1     C     0.18176   0.26666   0.25142   0.00000  Uiso   1.00
C2     C     0.11760   0.16934   0.40175   0.00000  Uiso   1.00
C3     C     0.19028   0.32266   0.25195   0.00000  Uiso   1.00
C4     C     0.13372   0.16278   0.34669   0.00000  Uiso   1.00
C5     C     0.14310   0.01066   0.24794   0.00000  Uiso   1.00
C6     C     0.15160   0.06667   0.24850   0.00000  Uiso   1.00
C7     C     0.20021   0.17053   0.15307   0.00000  Uiso   1.00
C8     C     0.28601   0.14278   0.02253   0.00000  Uiso   1.00
C9     C     0.22031   0.17023   0.09740   0.00000  Uiso   1.00
C10    C     0.07544   0.20157   0.42032   0.00000  Uiso   1.00
C11    C     0.07598   0.22663   0.46751   0.00000  Uiso   1.00
C12    C     0.15251   0.17966   0.48314   0.00000  Uiso   1.00
C13    C     0.11589   0.21739   0.49774   0.00000  Uiso   1.00
C14    C     0.00225   0.17844   0.09788   0.00000  Uiso   1.00
C15    C     0.01401   0.23871   0.10997   0.00000  Uiso   1.00
C16    C     0.06387   0.25830   0.14226   0.00000  Uiso   1.00
C17    C     0.15546   0.15675   0.43375   0.00000  Uiso   1.00
C18    C     0.19047   0.16770   0.01494   0.00000  Uiso   1.00
C19    C     0.24013   0.14336   0.49408   0.00000  Uiso   1.00
C20    C     0.24323   0.12085   0.44529   0.00000  Uiso   1.00
C21    C     0.19861   0.12424   0.41692   0.00000  Uiso   1.00
C22    C     0.17871   0.17687   0.06743   0.00000  Uiso   1.00
C23    C     0.27911   0.16170   0.07311   0.00000  Uiso   1.00
Cu24   Cu    0.10710   0.16105   0.24435   0.00000  Uiso   1.00
Cu25   Cu    0.22623   0.17228   0.25564   0.00000  Uiso   1.00
H26    H     0.09760   0.32020   0.24434   0.00000  Uiso   1.00
H27    H     0.19989   0.10274   0.38098   0.00000  Uiso   1.00
H28    H     0.23576   0.01312   0.25565   0.00000  Uiso   1.00
H29    H     0.05660   0.23245   0.17475   0.00000  Uiso   1.00
H30    H     0.11108   0.26070   0.11967   0.00000  Uiso   1.00
H31    H     0.06114   0.29871   0.15729   0.00000  Uiso   1.00
H32    H     0.02677   0.26076   0.07430   0.00000  Uiso   1.00
H33    H     0.30428   0.24997   0.13082   0.00000  Uiso   1.00
H34    H     0.33075   0.15521   0.13179   0.00000  Uiso   1.00
H35    H     0.04253   0.16839   0.07212   0.00000  Uiso   1.00
H36    H     0.00442   0.20758   0.28828   0.00000  Uiso   1.00
H37    H     0.32863   0.12508   0.21244   0.00000  Uiso   1.00
H38    H     0.27909   0.09944   0.42962   0.00000  Uiso   1.00
H39    H     0.32791   0.12975   0.00481   0.00000  Uiso   1.00
H40    H     0.13616   0.18719   0.08574   0.00000  Uiso   1.00
H41    H     0.04678   0.21197   0.39625   0.00000  Uiso   1.00
H42    H     0.11920   0.24101   0.03200   0.00000  Uiso   1.00
H43    H     0.04699   0.25484   0.47990   0.00000  Uiso   1.00
N44    N     0.31574   0.18074   0.26416   0.00000  Uiso   1.00
N45    N     0.01759   0.15259   0.23584   0.00000  Uiso   1.00
O46    O     0.12797   0.23807   0.24633   0.00000  Uiso   1.00
O47    O     0.22858   0.24755   0.25586   0.00000  Uiso   1.00
O48    O     0.09181   0.15960   0.31839   0.00000  Uiso   1.00
O49    O     0.19242   0.16908   0.32793   0.00000  Uiso   1.00
O50    O     0.10476   0.08578   0.24413   0.00000  Uiso   1.00
O51    O     0.20536   0.09526   0.25367   0.00000  Uiso   1.00
O52    O     0.14092   0.16425   0.17207   0.00000  Uiso   1.00
O53    O     0.24152   0.17373   0.18160   0.00000  Uiso   1.00
C54    C     0.51510   0.26666   0.25142   0.00000  Uiso   1.00
C55    C     0.45093   0.16934   0.40175   0.00000  Uiso   1.00
C56    C     0.52361   0.32266   0.25195   0.00000  Uiso   1.00
C57    C     0.46706   0.16278   0.34669   0.00000  Uiso   1.00
C58    C     0.47643   0.01066   0.24794   0.00000  Uiso   1.00
C59    C     0.48493   0.06667   0.24850   0.00000  Uiso   1.00
C60    C     0.53354   0.17053   0.15307   0.00000  Uiso   1.00
C61    C     0.61934   0.14278   0.02253   0.00000  Uiso   1.00
C62    C     0.55364   0.17023   0.09740   0.00000  Uiso   1.00
C63    C     0.40877   0.20157   0.42032   0.00000  Uiso   1.00
C64    C     0.40931   0.22663   0.46751   0.00000  Uiso   1.00
C65    C     0.48584   0.17966   0.48314   0.00000  Uiso   1.00
C66    C     0.44922   0.21739   0.49774   0.00000  Uiso   1.00
C67    C     0.33559   0.17844   0.09788   0.00000  Uiso   1.00
C68    C     0.34734   0.23871   0.10997   0.00000  Uiso   1.00
C69    C     0.39721   0.25830   0.14226   0.00000  Uiso   1.00
C70    C     0.48880   0.15675   0.43375   0.00000  Uiso   1.00
C71    C     0.52380   0.16770   0.01494   0.00000  Uiso   1.00
C72    C     0.57347   0.14336   0.49408   0.00000  Uiso   1.00
C73    C     0.57656   0.12085   0.44529   0.00000  Uiso   1.00
C74    C     0.53194   0.12424   0.41692   0.00000  Uiso   1.00
C75    C     0.51204   0.17687   0.06743   0.00000  Uiso   1.00
C76    C     0.61244   0.16170   0.07311   0.00000  Uiso   1.00
Cu77   Cu    0.44043   0.16105   0.24435   0.00000  Uiso   1.00
Cu78   Cu    0.55957   0.17228   0.25564   0.00000  Uiso   1.00
H79    H     0.43093   0.32020   0.24434   0.00000  Uiso   1.00
H80    H     0.53322   0.10274   0.38098   0.00000  Uiso   1.00
H81    H     0.56909   0.01312   0.25565   0.00000  Uiso   1.00
H82    H     0.38993   0.23245   0.17475   0.00000  Uiso   1.00
H83    H     0.44441   0.26070   0.11967   0.00000  Uiso   1.00
H84    H     0.39447   0.29871   0.15729   0.00000  Uiso   1.00
H85    H     0.36011   0.26076   0.07430   0.00000  Uiso   1.00
H86    H     0.63762   0.24997   0.13082   0.00000  Uiso   1.00
H87    H     0.66408   0.15521   0.13179   0.00000  Uiso   1.00
H88    H     0.37586   0.16839   0.07212   0.00000  Uiso   1.00
H89    H     0.33775   0.20758   0.28828   0.00000  Uiso   1.00
H90    H     0.66197   0.12508   0.21244   0.00000  Uiso   1.00
H91    H     0.61243   0.09944   0.42962   0.00000  Uiso   1.00
H92    H     0.66124   0.12975   0.00481   0.00000  Uiso   1.00
H93    H     0.46949   0.18719   0.08574   0.00000  Uiso   1.00
H94    H     0.38011   0.21197   0.39625   0.00000  Uiso   1.00
H95    H     0.45254   0.24101   0.03200   0.00000  Uiso   1.00
H96    H     0.38032   0.25484   0.47990   0.00000  Uiso   1.00
N97    N     0.64908   0.18074   0.26416   0.00000  Uiso   1.00
N98    N     0.35092   0.15259   0.23584   0.00000  Uiso   1.00
O99    O     0.46131   0.23807   0.24633   0.00000  Uiso   1.00
O100   O     0.56191   0.24755   0.25586   0.00000  Uiso   1.00
O101   O     0.42515   0.15960   0.31839   0.00000  Uiso   1.00
O102   O     0.52575   0.16908   0.32793   0.00000  Uiso   1.00
O103   O     0.43809   0.08578   0.24413   0.00000  Uiso   1.00
O104   O     0.53869   0.09526   0.25367   0.00000  Uiso   1.00
O105   O     0.47425   0.16425   0.17207   0.00000  Uiso   1.00
O106   O     0.57485   0.17373   0.18160   0.00000  Uiso   1.00
C107   C     0.84843   0.26666   0.25142   0.00000  Uiso   1.00
C108   C     0.78427   0.16934   0.40175   0.00000  Uiso   1.00
C109   C     0.85694   0.32266   0.25195   0.00000  Uiso   1.00
C110   C     0.80039   0.16278   0.34669   0.00000  Uiso   1.00
C111   C     0.80977   0.01066   0.24794   0.00000  Uiso   1.00
C112   C     0.81826   0.06667   0.24850   0.00000  Uiso   1.00
C113   C     0.86687   0.17053   0.15307   0.00000  Uiso   1.00
C114   C     0.95268   0.14278   0.02253   0.00000  Uiso   1.00
C115   C     0.88697   0.17023   0.09740   0.00000  Uiso   1.00
C116   C     0.74211   0.20157   0.42032   0.00000  Uiso   1.00
C117   C     0.74264   0.22663   0.46751   0.00000  Uiso   1.00
C118   C     0.81918   0.17966   0.48314   0.00000  Uiso   1.00
C119   C     0.78255   0.21739   0.49774   0.00000  Uiso   1.00
C120   C     0.66892   0.17844   0.09788   0.00000  Uiso   1.00
C121   C     0.68068   0.23871   0.10997   0.00000  Uiso   1.00
C122   C     0.73054   0.25830   0.14226   0.00000  Uiso   1.00
C123   C     0.82213   0.15675   0.43375   0.00000  Uiso   1.00
C124   C     0.85713   0.16770   0.01494   0.00000  Uiso   1.00
C125   C     0.90680   0.14336   0.49408   0.00000  Uiso   1.00
C126   C     0.90990   0.12085   0.44529   0.00000  Uiso   1.00
C127   C     0.86527   0.12424   0.41692   0.00000  Uiso   1.00
C128   C     0.84538   0.17687   0.06743   0.00000  Uiso   1.00
C129   C     0.94578   0.16170   0.07311   0.00000  Uiso   1.00
Cu130  Cu    0.77377   0.16105   0.24435   0.00000  Uiso   1.00
Cu131  Cu    0.89290   0.17228   0.25564   0.00000  Uiso   1.00
H132   H     0.76426   0.32020   0.24434   0.00000  Uiso   1.00
H133   H     0.86656   0.10274   0.38098   0.00000  Uiso   1.00
H134   H     0.90243   0.01312   0.25565   0.00000  Uiso   1.00
H135   H     0.72327   0.23245   0.17475   0.00000  Uiso   1.00
H136   H     0.77774   0.26070   0.11967   0.00000  Uiso   1.00
H137   H     0.72780   0.29871   0.15729   0.00000  Uiso   1.00
H138   H     0.69344   0.26076   0.07430   0.00000  Uiso   1.00
H139   H     0.97095   0.24997   0.13082   0.00000  Uiso   1.00
H140   H     0.99741   0.15521   0.13179   0.00000  Uiso   1.00
H141   H     0.70920   0.16839   0.07212   0.00000  Uiso   1.00
H142   H     0.67109   0.20758   0.28828   0.00000  Uiso   1.00
H143   H     0.99530   0.12508   0.21244   0.00000  Uiso   1.00
H144   H     0.94576   0.09944   0.42962   0.00000  Uiso   1.00
H145   H     0.99458   0.12975   0.00481   0.00000  Uiso   1.00
H146   H     0.80282   0.18719   0.08574   0.00000  Uiso   1.00
H147   H     0.71345   0.21197   0.39625   0.00000  Uiso   1.00
H148   H     0.78587   0.24101   0.03200   0.00000  Uiso   1.00
H149   H     0.71366   0.25484   0.47990   0.00000  Uiso   1.00
N150   N     0.98241   0.18074   0.26416   0.00000  Uiso   1.00
N151   N     0.68426   0.15259   0.23584   0.00000  Uiso   1.00
O152   O     0.79464   0.23807   0.24633   0.00000  Uiso   1.00
O153   O     0.89524   0.24755   0.25586   0.00000  Uiso   1.00
O154   O     0.75848   0.15960   0.31839   0.00000  Uiso   1.00
O155   O     0.85908   0.16908   0.32793   0.00000  Uiso   1.00
O156   O     0.77142   0.08578   0.24413   0.00000  Uiso   1.00
O157   O     0.87203   0.09526   0.25367   0.00000  Uiso   1.00
O158   O     0.80758   0.16425   0.17207   0.00000  Uiso   1.00
O159   O     0.90819   0.17373   0.18160   0.00000  Uiso   1.00
C160   C     0.18176   0.59999   0.25142   0.00000  Uiso   1.00
C161   C     0.11760   0.50267   0.40175   0.00000  Uiso   1.00
C162   C     0.19028   0.65600   0.25195   0.00000  Uiso   1.00
C163   C     0.13372   0.49611   0.34669   0.00000  Uiso   1.00
C164   C     0.14310   0.34399   0.24794   0.00000  Uiso   1.00
C165   C     0.15160   0.40000   0.24850   0.00000  Uiso   1.00
C166   C     0.20021   0.50387   0.15307   0.00000  Uiso   1.00
C167   C     0.28601   0.47611   0.02253   0.00000  Uiso   1.00
C168   C     0.22031   0.50356   0.09740   0.00000  Uiso   1.00
C169   C     0.07544   0.53490   0.42032   0.00000  Uiso   1.00
C170   C     0.07598   0.55996   0.46751   0.00000  Uiso   1.00
C171   C     0.15251   0.51299   0.48314   0.00000  Uiso   1.00
C172   C     0.11589   0.55072   0.49774   0.00000  Uiso   1.00
C173   C     0.00225   0.51177   0.09788   0.00000  Uiso   1.00
C174   C     0.01401   0.57205   0.10997   0.00000  Uiso   1.00
C175   C     0.06387   0.59163   0.14226   0.00000  Uiso   1.00
C176   C     0.15546   0.49008   0.43375   0.00000  Uiso   1.00
C177   C     0.19047   0.50104   0.01494   0.00000  Uiso   1.00
C178   C     0.24013   0.47669   0.49408   0.00000  Uiso   1.00
C179   C     0.24323   0.45418   0.44529   0.00000  Uiso   1.00
C180   C     0.19861   0.45758   0.41692   0.00000  Uiso   1.00
C181   C     0.17871   0.51021   0.06743   0.00000  Uiso   1.00
C182   C     0.27911   0.49504   0.07311   0.00000  Uiso   1.00
Cu183  Cu    0.10710   0.49439   0.24435   0.00000  Uiso   1.00
Cu184  Cu    0.22623   0.50561   0.25564   0.00000  Uiso   1.00
H185   H     0.09760   0.65354   0.24434   0.00000  Uiso   1.00
H186   H     0.19989   0.43607   0.38098   0.00000  Uiso   1.00
H187   H     0.23576   0.34645   0.25565   0.00000  Uiso   1.00
H188   H     0.05660   0.56578   0.17475   0.00000  Uiso   1.00
H189   H     0.11108   0.59403   0.11967   0.00000  Uiso   1.00
H190   H     0.06114   0.63204   0.15729   0.00000  Uiso   1.00
H191   H     0.02677   0.59409   0.07430   0.00000  Uiso   1.00
H192   H     0.30428   0.58330   0.13082   0.00000  Uiso   1.00
H193   H     0.33075   0.48854   0.13179   0.00000  Uiso   1.00
H194   H     0.04253   0.50173   0.07212   0.00000  Uiso   1.00
H195   H     0.00442   0.54091   0.28828   0.00000  Uiso   1.00
H196   H     0.32863   0.45841   0.21244   0.00000  Uiso   1.00
H197   H     0.27909   0.43277   0.42962   0.00000  Uiso   1.00
H198   H     0.32791   0.46309   0.00481   0.00000  Uiso   1.00
H199   H     0.13616   0.52052   0.08574   0.00000  Uiso   1.00
H200   H     0.04678   0.54531   0.39625   0.00000  Uiso   1.00
H201   H     0.11920   0.57434   0.03200   0.00000  Uiso   1.00
H202   H     0.04699   0.58817   0.47990   0.00000  Uiso   1.00
N203   N     0.31574   0.51407   0.26416   0.00000  Uiso   1.00
N204   N     0.01759   0.48593   0.23584   0.00000  Uiso   1.00
O205   O     0.12797   0.57141   0.24633   0.00000  Uiso   1.00
O206   O     0.22858   0.58089   0.25586   0.00000  Uiso   1.00
O207   O     0.09181   0.49293   0.31839   0.00000  Uiso   1.00
O208   O     0.19242   0.50241   0.32793   0.00000  Uiso   1.00
O209   O     0.10476   0.41911   0.24413   0.00000  Uiso   1.00
O210   O     0.20536   0.42859   0.25367   0.00000  Uiso   1.00
O211   O     0.14092   0.49759   0.17207   0.00000  Uiso   1.00
O212   O     0.24152   0.50707   0.18160   0.00000  Uiso   1.00
C213   C     0.51510   0.59999   0.25142   0.00000  Uiso   1.00
C214   C     0.45093   0.50267   0.40175   0.00000  Uiso   1.00
C215   C     0.52361   0.65600   0.25195   0.00000  Uiso   1.00
C216   C     0.46706   0.49611   0.34669   0.00000  Uiso   1.00
C217   C     0.47643   0.34399   0.24794   0.00000  Uiso   1.00
C218   C     0.48493   0.40000   0.24850   0.00000  Uiso   1.00
C219   C     0.53354   0.50387   0.15307   0.00000  Uiso   1.00
C220   C     0.61934   0.47611   0.02253   0.00000  Uiso   1.00
C221   C     0.55364   0.50356   0.09740   0.00000  Uiso   1.00
C222   C     0.40877   0.53490   0.42032   0.00000  Uiso   1.00
C223   C     0.40931   0.55996   0.46751   0.00000  Uiso   1.00
C224   C     0.48584   0.51299   0.48314   0.00000  Uiso   1.00
C225   C     0.44922   0.55072   0.49774   0.00000  Uiso   1.00
C226   C     0.33559   0.51177   0.09788   0.00000  Uiso   1.00
C227   C     0.34734   0.57205   0.10997   0.00000  Uiso   1.00
C228   C     0.39721   0.59163   0.14226   0.00000  Uiso   1.00
C229   C     0.48880   0.49008   0.43375   0.00000  Uiso   1.00
C230   C     0.52380   0.50104   0.01494   0.00000  Uiso   1.00
C231   C     0.57347   0.47669   0.49408   0.00000  Uiso   1.00
C232   C     0.57656   0.45418   0.44529   0.00000  Uiso   1.00
C233   C     0.53194   0.45758   0.41692   0.00000  Uiso   1.00
C234   C     0.51204   0.51021   0.06743   0.00000  Uiso   1.00
C235   C     0.61244   0.49504   0.07311   0.00000  Uiso   1.00
Cu236  Cu    0.44043   0.49439   0.24435   0.00000  Uiso   1.00
Cu237  Cu    0.55957   0.50561   0.25564   0.00000  Uiso   1.00
H238   H     0.43093   0.65354   0.24434   0.00000  Uiso   1.00
H239   H     0.53322   0.43607   0.38098   0.00000  Uiso   1.00
H240   H     0.56909   0.34645   0.25565   0.00000  Uiso   1.00
H241   H     0.38993   0.56578   0.17475   0.00000  Uiso   1.00
H242   H     0.44441   0.59403   0.11967   0.00000  Uiso   1.00
H243   H     0.39447   0.63204   0.15729   0.00000  Uiso   1.00
H244   H     0.36011   0.59409   0.07430   0.00000  Uiso   1.00
H245   H     0.63762   0.58330   0.13082   0.00000  Uiso   1.00
H246   H     0.66408   0.48854   0.13179   0.00000  Uiso   1.00
H247   H     0.37586   0.50173   0.07212   0.00000  Uiso   1.00
H248   H     0.33775   0.54091   0.28828   0.00000  Uiso   1.00
H249   H     0.66197   0.45841   0.21244   0.00000  Uiso   1.00
H250   H     0.61243   0.43277   0.42962   0.00000  Uiso   1.00
H251   H     0.66124   0.46309   0.00481   0.00000  Uiso   1.00
H252   H     0.46949   0.52052   0.08574   0.00000  Uiso   1.00
H253   H     0.38011   0.54531   0.39625   0.00000  Uiso   1.00
H254   H     0.45254   0.57434   0.03200   0.00000  Uiso   1.00
H255   H     0.38032   0.58817   0.47990   0.00000  Uiso   1.00
N256   N     0.64908   0.51407   0.26416   0.00000  Uiso   1.00
N257   N     0.35092   0.48593   0.23584   0.00000  Uiso   1.00
O258   O     0.46131   0.57141   0.24633   0.00000  Uiso   1.00
O259   O     0.56191   0.58089   0.25586   0.00000  Uiso   1.00
O260   O     0.42515   0.49293   0.31839   0.00000  Uiso   1.00
O261   O     0.52575   0.50241   0.32793   0.00000  Uiso   1.00
O262   O     0.43809   0.41911   0.24413   0.00000  Uiso   1.00
O263   O     0.53869   0.42859   0.25367   0.00000  Uiso   1.00
O264   O     0.47425   0.49759   0.17207   0.00000  Uiso   1.00
O265   O     0.57485   0.50707   0.18160   0.00000  Uiso   1.00
C266   C     0.84843   0.59999   0.25142   0.00000  Uiso   1.00
C267   C     0.78427   0.50267   0.40175   0.00000  Uiso   1.00
C268   C     0.85694   0.65600   0.25195   0.00000  Uiso   1.00
C269   C     0.80039   0.49611   0.34669   0.00000  Uiso   1.00
C270   C     0.80977   0.34399   0.24794   0.00000  Uiso   1.00
C271   C     0.81826   0.40000   0.24850   0.00000  Uiso   1.00
C272   C     0.86687   0.50387   0.15307   0.00000  Uiso   1.00
C273   C     0.95268   0.47611   0.02253   0.00000  Uiso   1.00
C274   C     0.88697   0.50356   0.09740   0.00000  Uiso   1.00
C275   C     0.74211   0.53490   0.42032   0.00000  Uiso   1.00
C276   C     0.74264   0.55996   0.46751   0.00000  Uiso   1.00
C277   C     0.81918   0.51299   0.48314   0.00000  Uiso   1.00
C278   C     0.78255   0.55072   0.49774   0.00000  Uiso   1.00
C279   C     0.66892   0.51177   0.09788   0.00000  Uiso   1.00
C280   C     0.68068   0.57205   0.10997   0.00000  Uiso   1.00
C281   C     0.73054   0.59163   0.14226   0.00000  Uiso   1.00
C282   C     0.82213   0.49008   0.43375   0.00000  Uiso   1.00
C283   C     0.85713   0.50104   0.01494   0.00000  Uiso   1.00
C284   C     0.90680   0.47669   0.49408   0.00000  Uiso   1.00
C285   C     0.90990   0.45418   0.44529   0.00000  Uiso   1.00
C286   C     0.86527   0.45758   0.41692   0.00000  Uiso   1.00
C287   C     0.84538   0.51021   0.06743   0.00000  Uiso   1.00
C288   C     0.94578   0.49504   0.07311   0.00000  Uiso   1.00
Cu289  Cu    0.77377   0.49439   0.24435   0.00000  Uiso   1.00
Cu290  Cu    0.89290   0.50561   0.25564   0.00000  Uiso   1.00
H291   H     0.76426   0.65354   0.24434   0.00000  Uiso   1.00
H292   H     0.86656   0.43607   0.38098   0.00000  Uiso   1.00
H293   H     0.90243   0.34645   0.25565   0.00000  Uiso   1.00
H294   H     0.72327   0.56578   0.17475   0.00000  Uiso   1.00
H295   H     0.77774   0.59403   0.11967   0.00000  Uiso   1.00
H296   H     0.72780   0.63204   0.15729   0.00000  Uiso   1.00
H297   H     0.69344   0.59409   0.07430   0.00000  Uiso   1.00
H298   H     0.97095   0.58330   0.13082   0.00000  Uiso   1.00
H299   H     0.99741   0.48854   0.13179   0.00000  Uiso   1.00
H300   H     0.70920   0.50173   0.07212   0.00000  Uiso   1.00
H301   H     0.67109   0.54091   0.28828   0.00000  Uiso   1.00
H302   H     0.99530   0.45841   0.21244   0.00000  Uiso   1.00
H303   H     0.94576   0.43277   0.42962   0.00000  Uiso   1.00
H304   H     0.99458   0.46309   0.00481   0.00000  Uiso   1.00
H305   H     0.80282   0.52052   0.08574   0.00000  Uiso   1.00
H306   H     0.71345   0.54531   0.39625   0.00000  Uiso   1.00
H307   H     0.78587   0.57434   0.03200   0.00000  Uiso   1.00
H308   H     0.71366   0.58817   0.47990   0.00000  Uiso   1.00
N309   N     0.98241   0.51407   0.26416   0.00000  Uiso   1.00
N310   N     0.68426   0.48593   0.23584   0.00000  Uiso   1.00
O311   O     0.79464   0.57141   0.24633   0.00000  Uiso   1.00
O312   O     0.89524   0.58089   0.25586   0.00000  Uiso   1.00
O313   O     0.75848   0.49293   0.31839   0.00000  Uiso   1.00
O314   O     0.85908   0.50241   0.32793   0.00000  Uiso   1.00
O315   O     0.77142   0.41911   0.24413   0.00000  Uiso   1.00
O316   O     0.87203   0.42859   0.25367   0.00000  Uiso   1.00
O317   O     0.80758   0.49759   0.17207   0.00000  Uiso   1.00
O318   O     0.90819   0.50707   0.18160   0.00000  Uiso   1.00
C319   C     0.18176   0.93333   0.25142   0.00000  Uiso   1.00
C320   C     0.11760   0.83600   0.40175   0.00000  Uiso   1.00
C321   C     0.19028   0.98933   0.25195   0.00000  Uiso   1.00
C322   C     0.13372   0.82944   0.34669   0.00000  Uiso   1.00
C323   C     0.14310   0.67733   0.24794   0.00000  Uiso   1.00
C324   C     0.15160   0.73333   0.24850   0.00000  Uiso   1.00
C325   C     0.20021   0.83720   0.15307   0.00000  Uiso   1.00
C326   C     0.28601   0.80944   0.02253   0.00000  Uiso   1.00
C327   C     0.22031   0.83690   0.09740   0.00000  Uiso   1.00
C328   C     0.07544   0.86823   0.42032   0.00000  Uiso   1.00
C329   C     0.07598   0.89329   0.46751   0.00000  Uiso   1.00
C330   C     0.15251   0.84633   0.48314   0.00000  Uiso   1.00
C331   C     0.11589   0.88406   0.49774   0.00000  Uiso   1.00
C332   C     0.00225   0.84510   0.09788   0.00000  Uiso   1.00
C333   C     0.01401   0.90538   0.10997   0.00000  Uiso   1.00
C334   C     0.06387   0.92496   0.14226   0.00000  Uiso   1.00
C335   C     0.15546   0.82341   0.43375   0.00000  Uiso   1.00
C336   C     0.19047   0.83437   0.01494   0.00000  Uiso   1.00
C337   C     0.24013   0.81003   0.49408   0.00000  Uiso   1.00
C338   C     0.24323   0.78752   0.44529   0.00000  Uiso   1.00
C339   C     0.19861   0.79091   0.41692   0.00000  Uiso   1.00
C340   C     0.17871   0.84354   0.06743   0.00000  Uiso   1.00
C341   C     0.27911   0.82837   0.07311   0.00000  Uiso   1.00
Cu342  Cu    0.10710   0.82772   0.24435   0.00000  Uiso   1.00
Cu343  Cu    0.22623   0.83895   0.25564   0.00000  Uiso   1.00
H344   H     0.09760   0.98687   0.24434   0.00000  Uiso   1.00
H345   H     0.19989   0.76941   0.38098   0.00000  Uiso   1.00
H346   H     0.23576   0.67979   0.25565   0.00000  Uiso   1.00
H347   H     0.05660   0.89912   0.17475   0.00000  Uiso   1.00
H348   H     0.11108   0.92737   0.11967   0.00000  Uiso   1.00
H349   H     0.06114   0.96537   0.15729   0.00000  Uiso   1.00
H350   H     0.02677   0.92743   0.07430   0.00000  Uiso   1.00
H351   H     0.30428   0.91664   0.13082   0.00000  Uiso   1.00
H352   H     0.33075   0.82187   0.13179   0.00000  Uiso   1.00
H353   H     0.04253   0.83506   0.07212   0.00000  Uiso   1.00
H354   H     0.00442   0.87425   0.28828   0.00000  Uiso   1.00
H355   H     0.32863   0.79175   0.21244   0.00000  Uiso   1.00
H356   H     0.27909   0.76611   0.42962   0.00000  Uiso   1.00
H357   H     0.32791   0.79642   0.00481   0.00000  Uiso   1.00
H358   H     0.13616   0.85385   0.08574   0.00000  Uiso   1.00
H359   H     0.04678   0.87864   0.39625   0.00000  Uiso   1.00
H360   H     0.11920   0.90767   0.03200   0.00000  Uiso   1.00
H361   H     0.04699   0.92151   0.47990   0.00000  Uiso   1.00
N362   N     0.31574   0.84741   0.26416   0.00000  Uiso   1.00
N363   N     0.01759   0.81926   0.23584   0.00000  Uiso   1.00
O364   O     0.12797   0.90474   0.24633   0.00000  Uiso   1.00
O365   O     0.22858   0.91422   0.25586   0.00000  Uiso   1.00
O366   O     0.09181   0.82627   0.31839   0.00000  Uiso   1.00
O367   O     0.19242   0.83575   0.32793   0.00000  Uiso   1.00
O368   O     0.10476   0.75245   0.24413   0.00000  Uiso   1.00
O369   O     0.20536   0.76193   0.25367   0.00000  Uiso   1.00
O370   O     0.14092   0.83092   0.17207   0.00000  Uiso   1.00
O371   O     0.24152   0.84040   0.18160   0.00000  Uiso   1.00
C372   C     0.51510   0.93333   0.25142   0.00000  Uiso   1.00
C373   C     0.45093   0.83600   0.40175   0.00000  Uiso   1.00
C374   C     0.52361   0.98933   0.25195   0.00000  Uiso   1.00
C375   C     0.46706   0.82944   0.34669   0.00000  Uiso   1.00
C376   C     0.47643   0.67733   0.24794   0.00000  Uiso   1.00
C377   C     0.48493   0.73333   0.24850   0.00000  Uiso   1.00
C378   C     0.53354   0.83720   0.15307   0.00000  Uiso   1.00
C379   C     0.61934   0.80944   0.02253   0.00000  Uiso   1.00
C380   C     0.55364   0.83690   0.09740   0.00000  Uiso   1.00
C381   C     0.40877   0.86823   0.42032   0.00000  Uiso   1.00
C382   C     0.40931   0.89329   0.46751   0.00000  Uiso   1.00
C383   C     0.48584   0.84633   0.48314   0.00000  Uiso   1.00
C384   C     0.44922   0.88406   0.49774   0.00000  Uiso   1.00
C385   C     0.33559   0.84510   0.09788   0.00000  Uiso   1.00
C386   C     0.34734   0.90538   0.10997   0.00000  Uiso   1.00
C387   C     0.39721   0.92496   0.14226   0.00000  Uiso   1.00
C388   C     0.48880   0.82341   0.43375   0.00000  Uiso   1.00
C389   C     0.52380   0.83437   0.01494   0.00000  Uiso   1.00
C390   C     0.57347   0.81003   0.49408   0.00000  Uiso   1.00
C391   C     0.57656   0.78752   0.44529   0.00000  Uiso   1.00
C392   C     0.53194   0.79091   0.41692   0.00000  Uiso   1.00
C393   C     0.51204   0.84354   0.06743   0.00000  Uiso   1.00
C394   C     0.61244   0.82837   0.07311   0.00000  Uiso   1.00
Cu395  Cu    0.44043   0.82772   0.24435   0.00000  Uiso   1.00
Cu396  Cu    0.55957   0.83895   0.25564   0.00000  Uiso   1.00
H397   H     0.43093   0.98687   0.24434   0.00000  Uiso   1.00
H398   H     0.53322   0.76941   0.38098   0.00000  Uiso   1.00
H399   H     0.56909   0.67979   0.25565   0.00000  Uiso   1.00
H400   H     0.38993   0.89912   0.17475   0.00000  Uiso   1.00
H401   H     0.44441   0.92737   0.11967   0.00000  Uiso   1.00
H402   H     0.39447   0.96537   0.15729   0.00000  Uiso   1.00
H403   H     0.36011   0.92743   0.07430   0.00000  Uiso   1.00
H404   H     0.63762   0.91664   0.13082   0.00000  Uiso   1.00
H405   H     0.66408   0.82187   0.13179   0.00000  Uiso   1.00
H406   H     0.37586   0.83506   0.07212   0.00000  Uiso   1.00
H407   H     0.33775   0.87425   0.28828   0.00000  Uiso   1.00
H408   H     0.66197   0.79175   0.21244   0.00000  Uiso   1.00
H409   H     0.61243   0.76611   0.42962   0.00000  Uiso   1.00
H410   H     0.66124   0.79642   0.00481   0.00000  Uiso   1.00
H411   H     0.46949   0.85385   0.08574   0.00000  Uiso   1.00
H412   H     0.38011   0.87864   0.39625   0.00000  Uiso   1.00
H413   H     0.45254   0.90767   0.03200   0.00000  Uiso   1.00
H414   H     0.38032   0.92151   0.47990   0.00000  Uiso   1.00
N415   N     0.64908   0.84741   0.26416   0.00000  Uiso   1.00
N416   N     0.35092   0.81926   0.23584   0.00000  Uiso   1.00
O417   O     0.46131   0.90474   0.24633   0.00000  Uiso   1.00
O418   O     0.56191   0.91422   0.25586   0.00000  Uiso   1.00
O419   O     0.42515   0.82627   0.31839   0.00000  Uiso   1.00
O420   O     0.52575   0.83575   0.32793   0.00000  Uiso   1.00
O421   O     0.43809   0.75245   0.24413   0.00000  Uiso   1.00
O422   O     0.53869   0.76193   0.25367   0.00000  Uiso   1.00
O423   O     0.47425   0.83092   0.17207   0.00000  Uiso   1.00
O424   O     0.57485   0.84040   0.18160   0.00000  Uiso   1.00
C425   C     0.84843   0.93333   0.25142   0.00000  Uiso   1.00
C426   C     0.78427   0.83600   0.40175   0.00000  Uiso   1.00
C427   C     0.85694   0.98933   0.25195   0.00000  Uiso   1.00
C428   C     0.80039   0.82944   0.34669   0.00000  Uiso   1.00
C429   C     0.80977   0.67733   0.24794   0.00000  Uiso   1.00
C430   C     0.81826   0.73333   0.24850   0.00000  Uiso   1.00
C431   C     0.86687   0.83720   0.15307   0.00000  Uiso   1.00
C432   C     0.95268   0.80944   0.02253   0.00000  Uiso   1.00
C433   C     0.88697   0.83690   0.09740   0.00000  Uiso   1.00
C434   C     0.74211   0.86823   0.42032   0.00000  Uiso   1.00
C435   C     0.74264   0.89329   0.46751   0.00000  Uiso   1.00
C436   C     0.81918   0.84633   0.48314   0.00000  Uiso   1.00
C437   C     0.78255   0.88406   0.49774   0.00000  Uiso   1.00
C438   C     0.66892   0.84510   0.09788   0.00000  Uiso   1.00
C439   C     0.68068   0.90538   0.10997   0.00000  Uiso   1.00
C440   C     0.73054   0.92496   0.14226   0.00000  Uiso   1.00
C441   C     0.82213   0.82341   0.43375   0.00000  Uiso   1.00
C442   C     0.85713   0.83437   0.01494   0.00000  Uiso   1.00
C443   C     0.90680   0.81003   0.49408   0.00000  Uiso   1.00
C444   C     0.90990   0.78752   0.44529   0.00000  Uiso   1.00
C445   C     0.86527   0.79091   0.41692   0.00000  Uiso   1.00
C446   C     0.84538   0.84354   0.06743   0.00000  Uiso   1.00
C447   C     0.94578   0.82837   0.07311   0.00000  Uiso   1.00
Cu448  Cu    0.77377   0.82772   0.24435   0.00000  Uiso   1.00
Cu449  Cu    0.89290   0.83895   0.25564   0.00000  Uiso   1.00
H450   H     0.76426   0.98687   0.24434   0.00000  Uiso   1.00
H451   H     0.86656   0.76941   0.38098   0.00000  Uiso   1.00
H452   H     0.90243   0.67979   0.25565   0.00000  Uiso   1.00
H453   H     0.72327   0.89912   0.17475   0.00000  Uiso   1.00
H454   H     0.77774   0.92737   0.11967   0.00000  Uiso   1.00
H455   H     0.72780   0.96537   0.15729   0.00000  Uiso   1.00
H456   H     0.69344   0.92743   0.07430   0.00000  Uiso   1.00
H457   H     0.97095   0.91664   0.13082   0.00000  Uiso   1.00
H458   H     0.99741   0.82187   0.13179   0.00000  Uiso   1.00
H459   H     0.70920   0.83506   0.07212   0.00000  Uiso   1.00
H460   H     0.67109   0.87425   0.28828   0.00000  Uiso   1.00
H461   H     0.99530   0.79175   0.21244   0.00000  Uiso   1.00
H462   H     0.94576   0.76611   0.42962   0.00000  Uiso   1.00
H463   H     0.99458   0.79642   0.00481   0.00000  Uiso   1.00
H464   H     0.80282   0.85385   0.08574   0.00000  Uiso   1.00
H465   H     0.71345   0.87864   0.39625   0.00000  Uiso   1.00
H466   H     0.78587   0.90767   0.03200   0.00000  Uiso   1.00
H467   H     0.71366   0.92151   0.47990   0.00000  Uiso   1.00
N468   N     0.98241   0.84741   0.26416   0.00000  Uiso   1.00
N469   N     0.68426   0.81926   0.23584   0.00000  Uiso   1.00
O470   O     0.79464   0.90474   0.24633   0.00000  Uiso   1.00
O471   O     0.89524   0.91422   0.25586   0.00000  Uiso   1.00
O472   O     0.75848   0.82627   0.31839   0.00000  Uiso   1.00
O473   O     0.85908   0.83575   0.32793   0.00000  Uiso   1.00
O474   O     0.77142   0.75245   0.24413   0.00000  Uiso   1.00
O475   O     0.87203   0.76193   0.25367   0.00000  Uiso   1.00
O476   O     0.80758   0.83092   0.17207   0.00000  Uiso   1.00
O477   O     0.90819   0.84040   0.18160   0.00000  Uiso   1.00
C478   C     0.18176   0.26666   0.75142   0.00000  Uiso   1.00
C479   C     0.11760   0.16934   0.90175   0.00000  Uiso   1.00
C480   C     0.19028   0.32266   0.75195   0.00000  Uiso   1.00
C481   C     0.13372   0.16278   0.84669   0.00000  Uiso   1.00
C482   C     0.14310   0.01066   0.74794   0.00000  Uiso   1.00
C483   C     0.15160   0.06667   0.74850   0.00000  Uiso   1.00
C484   C     0.20021   0.17053   0.65307   0.00000  Uiso   1.00
C485   C     0.28601   0.14278   0.52253   0.00000  Uiso   1.00
C486   C     0.22031   0.17023   0.59740   0.00000  Uiso   1.00
C487   C     0.07544   0.20157   0.92032   0.00000  Uiso   1.00
C488   C     0.07598   0.22663   0.96751   0.00000  Uiso   1.00
C489   C     0.15251   0.17966   0.98314   0.00000  Uiso   1.00
C490   C     0.11589   0.21739   0.99774   0.00000  Uiso   1.00
C491   C     0.00225   0.17844   0.59788   0.00000  Uiso   1.00
C492   C     0.01401   0.23871   0.60997   0.00000  Uiso   1.00
C493   C     0.06387   0.25830   0.64226   0.00000  Uiso   1.00
C494   C     0.15546   0.15675   0.93375   0.00000  Uiso   1.00
C495   C     0.19047   0.16770   0.51494   0.00000  Uiso   1.00
C496   C     0.24013   0.14336   0.99408   0.00000  Uiso   1.00
C497   C     0.24323   0.12085   0.94529   0.00000  Uiso   1.00
C498   C     0.19861   0.12424   0.91692   0.00000  Uiso   1.00
C499   C     0.17871   0.17687   0.56743   0.00000  Uiso   1.00
C500   C     0.27911   0.16170   0.57311   0.00000  Uiso   1.00
Cu501  Cu    0.10710   0.16105   0.74435   0.00000  Uiso   1.00
Cu502  Cu    0.22623   0.17228   0.75564   0.00000  Uiso   1.00
H503   H     0.09760   0.32020   0.74434   0.00000  Uiso   1.00
H504   H     0.19989   0.10274   0.88098   0.00000  Uiso   1.00
H505   H     0.23576   0.01312   0.75565   0.00000  Uiso   1.00
H506   H     0.05660   0.23245   0.67475   0.00000  Uiso   1.00
H507   H     0.11108   0.26070   0.61967   0.00000  Uiso   1.00
H508   H     0.06114   0.29871   0.65729   0.00000  Uiso   1.00
H509   H     0.02677   0.26076   0.57430   0.00000  Uiso   1.00
H510   H     0.30428   0.24997   0.63082   0.00000  Uiso   1.00
H511   H     0.33075   0.15521   0.63179   0.00000  Uiso   1.00
H512   H     0.04253   0.16839   0.57212   0.00000  Uiso   1.00
H513   H     0.00442   0.20758   0.78828   0.00000  Uiso   1.00
H514   H     0.32863   0.12508   0.71244   0.00000  Uiso   1.00
H515   H     0.27909   0.09944   0.92962   0.00000  Uiso   1.00
H516   H     0.32791   0.12975   0.50481   0.00000  Uiso   1.00
H517   H     0.13616   0.18719   0.58574   0.00000  Uiso   1.00
H518   H     0.04678   0.21197   0.89625   0.00000  Uiso   1.00
H519   H     0.11920   0.24101   0.53200   0.00000  Uiso   1.00
H520   H     0.04699   0.25484   0.97990   0.00000  Uiso   1.00
N521   N     0.31574   0.18074   0.76416   0.00000  Uiso   1.00
N522   N     0.01759   0.15259   0.73584   0.00000  Uiso   1.00
O523   O     0.12797   0.23807   0.74633   0.00000  Uiso   1.00
O524   O     0.22858   0.24755   0.75586   0.00000  Uiso   1.00
O525   O     0.09181   0.15960   0.81839   0.00000  Uiso   1.00
O526   O     0.19242   0.16908   0.82793   0.00000  Uiso   1.00
O527   O     0.10476   0.08578   0.74413   0.00000  Uiso   1.00
O528   O     0.20536   0.09526   0.75367   0.00000  Uiso   1.00
O529   O     0.14092   0.16425   0.67207   0.00000  Uiso   1.00
O530   O     0.24152   0.17373   0.68160   0.00000  Uiso   1.00
C531   C     0.51510   0.26666   0.75142   0.00000  Uiso   1.00
C532   C     0.45093   0.16934   0.90175   0.00000  Uiso   1.00
C533   C     0.52361   0.32266   0.75195   0.00000  Uiso   1.00
C534   C     0.46706   0.16278   0.84669   0.00000  Uiso   1.00
C535   C     0.47643   0.01066   0.74794   0.00000  Uiso   1.00
C536   C     0.48493   0.06667   0.74850   0.00000  Uiso   1.00
C537   C     0.53354   0.17053   0.65307   0.00000  Uiso   1.00
C538   C     0.61934   0.14278   0.52253   0.00000  Uiso   1.00
C539   C     0.55364   0.17023   0.59740   0.00000  Uiso   1.00
C540   C     0.40877   0.20157   0.92032   0.00000  Uiso   1.00
C541   C     0.40931   0.22663   0.96751   0.00000  Uiso   1.00
C542   C     0.48584   0.17966   0.98314   0.00000  Uiso   1.00
C543   C     0.44922   0.21739   0.99774   0.00000  Uiso   1.00
C544   C     0.33559   0.17844   0.59788   0.00000  Uiso   1.00
C545   C     0.34734   0.23871   0.60997   0.00000  Uiso   1.00
C546   C     0.39721   0.25830   0.64226   0.00000  Uiso   1.00
C547   C     0.48880   0.15675   0.93375   0.00000  Uiso   1.00
C548   C     0.52380   0.16770   0.51494   0.00000  Uiso   1.00
C549   C     0.57347   0.14336   0.99408   0.00000  Uiso   1.00
C550   C     0.57656   0.12085   0.94529   0.00000  Uiso   1.00
C551   C     0.53194   0.12424   0.91692   0.00000  Uiso   1.00
C552   C     0.51204   0.17687   0.56743   0.00000  Uiso   1.00
C553   C     0.61244   0.16170   0.57311   0.00000  Uiso   1.00
Cu554  Cu    0.44043   0.16105   0.74435   0.00000  Uiso   1.00
Cu555  Cu    0.55957   0.17228   0.75564   0.00000  Uiso   1.00
H556   H     0.43093   0.32020   0.74434   0.00000  Uiso   1.00
H557   H     0.53322   0.10274   0.88098   0.00000  Uiso   1.00
H558   H     0.56909   0.01312   0.75565   0.00000  Uiso   1.00
H559   H     0.38993   0.23245   0.67475   0.00000  Uiso   1.00
H560   H     0.44441   0.26070   0.61967   0.00000  Uiso   1.00
H561   H     0.39447   0.29871   0.65729   0.00000  Uiso   1.00
H562   H     0.36011   0.26076   0.57430   0.00000  Uiso   1.00
H563   H     0.63762   0.24997   0.63082   0.00000  Uiso   1.00
H564   H     0.66408   0.15521   0.63179   0.00000  Uiso   1.00
H565   H     0.37586   0.16839   0.57212   0.00000  Uiso   1.00
H566   H     0.33775   0.20758   0.78828   0.00000  Uiso   1.00
H567   H     0.66197   0.12508   0.71244   0.00000  Uiso   1.00
H568   H     0.61243   0.09944   0.92962   0.00000  Uiso   1.00
H569   H     0.66124   0.12975   0.50481   0.00000  Uiso   1.00
H570   H     0.46949   0.18719   0.58574   0.00000  Uiso   1.00
H571   H     0.38011   0.21197   0.89625   0.00000  Uiso   1.00
H572   H     0.45254   0.24101   0.53200   0.00000  Uiso   1.00
H573   H     0.38032   0.25484   0.97990   0.00000  Uiso   1.00
N574   N     0.64908   0.18074   0.76416   0.00000  Uiso   1.00
N575   N     0.35092   0.15259   0.73584   0.00000  Uiso   1.00
O576   O     0.46131   0.23807   0.74633   0.00000  Uiso   1.00
O577   O     0.56191   0.24755   0.75586   0.00000  Uiso   1.00
O578   O     0.42515   0.15960   0.81839   0.00000  Uiso   1.00
O579   O     0.52575   0.16908   0.82793   0.00000  Uiso   1.00
O580   O     0.43809   0.08578   0.74413   0.00000  Uiso   1.00
O581   O     0.53869   0.09526   0.75367   0.00000  Uiso   1.00
O582   O     0.47425   0.16425   0.67207   0.00000  Uiso   1.00
O583   O     0.57485   0.17373   0.68160   0.00000  Uiso   1.00
C584   C     0.84843   0.26666   0.75142   0.00000  Uiso   1.00
C585   C     0.78427   0.16934   0.90175   0.00000  Uiso   1.00
C586   C     0.85694   0.32266   0.75195   0.00000  Uiso   1.00
C587   C     0.80039   0.16278   0.84669   0.00000  Uiso   1.00
C588   C     0.80977   0.01066   0.74794   0.00000  Uiso   1.00
C589   C     0.81826   0.06667   0.74850   0.00000  Uiso   1.00
C590   C     0.86687   0.17053   0.65307   0.00000  Uiso   1.00
C591   C     0.95268   0.14278   0.52253   0.00000  Uiso   1.00
C592   C     0.88697   0.17023   0.59740   0.00000  Uiso   1.00
C593   C     0.74211   0.20157   0.92032   0.00000  Uiso   1.00
C594   C     0.74264   0.22663   0.96751   0.00000  Uiso   1.00
C595   C     0.81918   0.17966   0.98314   0.00000  Uiso   1.00
C596   C     0.78255   0.21739   0.99774   0.00000  Uiso   1.00
C597   C     0.66892   0.17844   0.59788   0.00000  Uiso   1.00
C598   C     0.68068   0.23871   0.60997   0.00000  Uiso   1.00
C599   C     0.73054   0.25830   0.64226   0.00000  Uiso   1.00
C600   C     0.82213   0.15675   0.93375   0.00000  Uiso   1.00
C601   C     0.85713   0.16770   0.51494   0.00000  Uiso   1.00
C602   C     0.90680   0.14336   0.99408   0.00000  Uiso   1.00
C603   C     0.90990   0.12085   0.94529   0.00000  Uiso   1.00
C604   C     0.86527   0.12424   0.91692   0.00000  Uiso   1.00
C605   C     0.84538   0.17687   0.56743   0.00000  Uiso   1.00
C606   C     0.94578   0.16170   0.57311   0.00000  Uiso   1.00
Cu607  Cu    0.77377   0.16105   0.74435   0.00000  Uiso   1.00
Cu608  Cu    0.89290   0.17228   0.75564   0.00000  Uiso   1.00
H609   H     0.76426   0.32020   0.74434   0.00000  Uiso   1.00
H610   H     0.86656   0.10274   0.88098   0.00000  Uiso   1.00
H611   H     0.90243   0.01312   0.75565   0.00000  Uiso   1.00
H612   H     0.72327   0.23245   0.67475   0.00000  Uiso   1.00
H613   H     0.77774   0.26070   0.61967   0.00000  Uiso   1.00
H614   H     0.72780   0.29871   0.65729   0.00000  Uiso   1.00
H615   H     0.69344   0.26076   0.57430   0.00000  Uiso   1.00
H616   H     0.97095   0.24997   0.63082   0.00000  Uiso   1.00
H617   H     0.99741   0.15521   0.63179   0.00000  Uiso   1.00
H618   H     0.70920   0.16839   0.57212   0.00000  Uiso   1.00
H619   H     0.67109   0.20758   0.78828   0.00000  Uiso   1.00
H620   H     0.99530   0.12508   0.71244   0.00000  Uiso   1.00
H621   H     0.94576   0.09944   0.92962   0.00000  Uiso   1.00
H622   H     0.99458   0.12975   0.50481   0.00000  Uiso   1.00
H623   H     0.80282   0.18719   0.58574   0.00000  Uiso   1.00
H624   H     0.71345   0.21197   0.89625   0.00000  Uiso   1.00
H625   H     0.78587   0.24101   0.53200   0.00000  Uiso   1.00
H626   H     0.71366   0.25484   0.97990   0.00000  Uiso   1.00
N627   N     0.98241   0.18074   0.76416   0.00000  Uiso   1.00
N628   N     0.68426   0.15259   0.73584   0.00000  Uiso   1.00
O629   O     0.79464   0.23807   0.74633   0.00000  Uiso   1.00
O630   O     0.89524   0.24755   0.75586   0.00000  Uiso   1.00
O631   O     0.75848   0.15960   0.81839   0.00000  Uiso   1.00
O632   O     0.85908   0.16908   0.82793   0.00000  Uiso   1.00
O633   O     0.77142   0.08578   0.74413   0.00000  Uiso   1.00
O634   O     0.87203   0.09526   0.75367   0.00000  Uiso   1.00
O635   O     0.80758   0.16425   0.67207   0.00000  Uiso   1.00
O636   O     0.90819   0.17373   0.68160   0.00000  Uiso   1.00
C637   C     0.18176   0.59999   0.75142   0.00000  Uiso   1.00
C638   C     0.11760   0.50267   0.90175   0.00000  Uiso   1.00
C639   C     0.19028   0.65600   0.75195   0.00000  Uiso   1.00
C640   C     0.13372   0.49611   0.84669   0.00000  Uiso   1.00
C641   C     0.14310   0.34399   0.74794   0.00000  Uiso   1.00
C642   C     0.15160   0.40000   0.74850   0.00000  Uiso   1.00
C643   C     0.20021   0.50387   0.65307   0.00000  Uiso   1.00
C644   C     0.28601   0.47611   0.52253   0.00000  Uiso   1.00
C645   C     0.22031   0.50356   0.59740   0.00000  Uiso   1.00
C646   C     0.07544   0.53490   0.92032   0.00000  Uiso   1.00
C647   C     0.07598   0.55996   0.96751   0.00000  Uiso   1.00
C648   C     0.15251   0.51299   0.98314   0.00000  Uiso   1.00
C649   C     0.11589   0.55072   0.99774   0.00000  Uiso   1.00
C650   C     0.00225   0.51177   0.59788   0.00000  Uiso   1.00
C651   C     0.01401   0.57205   0.60997   0.00000  Uiso   1.00
C652   C     0.06387   0.59163   0.64226   0.00000  Uiso   1.00
C653   C     0.15546   0.49008   0.93375   0.00000  Uiso   1.00
C654   C     0.19047   0.50104   0.51494   0.00000  Uiso   1.00
C655   C     0.24013   0.47669   0.99408   0.00000  Uiso   1.00
C656   C     0.24323   0.45418   0.94529   0.00000  Uiso   1.00
C657   C     0.19861   0.45758   0.91692   0.00000  Uiso   1.00
C658   C     0.17871   0.51021   0.56743   0.00000  Uiso   1.00
C659   C     0.27911   0.49504   0.57311   0.00000  Uiso   1.00
Cu660  Cu    0.10710   0.49439   0.74435   0.00000  Uiso   1.00
Cu661  Cu    0.22623   0.50561   0.75564   0.00000  Uiso   1.00
H662   H     0.09760   0.65354   0.74434   0.00000  Uiso   1.00
H663   H     0.19989   0.43607   0.88098   0.00000  Uiso   1.00
H664   H     0.23576   0.34645   0.75565   0.00000  Uiso   1.00
H665   H     0.05660   0.56578   0.67475   0.00000  Uiso   1.00
H666   H     0.11108   0.59403   0.61967   0.00000  Uiso   1.00
H667   H     0.06114   0.63204   0.65729   0.00000  Uiso   1.00
H668   H     0.02677   0.59409   0.57430   0.00000  Uiso   1.00
H669   H     0.30428   0.58330   0.63082   0.00000  Uiso   1.00
H670   H     0.33075   0.48854   0.63179   0.00000  Uiso   1.00
H671   H     0.04253   0.50173   0.57212   0.00000  Uiso   1.00
H672   H     0.00442   0.54091   0.78828   0.00000  Uiso   1.00
H673   H     0.32863   0.45841   0.71244   0.00000  Uiso   1.00
H674   H     0.27909   0.43277   0.92962   0.00000  Uiso   1.00
H675   H     0.32791   0.46309   0.50481   0.00000  Uiso   1.00
H676   H     0.13616   0.52052   0.58574   0.00000  Uiso   1.00
H677   H     0.04678   0.54531   0.89625   0.00000  Uiso   1.00
H678   H     0.11920   0.57434   0.53200   0.00000  Uiso   1.00
H679   H     0.04699   0.58817   0.97990   0.00000  Uiso   1.00
N680   N     0.31574   0.51407   0.76416   0.00000  Uiso   1.00
N681   N     0.01759   0.48593   0.73584   0.00000  Uiso   1.00
O682   O     0.12797   0.57141   0.74633   0.00000  Uiso   1.00
O683   O     0.22858   0.58089   0.75586   0.00000  Uiso   1.00
O684   O     0.09181   0.49293   0.81839   0.00000  Uiso   1.00
O685   O     0.19242   0.50241   0.82793   0.00000  Uiso   1.00
O686   O     0.10476   0.41911   0.74413   0.00000  Uiso   1.00
O687   O     0.20536   0.42859   0.75367   0.00000  Uiso   1.00
O688   O     0.14092   0.49759   0.67207   0.00000  Uiso   1.00
O689   O     0.24152   0.50707   0.68160   0.00000  Uiso   1.00
C690   C     0.51510   0.59999   0.75142   0.00000  Uiso   1.00
C691   C     0.45093   0.50267   0.90175   0.00000  Uiso   1.00
C692   C     0.52361   0.65600   0.75195   0.00000  Uiso   1.00
C693   C     0.46706   0.49611   0.84669   0.00000  Uiso   1.00
C694   C     0.47643   0.34399   0.74794   0.00000  Uiso   1.00
C695   C     0.48493   0.40000   0.74850   0.00000  Uiso   1.00
C696   C     0.53354   0.50387   0.65307   0.00000  Uiso   1.00
C697   C     0.61934   0.47611   0.52253   0.00000  Uiso   1.00
C698   C     0.55364   0.50356   0.59740   0.00000  Uiso   1.00
C699   C     0.40877   0.53490   0.92032   0.00000  Uiso   1.00
C700   C     0.40931   0.55996   0.96751   0.00000  Uiso   1.00
C701   C     0.48584   0.51299   0.98314   0.00000  Uiso   1.00
C702   C     0.44922   0.55072   0.99774   0.00000  Uiso   1.00
C703   C     0.33559   0.51177   0.59788   0.00000  Uiso   1.00
C704   C     0.34734   0.57205   0.60997   0.00000  Uiso   1.00
C705   C     0.39721   0.59163   0.64226   0.00000  Uiso   1.00
C706   C     0.48880   0.49008   0.93375   0.00000  Uiso   1.00
C707   C     0.52380   0.50104   0.51494   0.00000  Uiso   1.00
C708   C     0.57347   0.47669   0.99408   0.00000  Uiso   1.00
C709   C     0.57656   0.45418   0.94529   0.00000  Uiso   1.00
C710   C     0.53194   0.45758   0.91692   0.00000  Uiso   1.00
C711   C     0.51204   0.51021   0.56743   0.00000  Uiso   1.00
C712   C     0.61244   0.49504   0.57311   0.00000  Uiso   1.00
Cu713  Cu    0.44043   0.49439   0.74435   0.00000  Uiso   1.00
Cu714  Cu    0.55957   0.50561   0.75564   0.00000  Uiso   1.00
H715   H     0.43093   0.65354   0.74434   0.00000  Uiso   1.00
H716   H     0.53322   0.43607   0.88098   0.00000  Uiso   1.00
H717   H     0.56909   0.34645   0.75565   0.00000  Uiso   1.00
H718   H     0.38993   0.56578   0.67475   0.00000  Uiso   1.00
H719   H     0.44441   0.59403   0.61967   0.00000  Uiso   1.00
H720   H     0.39447   0.63204   0.65729   0.00000  Uiso   1.00
H721   H     0.36011   0.59409   0.57430   0.00000  Uiso   1.00
H722   H     0.63762   0.58330   0.63082   0.00000  Uiso   1.00
H723   H     0.66408   0.48854   0.63179   0.00000  Uiso   1.00
H724   H     0.37586   0.50173   0.57212   0.00000  Uiso   1.00
H725   H     0.33775   0.54091   0.78828   0.00000  Uiso   1.00
H726   H     0.66197   0.45841   0.71244   0.00000  Uiso   1.00
H727   H     0.61243   0.43277   0.92962   0.00000  Uiso   1.00
H728   H     0.66124   0.46309   0.50481   0.00000  Uiso   1.00
H729   H     0.46949   0.52052   0.58574   0.00000  Uiso   1.00
H730   H     0.38011   0.54531   0.89625   0.00000  Uiso   1.00
H731   H     0.45254   0.57434   0.53200   0.00000  Uiso   1.00
H732   H     0.38032   0.58817   0.97990   0.00000  Uiso   1.00
N733   N     0.64908   0.51407   0.76416   0.00000  Uiso   1.00
N734   N     0.35092   0.48593   0.73584   0.00000  Uiso   1.00
O735   O     0.46131   0.57141   0.74633   0.00000  Uiso   1.00
O736   O     0.56191   0.58089   0.75586   0.00000  Uiso   1.00
O737   O     0.42515   0.49293   0.81839   0.00000  Uiso   1.00
O738   O     0.52575   0.50241   0.82793   0.00000  Uiso   1.00
O739   O     0.43809   0.41911   0.74413   0.00000  Uiso   1.00
O740   O     0.53869   0.42859   0.75367   0.00000  Uiso   1.00
O741   O     0.47425   0.49759   0.67207   0.00000  Uiso   1.00
O742   O     0.57485   0.50707   0.68160   0.00000  Uiso   1.00
C743   C     0.84843   0.59999   0.75142   0.00000  Uiso   1.00
C744   C     0.78427   0.50267   0.90175   0.00000  Uiso   1.00
C745   C     0.85694   0.65600   0.75195   0.00000  Uiso   1.00
C746   C     0.80039   0.49611   0.84669   0.00000  Uiso   1.00
C747   C     0.80977   0.34399   0.74794   0.00000  Uiso   1.00
C748   C     0.81826   0.40000   0.74850   0.00000  Uiso   1.00
C749   C     0.86687   0.50387   0.65307   0.00000  Uiso   1.00
C750   C     0.95268   0.47611   0.52253   0.00000  Uiso   1.00
C751   C     0.88697   0.50356   0.59740   0.00000  Uiso   1.00
C752   C     0.74211   0.53490   0.92032   0.00000  Uiso   1.00
C753   C     0.74264   0.55996   0.96751   0.00000  Uiso   1.00
C754   C     0.81918   0.51299   0.98314   0.00000  Uiso   1.00
C755   C     0.78255   0.55072   0.99774   0.00000  Uiso   1.00
C756   C     0.66892   0.51177   0.59788   0.00000  Uiso   1.00
C757   C     0.68068   0.57205   0.60997   0.00000  Uiso   1.00
C758   C     0.73054   0.59163   0.64226   0.00000  Uiso   1.00
C759   C     0.82213   0.49008   0.93375   0.00000  Uiso   1.00
C760   C     0.85713   0.50104   0.51494   0.00000  Uiso   1.00
C761   C     0.90680   0.47669   0.99408   0.00000  Uiso   1.00
C762   C     0.90990   0.45418   0.94529   0.00000  Uiso   1.00
C763   C     0.86527   0.45758   0.91692   0.00000  Uiso   1.00
C764   C     0.84538   0.51021   0.56743   0.00000  Uiso   1.00
C765   C     0.94578   0.49504   0.57311   0.00000  Uiso   1.00
Cu766  Cu    0.77377   0.49439   0.74435   0.00000  Uiso   1.00
Cu767  Cu    0.89290   0.50561   0.75564   0.00000  Uiso   1.00
H768   H     0.76426   0.65354   0.74434   0.00000  Uiso   1.00
H769   H     0.86656   0.43607   0.88098   0.00000  Uiso   1.00
H770   H     0.90243   0.34645   0.75565   0.00000  Uiso   1.00
H771   H     0.72327   0.56578   0.67475   0.00000  Uiso   1.00
H772   H     0.77774   0.59403   0.61967   0.00000  Uiso   1.00
H773   H     0.72780   0.63204   0.65729   0.00000  Uiso   1.00
H774   H     0.69344   0.59409   0.57430   0.00000  Uiso   1.00
H775   H     0.97095   0.58330   0.63082   0.00000  Uiso   1.00
H776   H     0.99741   0.48854   0.63179   0.00000  Uiso   1.00
H777   H     0.70920   0.50173   0.57212   0.00000  Uiso   1.00
H778   H     0.67109   0.54091   0.78828   0.00000  Uiso   1.00
H779   H     0.99530   0.45841   0.71244   0.00000  Uiso   1.00
H780   H     0.94576   0.43277   0.92962   0.00000  Uiso   1.00
H781   H     0.99458   0.46309   0.50481   0.00000  Uiso   1.00
H782   H     0.80282   0.52052   0.58574   0.00000  Uiso   1.00
H783   H     0.71345   0.54531   0.89625   0.00000  Uiso   1.00
H784   H     0.78587   0.57434   0.53200   0.00000  Uiso   1.00
H785   H     0.71366   0.58817   0.97990   0.00000  Uiso   1.00
N786   N     0.98241   0.51407   0.76416   0.00000  Uiso   1.00
N787   N     0.68426   0.48593   0.73584   0.00000  Uiso   1.00
O788   O     0.79464   0.57141   0.74633   0.00000  Uiso   1.00
O789   O     0.89524   0.58089   0.75586   0.00000  Uiso   1.00
O790   O     0.75848   0.49293   0.81839   0.00000  Uiso   1.00
O791   O     0.85908   0.50241   0.82793   0.00000  Uiso   1.00
O792   O     0.77142   0.41911   0.74413   0.00000  Uiso   1.00
O793   O     0.87203   0.42859   0.75367   0.00000  Uiso   1.00
O794   O     0.80758   0.49759   0.67207   0.00000  Uiso   1.00
O795   O     0.90819   0.50707   0.68160   0.00000  Uiso   1.00
C796   C     0.18176   0.93333   0.75142   0.00000  Uiso   1.00
C797   C     0.11760   0.83600   0.90175   0.00000  Uiso   1.00
C798   C     0.19028   0.98933   0.75195   0.00000  Uiso   1.00
C799   C     0.13372   0.82944   0.84669   0.00000  Uiso   1.00
C800   C     0.14310   0.67733   0.74794   0.00000  Uiso   1.00
C801   C     0.15160   0.73333   0.74850   0.00000  Uiso   1.00
C802   C     0.20021   0.83720   0.65307   0.00000  Uiso   1.00
C803   C     0.28601   0.80944   0.52253   0.00000  Uiso   1.00
C804   C     0.22031   0.83690   0.59740   0.00000  Uiso   1.00
C805   C     0.07544   0.86823   0.92032   0.00000  Uiso   1.00
C806   C     0.07598   0.89329   0.96751   0.00000  Uiso   1.00
C807   C     0.15251   0.84633   0.98314   0.00000  Uiso   1.00
C808   C     0.11589   0.88406   0.99774   0.00000  Uiso   1.00
C809   C     0.00225   0.84510   0.59788   0.00000  Uiso   1.00
C810   C     0.01401   0.90538   0.60997   0.00000  Uiso   1.00
C811   C     0.06387   0.92496   0.64226   0.00000  Uiso   1.00
C812   C     0.15546   0.82341   0.93375   0.00000  Uiso   1.00
C813   C     0.19047   0.83437   0.51494   0.00000  Uiso   1.00
C814   C     0.24013   0.81003   0.99408   0.00000  Uiso   1.00
C815   C     0.24323   0.78752   0.94529   0.00000  Uiso   1.00
C816   C     0.19861   0.79091   0.91692   0.00000  Uiso   1.00
C817   C     0.17871   0.84354   0.56743   0.00000  Uiso   1.00
C818   C     0.27911   0.82837   0.57311   0.00000  Uiso   1.00
Cu819  Cu    0.10710   0.82772   0.74435   0.00000  Uiso   1.00
Cu820  Cu    0.22623   0.83895   0.75564   0.00000  Uiso   1.00
H821   H     0.09760   0.98687   0.74434   0.00000  Uiso   1.00
H822   H     0.19989   0.76941   0.88098   0.00000  Uiso   1.00
H823   H     0.23576   0.67979   0.75565   0.00000  Uiso   1.00
H824   H     0.05660   0.89912   0.67475   0.00000  Uiso   1.00
H825   H     0.11108   0.92737   0.61967   0.00000  Uiso   1.00
H826   H     0.06114   0.96537   0.65729   0.00000  Uiso   1.00
H827   H     0.02677   0.92743   0.57430   0.00000  Uiso   1.00
H828   H     0.30428   0.91664   0.63082   0.00000  Uiso   1.00
H829   H     0.33075   0.82187   0.63179   0.00000  Uiso   1.00
H830   H     0.04253   0.83506   0.57212   0.00000  Uiso   1.00
H831   H     0.00442   0.87425   0.78828   0.00000  Uiso   1.00
H832   H     0.32863   0.79175   0.71244   0.00000  Uiso   1.00
H833   H     0.27909   0.76611   0.92962   0.00000  Uiso   1.00
H834   H     0.32791   0.79642   0.50481   0.00000  Uiso   1.00
H835   H     0.13616   0.85385   0.58574   0.00000  Uiso   1.00
H836   H     0.04678   0.87864   0.89625   0.00000  Uiso   1.00
H837   H     0.11920   0.90767   0.53200   0.00000  Uiso   1.00
H838   H     0.04699   0.92151   0.97990   0.00000  Uiso   1.00
N839   N     0.31574   0.84741   0.76416   0.00000  Uiso   1.00
N840   N     0.01759   0.81926   0.73584   0.00000  Uiso   1.00
O841   O     0.12797   0.90474   0.74633   0.00000  Uiso   1.00
O842   O     0.22858   0.91422   0.75586   0.00000  Uiso   1.00
O843   O     0.09181   0.82627   0.81839   0.00000  Uiso   1.00
O844   O     0.19242   0.83575   0.82793   0.00000  Uiso   1.00
O845   O     0.10476   0.75245   0.74413   0.00000  Uiso   1.00
O846   O     0.20536   0.76193   0.75367   0.00000  Uiso   1.00
O847   O     0.14092   0.83092   0.67207   0.00000  Uiso   1.00
O848   O     0.24152   0.84040   0.68160   0.00000  Uiso   1.00
C849   C     0.51510   0.93333   0.75142   0.00000  Uiso   1.00
C850   C     0.45093   0.83600   0.90175   0.00000  Uiso   1.00
C851   C     0.52361   0.98933   0.75195   0.00000  Uiso   1.00
C852   C     0.46706   0.82944   0.84669   0.00000  Uiso   1.00
C853   C     0.47643   0.67733   0.74794   0.00000  Uiso   1.00
C854   C     0.48493   0.73333   0.74850   0.00000  Uiso   1.00
C855   C     0.53354   0.83720   0.65307   0.00000  Uiso   1.00
C856   C     0.61934   0.80944   0.52253   0.00000  Uiso   1.00
C857   C     0.55364   0.83690   0.59740   0.00000  Uiso   1.00
C858   C     0.40877   0.86823   0.92032   0.00000  Uiso   1.00
C859   C     0.40931   0.89329   0.96751   0.00000  Uiso   1.00
C860   C     0.48584   0.84633   0.98314   0.00000  Uiso   1.00
C861   C     0.44922   0.88406   0.99774   0.00000  Uiso   1.00
C862   C     0.33559   0.84510   0.59788   0.00000  Uiso   1.00
C863   C     0.34734   0.90538   0.60997   0.00000  Uiso   1.00
C864   C     0.39721   0.92496   0.64226   0.00000  Uiso   1.00
C865   C     0.48880   0.82341   0.93375   0.00000  Uiso   1.00
C866   C     0.52380   0.83437   0.51494   0.00000  Uiso   1.00
C867   C     0.57347   0.81003   0.99408   0.00000  Uiso   1.00
C868   C     0.57656   0.78752   0.94529   0.00000  Uiso   1.00
C869   C     0.53194   0.79091   0.91692   0.00000  Uiso   1.00
C870   C     0.51204   0.84354   0.56743   0.00000  Uiso   1.00
C871   C     0.61244   0.82837   0.57311   0.00000  Uiso   1.00
Cu872  Cu    0.44043   0.82772   0.74435   0.00000  Uiso   1.00
Cu873  Cu    0.55957   0.83895   0.75564   0.00000  Uiso   1.00
H874   H     0.43093   0.98687   0.74434   0.00000  Uiso   1.00
H875   H     0.53322   0.76941   0.88098   0.00000  Uiso   1.00
H876   H     0.56909   0.67979   0.75565   0.00000  Uiso   1.00
H877   H     0.38993   0.89912   0.67475   0.00000  Uiso   1.00
H878   H     0.44441   0.92737   0.61967   0.00000  Uiso   1.00
H879   H     0.39447   0.96537   0.65729   0.00000  Uiso   1.00
H880   H     0.36011   0.92743   0.57430   0.00000  Uiso   1.00
H881   H     0.63762   0.91664   0.63082   0.00000  Uiso   1.00
H882   H     0.66408   0.82187   0.63179   0.00000  Uiso   1.00
H883   H     0.37586   0.83506   0.57212   0.00000  Uiso   1.00
H884   H     0.33775   0.87425   0.78828   0.00000  Uiso   1.00
H885   H     0.66197   0.79175   0.71244   0.00000  Uiso   1.00
H886   H     0.61243   0.76611   0.92962   0.00000  Uiso   1.00
H887   H     0.66124   0.79642   0.50481   0.00000  Uiso   1.00
H888   H     0.46949   0.85385   0.58574   0.00000  Uiso   1.00
H889   H     0.38011   0.87864   0.89625   0.00000  Uiso   1.00
H890   H     0.45254   0.90767   0.53200   0.00000  Uiso   1.00
H891   H     0.38032   0.92151   0.97990   0.00000  Uiso   1.00
N892   N     0.64908   0.84741   0.76416   0.00000  Uiso   1.00
N893   N     0.35092   0.81926   0.73584   0.00000  Uiso   1.00
O894   O     0.46131   0.90474   0.74633   0.00000  Uiso   1.00
O895   O     0.56191   0.91422   0.75586   0.00000  Uiso   1.00
O896   O     0.42515   0.82627   0.81839   0.00000  Uiso   1.00
O897   O     0.52575   0.83575   0.82793   0.00000  Uiso   1.00
O898   O     0.43809   0.75245   0.74413   0.00000  Uiso   1.00
O899   O     0.53869   0.76193   0.75367   0.00000  Uiso   1.00
O900   O     0.47425   0.83092   0.67207   0.00000  Uiso   1.00
O901   O     0.57485   0.84040   0.68160   0.00000  Uiso   1.00
C902   C     0.84843   0.93333   0.75142   0.00000  Uiso   1.00
C903   C     0.78427   0.83600   0.90175   0.00000  Uiso   1.00
C904   C     0.85694   0.98933   0.75195   0.00000  Uiso   1.00
C905   C     0.80039   0.82944   0.84669   0.00000  Uiso   1.00
C906   C     0.80977   0.67733   0.74794   0.00000  Uiso   1.00
C907   C     0.81826   0.73333   0.74850   0.00000  Uiso   1.00
C908   C     0.86687   0.83720   0.65307   0.00000  Uiso   1.00
C909   C     0.95268   0.80944   0.52253   0.00000  Uiso   1.00
C910   C     0.88697   0.83690   0.59740   0.00000  Uiso   1.00
C911   C     0.74211   0.86823   0.92032   0.00000  Uiso   1.00
C912   C     0.74264   0.89329   0.96751   0.00000  Uiso   1.00
C913   C     0.81918   0.84633   0.98314   0.00000  Uiso   1.00
C914   C     0.78255   0.88406   0.99774   0.00000  Uiso   1.00
C915   C     0.66892   0.84510   0.59788   0.00000  Uiso   1.00
C916   C     0.68068   0.90538   0.60997   0.00000  Uiso   1.00
C917   C     0.73054   0.92496   0.64226   0.00000  Uiso   1.00
C918   C     0.82213   0.82341   0.93375   0.00000  Uiso   1.00
C919   C     0.85713   0.83437   0.51494   0.00000  Uiso   1.00
C920   C     0.90680   0.81003   0.99408   0.00000  Uiso   1.00
C921   C     0.90990   0.78752   0.94529   0.00000  Uiso   1.00
C922   C     0.86527   0.79091   0.91692   0.00000  Uiso   1.00
C923   C     0.84538   0.84354   0.56743   0.00000  Uiso   1.00
C924   C     0.94578   0.82837   0.57311   0.00000  Uiso   1.00
Cu925  Cu    0.77377   0.82772   0.74435   0.00000  Uiso   1.00
Cu926  Cu    0.89290   0.83895   0.75564   0.00000  Uiso   1.00
H927   H     0.76426   0.98687   0.74434   0.00000  Uiso   1.00
H928   H     0.86656   0.76941   0.88098   0.00000  Uiso   1.00
H929   H     0.90243   0.67979   0.75565   0.00000  Uiso   1.00
H930   H     0.72327   0.89912   0.67475   0.00000  Uiso   1.00
H931   H     0.77774   0.92737   0.61967   0.00000  Uiso   1.00
H932   H     0.72780   0.96537   0.65729   0.00000  Uiso   1.00
H933   H     0.69344   0.92743   0.57430   0.00000  Uiso   1.00
H934   H     0.97095   0.91664   0.63082   0.00000  Uiso   1.00
H935   H     0.99741   0.82187   0.63179   0.00000  Uiso   1.00
H936   H     0.70920   0.83506   0.57212   0.00000  Uiso   1.00
H937   H     0.67109   0.87425   0.78828   0.00000  Uiso   1.00
H938   H     0.99530   0.79175   0.71244   0.00000  Uiso   1.00
H939   H     0.94576   0.76611   0.92962   0.00000  Uiso   1.00
H940   H     0.99458   0.79642   0.50481   0.00000  Uiso   1.00
H941   H     0.80282   0.85385   0.58574   0.00000  Uiso   1.00
H942   H     0.71345   0.87864   0.89625   0.00000  Uiso   1.00
H943   H     0.78587   0.90767   0.53200   0.00000  Uiso   1.00
H944   H     0.71366   0.92151   0.97990   0.00000  Uiso   1.00
N945   N     0.98241   0.84741   0.76416   0.00000  Uiso   1.00
N946   N     0.68426   0.81926   0.73584   0.00000  Uiso   1.00
O947   O     0.79464   0.90474   0.74633   0.00000  Uiso   1.00
O948   O     0.89524   0.91422   0.75586   0.00000  Uiso   1.00
O949   O     0.75848   0.82627   0.81839   0.00000  Uiso   1.00
O950   O     0.85908   0.83575   0.82793   0.00000  Uiso   1.00
O951   O     0.77142   0.75245   0.74413   0.00000  Uiso   1.00
O952   O     0.87203   0.76193   0.75367   0.00000  Uiso   1.00
O953   O     0.80758   0.83092   0.67207   0.00000  Uiso   1.00
O954   O     0.90819   0.84040   0.68160   0.00000  Uiso   1.00
loop_
_geom_bond_atom_site_label_1
_geom_bond_atom_site_label_2
_geom_bond_distance
_geom_bond_site_symmetry_2
_ccdc_geom_bond_type
C1     O47     1.289   .     A
C1     O46     1.295   .     A
C1     C3      1.426   .     S
C2     C4      1.462   .     S
C2     C17     1.423   .     A
C2     C10     1.402   .     A
C3     C164    1.328   .     S
C3     H187    1.088   .     S
C4     O49     1.294   .     A
C4     O48     1.308   .     A
C5     C6      1.427   .     S
C5     C321    1.328   1_545 S
C5     H344    1.087   1_545 S
C6     O51     1.295   .     A
C6     O50     1.289   .     A
C7     O52     1.308   .     A
C7     O53     1.301   .     A
C7     C9      1.478   .     S
C8     H39     1.084   .     S
C8     C23     1.406   .     A
C8     C496    1.402   1_554 S
C9     C22     1.393   .     A
C9     C23     1.413   .     A
C10    H41     1.084   .     S
C10    C11     1.387   .     A
C11    H43     1.082   .     S
C11    C13     1.390   .     A
C12    C17     1.414   .     A
C12    C13     1.407   .     A
C12    C495    1.414   .     S
C13    H519    1.077   .     S
C14    H35     1.097   .     S
C14    C15     1.553   .     S
C14    C129    1.511   1_455 S
C14    H140    1.105   1_455 S
C15    H32     1.109   .     S
C15    C16     1.526   .     S
C15    H139    1.109   1_455 S
C16    H29     1.106   .     S
C16    H30     1.106   .     S
C16    H31     1.111   .     S
C17    C21     1.416   .     A
C18    C22     1.399   .     A
C18    C489    1.414   1_554 S
C18    C496    1.409   1_554 S
C19    C20     1.395   .     A
C19    C485    1.402   .     S
C19    C495    1.409   .     S
C20    H38     1.084   .     S
C20    C21     1.394   .     A
C21    H27     1.081   .     S
C22    H40     1.069   .     S
C23    C67     1.511   .     S
Cu24   Cu25    2.701   .     S
Cu24   O46     1.953   .     S
Cu24   N45     2.029   .     S
Cu24   O52     1.946   .     S
Cu24   O50     1.948   .     S
Cu24   O48     1.957   .     S
Cu25   O51     1.953   .     S
Cu25   O47     1.948   .     S
Cu25   N44     2.029   .     S
Cu25   O53     1.957   .     S
Cu25   O49     1.946   .     S
H26    C164    1.087   .     S
H28    C321    1.088   1_545 S
H33    C68     1.109   .     S
H34    C67     1.105   .     S
H36    N150    1.029   1_455 S
H37    N98     1.028   .     S
H42    C490    1.077   1_554 S
N44    H89     1.029   .     S
N44    N98     1.300   .     S
N45    N150    1.300   1_455 S
N45    H143    1.028   1_455 S
C54    O100    1.289   .     A
C54    O99     1.295   .     A
C54    C56     1.426   .     S
C55    C57     1.462   .     S
C55    C70     1.423   .     A
C55    C63     1.402   .     A
C56    C217    1.328   .     S
C56    H240    1.088   .     S
C57    O102    1.294   .     A
C57    O101    1.308   .     A
C58    C59     1.427   .     S
C58    C374    1.328   1_545 S
C58    H397    1.087   1_545 S
C59    O104    1.295   .     A
C59    O103    1.289   .     A
C60    O105    1.308   .     A
C60    O106    1.301   .     A
C60    C62     1.478   .     S
C61    H92     1.084   .     S
C61    C76     1.406   .     A
C61    C549    1.402   1_554 S
C62    C75     1.393   .     A
C62    C76     1.413   .     A
C63    H94     1.084   .     S
C63    C64     1.387   .     A
C64    H96     1.082   .     S
C64    C66     1.390   .     A
C65    C70     1.414   .     A
C65    C66     1.407   .     A
C65    C548    1.414   .     S
C66    H572    1.077   .     S
C67    H88     1.097   .     S
C67    C68     1.553   .     S
C68    H85     1.109   .     S
C68    C69     1.526   .     S
C69    H82     1.106   .     S
C69    H83     1.106   .     S
C69    H84     1.111   .     S
C70    C74     1.416   .     A
C71    C75     1.399   .     A
C71    C542    1.414   1_554 S
C71    C549    1.409   1_554 S
C72    C73     1.395   .     A
C72    C538    1.402   .     S
C72    C548    1.409   .     S
C73    H91     1.084   .     S
C73    C74     1.394   .     A
C74    H80     1.081   .     S
C75    H93     1.069   .     S
C76    C120    1.511   .     S
Cu77   Cu78    2.701   .     S
Cu77   O99     1.953   .     S
Cu77   N98     2.029   .     S
Cu77   O105    1.946   .     S
Cu77   O103    1.948   .     S
Cu77   O101    1.957   .     S
Cu78   O104    1.953   .     S
Cu78   O100    1.948   .     S
Cu78   N97     2.029   .     S
Cu78   O106    1.957   .     S
Cu78   O102    1.946   .     S
H79    C217    1.087   .     S
H81    C374    1.088   1_545 S
H86    C121    1.109   .     S
H87    C120    1.105   .     S
H90    N151    1.028   .     S
H95    C543    1.077   1_554 S
N97    H142    1.029   .     S
N97    N151    1.300   .     S
C107   O153    1.289   .     A
C107   O152    1.295   .     A
C107   C109    1.426   .     S
C108   C110    1.462   .     S
C108   C123    1.423   .     A
C108   C116    1.402   .     A
C109   C270    1.328   .     S
C109   H293    1.088   .     S
C110   O155    1.294   .     A
C110   O154    1.308   .     A
C111   C112    1.427   .     S
C111   C427    1.328   1_545 S
C111   H450    1.087   1_545 S
C112   O157    1.295   .     A
C112   O156    1.289   .     A
C113   O158    1.308   .     A
C113   O159    1.301   .     A
C113   C115    1.478   .     S
C114   H145    1.084   .     S
C114   C129    1.406   .     A
C114   C602    1.402   1_554 S
C115   C128    1.393   .     A
C115   C129    1.413   .     A
C116   H147    1.084   .     S
C116   C117    1.387   .     A
C117   H149    1.082   .     S
C117   C119    1.390   .     A
C118   C123    1.414   .     A
C118   C119    1.407   .     A
C118   C601    1.414   .     S
C119   H625    1.077   .     S
C120   H141    1.097   .     S
C120   C121    1.553   .     S
C121   H138    1.109   .     S
C121   C122    1.526   .     S
C122   H135    1.106   .     S
C122   H136    1.106   .     S
C122   H137    1.111   .     S
C123   C127    1.416   .     A
C124   C128    1.399   .     A
C124   C595    1.414   1_554 S
C124   C602    1.409   1_554 S
C125   C126    1.395   .     A
C125   C591    1.402   .     S
C125   C601    1.409   .     S
C126   H144    1.084   .     S
C126   C127    1.394   .     A
C127   H133    1.081   .     S
C128   H146    1.069   .     S
C129   C14     1.511   1_655 S
Cu130  Cu131   2.701   .     S
Cu130  O152    1.953   .     S
Cu130  N151    2.029   .     S
Cu130  O158    1.946   .     S
Cu130  O156    1.948   .     S
Cu130  O154    1.957   .     S
Cu131  O157    1.953   .     S
Cu131  O153    1.948   .     S
Cu131  N150    2.029   .     S
Cu131  O159    1.957   .     S
Cu131  O155    1.946   .     S
H132   C270    1.087   .     S
H134   C427    1.088   1_545 S
H139   C15     1.109   1_655 S
H140   C14     1.105   1_655 S
H143   N45     1.028   1_655 S
H148   C596    1.077   1_554 S
N150   H36     1.029   1_655 S
N150   N45     1.300   1_655 S
C160   O206    1.289   .     A
C160   O205    1.295   .     A
C160   C162    1.426   .     S
C161   C163    1.462   .     S
C161   C176    1.423   .     A
C161   C169    1.402   .     A
C162   C323    1.328   .     S
C162   H346    1.088   .     S
C163   O208    1.294   .     A
C163   O207    1.308   .     A
C164   C165    1.427   .     S
C165   O210    1.295   .     A
C165   O209    1.289   .     A
C166   O211    1.308   .     A
C166   O212    1.301   .     A
C166   C168    1.478   .     S
C167   H198    1.084   .     S
C167   C182    1.406   .     A
C167   C655    1.402   1_554 S
C168   C181    1.393   .     A
C168   C182    1.413   .     A
C169   H200    1.084   .     S
C169   C170    1.387   .     A
C170   H202    1.082   .     S
C170   C172    1.390   .     A
C171   C176    1.414   .     A
C171   C172    1.407   .     A
C171   C654    1.414   .     S
C172   H678    1.077   .     S
C173   H194    1.097   .     S
C173   C174    1.553   .     S
C173   C288    1.511   1_455 S
C173   H299    1.105   1_455 S
C174   H191    1.109   .     S
C174   C175    1.526   .     S
C174   H298    1.109   1_455 S
C175   H188    1.106   .     S
C175   H189    1.106   .     S
C175   H190    1.111   .     S
C176   C180    1.416   .     A
C177   C181    1.399   .     A
C177   C648    1.414   1_554 S
C177   C655    1.409   1_554 S
C178   C179    1.395   .     A
C178   C644    1.402   .     S
C178   C654    1.409   .     S
C179   H197    1.084   .     S
C179   C180    1.394   .     A
C180   H186    1.081   .     S
C181   H199    1.069   .     S
C182   C226    1.511   .     S
Cu183  Cu184   2.701   .     S
Cu183  O205    1.953   .     S
Cu183  N204    2.029   .     S
Cu183  O211    1.946   .     S
Cu183  O209    1.948   .     S
Cu183  O207    1.957   .     S
Cu184  O210    1.953   .     S
Cu184  O206    1.948   .     S
Cu184  N203    2.029   .     S
Cu184  O212    1.957   .     S
Cu184  O208    1.946   .     S
H185   C323    1.087   .     S
H192   C227    1.109   .     S
H193   C226    1.105   .     S
H195   N309    1.029   1_455 S
H196   N257    1.028   .     S
H201   C649    1.077   1_554 S
N203   H248    1.029   .     S
N203   N257    1.300   .     S
N204   N309    1.300   1_455 S
N204   H302    1.028   1_455 S
C213   O259    1.289   .     A
C213   O258    1.295   .     A
C213   C215    1.426   .     S
C214   C216    1.462   .     S
C214   C229    1.423   .     A
C214   C222    1.402   .     A
C215   C376    1.328   .     S
C215   H399    1.088   .     S
C216   O261    1.294   .     A
C216   O260    1.308   .     A
C217   C218    1.427   .     S
C218   O263    1.295   .     A
C218   O262    1.289   .     A
C219   O264    1.308   .     A
C219   O265    1.301   .     A
C219   C221    1.478   .     S
C220   H251    1.084   .     S
C220   C235    1.406   .     A
C220   C708    1.402   1_554 S
C221   C234    1.393   .     A
C221   C235    1.413   .     A
C222   H253    1.084   .     S
C222   C223    1.387   .     A
C223   H255    1.082   .     S
C223   C225    1.390   .     A
C224   C229    1.414   .     A
C224   C225    1.407   .     A
C224   C707    1.414   .     S
C225   H731    1.077   .     S
C226   H247    1.097   .     S
C226   C227    1.553   .     S
C227   H244    1.109   .     S
C227   C228    1.526   .     S
C228   H241    1.106   .     S
C228   H242    1.106   .     S
C228   H243    1.111   .     S
C229   C233    1.416   .     A
C230   C234    1.399   .     A
C230   C701    1.414   1_554 S
C230   C708    1.409   1_554 S
C231   C232    1.395   .     A
C231   C697    1.402   .     S
C231   C707    1.409   .     S
C232   H250    1.084   .     S
C232   C233    1.394   .     A
C233   H239    1.081   .     S
C234   H252    1.069   .     S
C235   C279    1.511   .     S
Cu236  Cu237   2.701   .     S
Cu236  O258    1.953   .     S
Cu236  N257    2.029   .     S
Cu236  O264    1.946   .     S
Cu236  O262    1.948   .     S
Cu236  O260    1.957   .     S
Cu237  O263    1.953   .     S
Cu237  O259    1.948   .     S
Cu237  N256    2.029   .     S
Cu237  O265    1.957   .     S
Cu237  O261    1.946   .     S
H238   C376    1.087   .     S
H245   C280    1.109   .     S
H246   C279    1.105   .     S
H249   N310    1.028   .     S
H254   C702    1.077   1_554 S
N256   H301    1.029   .     S
N256   N310    1.300   .     S
C266   O312    1.289   .     A
C266   O311    1.295   .     A
C266   C268    1.426   .     S
C267   C269    1.462   .     S
C267   C282    1.423   .     A
C267   C275    1.402   .     A
C268   C429    1.328   .     S
C268   H452    1.088   .     S
C269   O314    1.294   .     A
C269   O313    1.308   .     A
C270   C271    1.427   .     S
C271   O316    1.295   .     A
C271   O315    1.289   .     A
C272   O317    1.308   .     A
C272   O318    1.301   .     A
C272   C274    1.478   .     S
C273   H304    1.084   .     S
C273   C288    1.406   .     A
C273   C761    1.402   1_554 S
C274   C287    1.393   .     A
C274   C288    1.413   .     A
C275   H306    1.084   .     S
C275   C276    1.387   .     A
C276   H308    1.082   .     S
C276   C278    1.390   .     A
C277   C282    1.414   .     A
C277   C278    1.407   .     A
C277   C760    1.414   .     S
C278   H784    1.077   .     S
C279   H300    1.097   .     S
C279   C280    1.553   .     S
C280   H297    1.109   .     S
C280   C281    1.526   .     S
C281   H294    1.106   .     S
C281   H295    1.106   .     S
C281   H296    1.111   .     S
C282   C286    1.416   .     A
C283   C287    1.399   .     A
C283   C754    1.414   1_554 S
C283   C761    1.409   1_554 S
C284   C285    1.395   .     A
C284   C750    1.402   .     S
C284   C760    1.409   .     S
C285   H303    1.084   .     S
C285   C286    1.394   .     A
C286   H292    1.081   .     S
C287   H305    1.069   .     S
C288   C173    1.511   1_655 S
Cu289  Cu290   2.701   .     S
Cu289  O311    1.953   .     S
Cu289  N310    2.029   .     S
Cu289  O317    1.946   .     S
Cu289  O315    1.948   .     S
Cu289  O313    1.957   .     S
Cu290  O316    1.953   .     S
Cu290  O312    1.948   .     S
Cu290  N309    2.029   .     S
Cu290  O318    1.957   .     S
Cu290  O314    1.946   .     S
H291   C429    1.087   .     S
H298   C174    1.109   1_655 S
H299   C173    1.105   1_655 S
H302   N204    1.028   1_655 S
H307   C755    1.077   1_554 S
N309   H195    1.029   1_655 S
N309   N204    1.300   1_655 S
C319   O365    1.289   .     A
C319   O364    1.295   .     A
C319   C321    1.426   .     S
C320   C322    1.462   .     S
C320   C335    1.423   .     A
C320   C328    1.402   .     A
C321   C5      1.328   1_565 S
C321   H28     1.088   1_565 S
C322   O367    1.294   .     A
C322   O366    1.308   .     A
C323   C324    1.427   .     S
C324   O369    1.295   .     A
C324   O368    1.289   .     A
C325   O370    1.308   .     A
C325   O371    1.301   .     A
C325   C327    1.478   .     S
C326   H357    1.084   .     S
C326   C341    1.406   .     A
C326   C814    1.402   1_554 S
C327   C340    1.393   .     A
C327   C341    1.413   .     A
C328   H359    1.084   .     S
C328   C329    1.387   .     A
C329   H361    1.082   .     S
C329   C331    1.390   .     A
C330   C335    1.414   .     A
C330   C331    1.407   .     A
C330   C813    1.414   .     S
C331   H837    1.077   .     S
C332   H353    1.097   .     S
C332   C333    1.553   .     S
C332   C447    1.511   1_455 S
C332   H458    1.105   1_455 S
C333   H350    1.109   .     S
C333   C334    1.526   .     S
C333   H457    1.109   1_455 S
C334   H347    1.106   .     S
C334   H348    1.106   .     S
C334   H349    1.111   .     S
C335   C339    1.416   .     A
C336   C340    1.399   .     A
C336   C807    1.414   1_554 S
C336   C814    1.409   1_554 S
C337   C338    1.395   .     A
C337   C803    1.402   .     S
C337   C813    1.409   .     S
C338   H356    1.084   .     S
C338   C339    1.394   .     A
C339   H345    1.081   .     S
C340   H358    1.069   .     S
C341   C385    1.511   .     S
Cu342  Cu343   2.701   .     S
Cu342  O364    1.953   .     S
Cu342  N363    2.029   .     S
Cu342  O370    1.946   .     S
Cu342  O368    1.948   .     S
Cu342  O366    1.957   .     S
Cu343  O369    1.953   .     S
Cu343  O365    1.948   .     S
Cu343  N362    2.029   .     S
Cu343  O371    1.957   .     S
Cu343  O367    1.946   .     S
H344   C5      1.087   1_565 S
H351   C386    1.109   .     S
H352   C385    1.105   .     S
H354   N468    1.029   1_455 S
H355   N416    1.028   .     S
H360   C808    1.077   1_554 S
N362   H407    1.029   .     S
N362   N416    1.300   .     S
N363   N468    1.300   1_455 S
N363   H461    1.028   1_455 S
C372   O418    1.289   .     A
C372   O417    1.295   .     A
C372   C374    1.426   .     S
C373   C375    1.462   .     S
C373   C388    1.423   .     A
C373   C381    1.402   .     A
C374   C58     1.328   1_565 S
C374   H81     1.088   1_565 S
C375   O420    1.294   .     A
C375   O419    1.308   .     A
C376   C377    1.427   .     S
C377   O422    1.295   .     A
C377   O421    1.289   .     A
C378   O423    1.308   .     A
C378   O424    1.301   .     A
C378   C380    1.478   .     S
C379   H410    1.084   .     S
C379   C394    1.406   .     A
C379   C867    1.402   1_554 S
C380   C393    1.393   .     A
C380   C394    1.413   .     A
C381   H412    1.084   .     S
C381   C382    1.387   .     A
C382   H414    1.082   .     S
C382   C384    1.390   .     A
C383   C388    1.414   .     A
C383   C384    1.407   .     A
C383   C866    1.414   .     S
C384   H890    1.077   .     S
C385   H406    1.097   .     S
C385   C386    1.553   .     S
C386   H403    1.109   .     S
C386   C387    1.526   .     S
C387   H400    1.106   .     S
C387   H401    1.106   .     S
C387   H402    1.111   .     S
C388   C392    1.416   .     A
C389   C393    1.399   .     A
C389   C860    1.414   1_554 S
C389   C867    1.409   1_554 S
C390   C391    1.395   .     A
C390   C856    1.402   .     S
C390   C866    1.409   .     S
C391   H409    1.084   .     S
C391   C392    1.394   .     A
C392   H398    1.081   .     S
C393   H411    1.069   .     S
C394   C438    1.511   .     S
Cu395  Cu396   2.701   .     S
Cu395  O417    1.953   .     S
Cu395  N416    2.029   .     S
Cu395  O423    1.946   .     S
Cu395  O421    1.948   .     S
Cu395  O419    1.957   .     S
Cu396  O422    1.953   .     S
Cu396  O418    1.948   .     S
Cu396  N415    2.029   .     S
Cu396  O424    1.957   .     S
Cu396  O420    1.946   .     S
H397   C58     1.087   1_565 S
H404   C439    1.109   .     S
H405   C438    1.105   .     S
H408   N469    1.028   .     S
H413   C861    1.077   1_554 S
N415   H460    1.029   .     S
N415   N469    1.300   .     S
C425   O471    1.289   .     A
C425   O470    1.295   .     A
C425   C427    1.426   .     S
C426   C428    1.462   .     S
C426   C441    1.423   .     A
C426   C434    1.402   .     A
C427   C111    1.328   1_565 S
C427   H134    1.088   1_565 S
C428   O473    1.294   .     A
C428   O472    1.308   .     A
C429   C430    1.427   .     S
C430   O475    1.295   .     A
C430   O474    1.289   .     A
C431   O476    1.308   .     A
C431   O477    1.301   .     A
C431   C433    1.478   .     S
C432   H463    1.084   .     S
C432   C447    1.406   .     A
C432   C920    1.402   1_554 S
C433   C446    1.393   .     A
C433   C447    1.413   .     A
C434   H465    1.084   .     S
C434   C435    1.387   .     A
C435   H467    1.082   .     S
C435   C437    1.390   .     A
C436   C441    1.414   .     A
C436   C437    1.407   .     A
C436   C919    1.414   .     S
C437   H943    1.077   .     S
C438   H459    1.097   .     S
C438   C439    1.553   .     S
C439   H456    1.109   .     S
C439   C440    1.526   .     S
C440   H453    1.106   .     S
C440   H454    1.106   .     S
C440   H455    1.111   .     S
C441   C445    1.416   .     A
C442   C446    1.399   .     A
C442   C913    1.414   1_554 S
C442   C920    1.409   1_554 S
C443   C444    1.395   .     A
C443   C909    1.402   .     S
C443   C919    1.409   .     S
C444   H462    1.084   .     S
C444   C445    1.394   .     A
C445   H451    1.081   .     S
C446   H464    1.069   .     S
C447   C332    1.511   1_655 S
Cu448  Cu449   2.701   .     S
Cu448  O470    1.953   .     S
Cu448  N469    2.029   .     S
Cu448  O476    1.946   .     S
Cu448  O474    1.948   .     S
Cu448  O472    1.957   .     S
Cu449  O475    1.953   .     S
Cu449  O471    1.948   .     S
Cu449  N468    2.029   .     S
Cu449  O477    1.957   .     S
Cu449  O473    1.946   .     S
H450   C111    1.087   1_565 S
H457   C333    1.109   1_655 S
H458   C332    1.105   1_655 S
H461   N363    1.028   1_655 S
H466   C914    1.077   1_554 S
N468   H354    1.029   1_655 S
N468   N363    1.300   1_655 S
C478   O524    1.289   .     A
C478   O523    1.295   .     A
C478   C480    1.426   .     S
C479   C481    1.462   .     S
C479   C494    1.423   .     A
C479   C487    1.402   .     A
C480   C641    1.328   .     S
C480   H664    1.088   .     S
C481   O526    1.294   .     A
C481   O525    1.308   .     A
C482   C483    1.427   .     S
C482   C798    1.328   1_545 S
C482   H821    1.087   1_545 S
C483   O528    1.295   .     A
C483   O527    1.289   .     A
C484   O529    1.308   .     A
C484   O530    1.301   .     A
C484   C486    1.478   .     S
C485   H516    1.084   .     S
C485   C500    1.406   .     A
C486   C499    1.393   .     A
C486   C500    1.413   .     A
C487   H518    1.084   .     S
C487   C488    1.387   .     A
C488   H520    1.082   .     S
C488   C490    1.390   .     A
C489   C494    1.414   .     A
C489   C490    1.407   .     A
C489   C18     1.414   1_556 S
C490   H42     1.077   1_556 S
C491   H512    1.097   .     S
C491   C492    1.553   .     S
C491   C606    1.511   1_455 S
C491   H617    1.105   1_455 S
C492   H509    1.109   .     S
C492   C493    1.526   .     S
C492   H616    1.109   1_455 S
C493   H506    1.106   .     S
C493   H507    1.106   .     S
C493   H508    1.111   .     S
C494   C498    1.416   .     A
C495   C499    1.399   .     A
C496   C497    1.395   .     A
C496   C8      1.402   1_556 S
C496   C18     1.409   1_556 S
C497   H515    1.084   .     S
C497   C498    1.394   .     A
C498   H504    1.081   .     S
C499   H517    1.069   .     S
C500   C544    1.511   .     S
Cu501  Cu502   2.701   .     S
Cu501  O523    1.953   .     S
Cu501  N522    2.029   .     S
Cu501  O529    1.946   .     S
Cu501  O527    1.948   .     S
Cu501  O525    1.957   .     S
Cu502  O528    1.953   .     S
Cu502  O524    1.948   .     S
Cu502  N521    2.029   .     S
Cu502  O530    1.957   .     S
Cu502  O526    1.946   .     S
H503   C641    1.087   .     S
H505   C798    1.088   1_545 S
H510   C545    1.109   .     S
H511   C544    1.105   .     S
H513   N627    1.029   1_455 S
H514   N575    1.028   .     S
N521   H566    1.029   .     S
N521   N575    1.300   .     S
N522   N627    1.300   1_455 S
N522   H620    1.028   1_455 S
C531   O577    1.289   .     A
C531   O576    1.295   .     A
C531   C533    1.426   .     S
C532   C534    1.462   .     S
C532   C547    1.423   .     A
C532   C540    1.402   .     A
C533   C694    1.328   .     S
C533   H717    1.088   .     S
C534   O579    1.294   .     A
C534   O578    1.308   .     A
C535   C536    1.427   .     S
C535   C851    1.328   1_545 S
C535   H874    1.087   1_545 S
C536   O581    1.295   .     A
C536   O580    1.289   .     A
C537   O582    1.308   .     A
C537   O583    1.301   .     A
C537   C539    1.478   .     S
C538   H569    1.084   .     S
C538   C553    1.406   .     A
C539   C552    1.393   .     A
C539   C553    1.413   .     A
C540   H571    1.084   .     S
C540   C541    1.387   .     A
C541   H573    1.082   .     S
C541   C543    1.390   .     A
C542   C547    1.414   .     A
C542   C543    1.407   .     A
C542   C71     1.414   1_556 S
C543   H95     1.077   1_556 S
C544   H565    1.097   .     S
C544   C545    1.553   .     S
C545   H562    1.109   .     S
C545   C546    1.526   .     S
C546   H559    1.106   .     S
C546   H560    1.106   .     S
C546   H561    1.111   .     S
C547   C551    1.416   .     A
C548   C552    1.399   .     A
C549   C550    1.395   .     A
C549   C61     1.402   1_556 S
C549   C71     1.409   1_556 S
C550   H568    1.084   .     S
C550   C551    1.394   .     A
C551   H557    1.081   .     S
C552   H570    1.069   .     S
C553   C597    1.511   .     S
Cu554  Cu555   2.701   .     S
Cu554  O576    1.953   .     S
Cu554  N575    2.029   .     S
Cu554  O582    1.946   .     S
Cu554  O580    1.948   .     S
Cu554  O578    1.957   .     S
Cu555  O581    1.953   .     S
Cu555  O577    1.948   .     S
Cu555  N574    2.029   .     S
Cu555  O583    1.957   .     S
Cu555  O579    1.946   .     S
H556   C694    1.087   .     S
H558   C851    1.088   1_545 S
H563   C598    1.109   .     S
H564   C597    1.105   .     S
H567   N628    1.028   .     S
N574   H619    1.029   .     S
N574   N628    1.300   .     S
C584   O630    1.289   .     A
C584   O629    1.295   .     A
C584   C586    1.426   .     S
C585   C587    1.462   .     S
C585   C600    1.423   .     A
C585   C593    1.402   .     A
C586   C747    1.328   .     S
C586   H770    1.088   .     S
C587   O632    1.294   .     A
C587   O631    1.308   .     A
C588   C589    1.427   .     S
C588   C904    1.328   1_545 S
C588   H927    1.087   1_545 S
C589   O634    1.295   .     A
C589   O633    1.289   .     A
C590   O635    1.308   .     A
C590   O636    1.301   .     A
C590   C592    1.478   .     S
C591   H622    1.084   .     S
C591   C606    1.406   .     A
C592   C605    1.393   .     A
C592   C606    1.413   .     A
C593   H624    1.084   .     S
C593   C594    1.387   .     A
C594   H626    1.082   .     S
C594   C596    1.390   .     A
C595   C600    1.414   .     A
C595   C596    1.407   .     A
C595   C124    1.414   1_556 S
C596   H148    1.077   1_556 S
C597   H618    1.097   .     S
C597   C598    1.553   .     S
C598   H615    1.109   .     S
C598   C599    1.526   .     S
C599   H612    1.106   .     S
C599   H613    1.106   .     S
C599   H614    1.111   .     S
C600   C604    1.416   .     A
C601   C605    1.399   .     A
C602   C603    1.395   .     A
C602   C114    1.402   1_556 S
C602   C124    1.409   1_556 S
C603   H621    1.084   .     S
C603   C604    1.394   .     A
C604   H610    1.081   .     S
C605   H623    1.069   .     S
C606   C491    1.511   1_655 S
Cu607  Cu608   2.701   .     S
Cu607  O629    1.953   .     S
Cu607  N628    2.029   .     S
Cu607  O635    1.946   .     S
Cu607  O633    1.948   .     S
Cu607  O631    1.957   .     S
Cu608  O634    1.953   .     S
Cu608  O630    1.948   .     S
Cu608  N627    2.029   .     S
Cu608  O636    1.957   .     S
Cu608  O632    1.946   .     S
H609   C747    1.087   .     S
H611   C904    1.088   1_545 S
H616   C492    1.109   1_655 S
H617   C491    1.105   1_655 S
H620   N522    1.028   1_655 S
N627   H513    1.029   1_655 S
N627   N522    1.300   1_655 S
C637   O683    1.289   .     A
C637   O682    1.295   .     A
C637   C639    1.426   .     S
C638   C640    1.462   .     S
C638   C653    1.423   .     A
C638   C646    1.402   .     A
C639   C800    1.328   .     S
C639   H823    1.088   .     S
C640   O685    1.294   .     A
C640   O684    1.308   .     A
C641   C642    1.427   .     S
C642   O687    1.295   .     A
C642   O686    1.289   .     A
C643   O688    1.308   .     A
C643   O689    1.301   .     A
C643   C645    1.478   .     S
C644   H675    1.084   .     S
C644   C659    1.406   .     A
C645   C658    1.393   .     A
C645   C659    1.413   .     A
C646   H677    1.084   .     S
C646   C647    1.387   .     A
C647   H679    1.082   .     S
C647   C649    1.390   .     A
C648   C653    1.414   .     A
C648   C649    1.407   .     A
C648   C177    1.414   1_556 S
C649   H201    1.077   1_556 S
C650   H671    1.097   .     S
C650   C651    1.553   .     S
C650   C765    1.511   1_455 S
C650   H776    1.105   1_455 S
C651   H668    1.109   .     S
C651   C652    1.526   .     S
C651   H775    1.109   1_455 S
C652   H665    1.106   .     S
C652   H666    1.106   .     S
C652   H667    1.111   .     S
C653   C657    1.416   .     A
C654   C658    1.399   .     A
C655   C656    1.395   .     A
C655   C167    1.402   1_556 S
C655   C177    1.409   1_556 S
C656   H674    1.084   .     S
C656   C657    1.394   .     A
C657   H663    1.081   .     S
C658   H676    1.069   .     S
C659   C703    1.511   .     S
Cu660  Cu661   2.701   .     S
Cu660  O682    1.953   .     S
Cu660  N681    2.029   .     S
Cu660  O688    1.946   .     S
Cu660  O686    1.948   .     S
Cu660  O684    1.957   .     S
Cu661  O687    1.953   .     S
Cu661  O683    1.948   .     S
Cu661  N680    2.029   .     S
Cu661  O689    1.957   .     S
Cu661  O685    1.946   .     S
H662   C800    1.087   .     S
H669   C704    1.109   .     S
H670   C703    1.105   .     S
H672   N786    1.029   1_455 S
H673   N734    1.028   .     S
N680   H725    1.029   .     S
N680   N734    1.300   .     S
N681   N786    1.300   1_455 S
N681   H779    1.028   1_455 S
C690   O736    1.289   .     A
C690   O735    1.295   .     A
C690   C692    1.426   .     S
C691   C693    1.462   .     S
C691   C706    1.423   .     A
C691   C699    1.402   .     A
C692   C853    1.328   .     S
C692   H876    1.088   .     S
C693   O738    1.294   .     A
C693   O737    1.308   .     A
C694   C695    1.427   .     S
C695   O740    1.295   .     A
C695   O739    1.289   .     A
C696   O741    1.308   .     A
C696   O742    1.301   .     A
C696   C698    1.478   .     S
C697   H728    1.084   .     S
C697   C712    1.406   .     A
C698   C711    1.393   .     A
C698   C712    1.413   .     A
C699   H730    1.084   .     S
C699   C700    1.387   .     A
C700   H732    1.082   .     S
C700   C702    1.390   .     A
C701   C706    1.414   .     A
C701   C702    1.407   .     A
C701   C230    1.414   1_556 S
C702   H254    1.077   1_556 S
C703   H724    1.097   .     S
C703   C704    1.553   .     S
C704   H721    1.109   .     S
C704   C705    1.526   .     S
C705   H718    1.106   .     S
C705   H719    1.106   .     S
C705   H720    1.111   .     S
C706   C710    1.416   .     A
C707   C711    1.399   .     A
C708   C709    1.395   .     A
C708   C220    1.402   1_556 S
C708   C230    1.409   1_556 S
C709   H727    1.084   .     S
C709   C710    1.394   .     A
C710   H716    1.081   .     S
C711   H729    1.069   .     S
C712   C756    1.511   .     S
Cu713  Cu714   2.701   .     S
Cu713  O735    1.953   .     S
Cu713  N734    2.029   .     S
Cu713  O741    1.946   .     S
Cu713  O739    1.948   .     S
Cu713  O737    1.957   .     S
Cu714  O740    1.953   .     S
Cu714  O736    1.948   .     S
Cu714  N733    2.029   .     S
Cu714  O742    1.957   .     S
Cu714  O738    1.946   .     S
H715   C853    1.087   .     S
H722   C757    1.109   .     S
H723   C756    1.105   .     S
H726   N787    1.028   .     S
N733   H778    1.029   .     S
N733   N787    1.300   .     S
C743   O789    1.289   .     A
C743   O788    1.295   .     A
C743   C745    1.426   .     S
C744   C746    1.462   .     S
C744   C759    1.423   .     A
C744   C752    1.402   .     A
C745   C906    1.328   .     S
C745   H929    1.088   .     S
C746   O791    1.294   .     A
C746   O790    1.308   .     A
C747   C748    1.427   .     S
C748   O793    1.295   .     A
C748   O792    1.289   .     A
C749   O794    1.308   .     A
C749   O795    1.301   .     A
C749   C751    1.478   .     S
C750   H781    1.084   .     S
C750   C765    1.406   .     A
C751   C764    1.393   .     A
C751   C765    1.413   .     A
C752   H783    1.084   .     S
C752   C753    1.387   .     A
C753   H785    1.082   .     S
C753   C755    1.390   .     A
C754   C759    1.414   .     A
C754   C755    1.407   .     A
C754   C283    1.414   1_556 S
C755   H307    1.077   1_556 S
C756   H777    1.097   .     S
C756   C757    1.553   .     S
C757   H774    1.109   .     S
C757   C758    1.526   .     S
C758   H771    1.106   .     S
C758   H772    1.106   .     S
C758   H773    1.111   .     S
C759   C763    1.416   .     A
C760   C764    1.399   .     A
C761   C762    1.395   .     A
C761   C273    1.402   1_556 S
C761   C283    1.409   1_556 S
C762   H780    1.084   .     S
C762   C763    1.394   .     A
C763   H769    1.081   .     S
C764   H782    1.069   .     S
C765   C650    1.511   1_655 S
Cu766  Cu767   2.701   .     S
Cu766  O788    1.953   .     S
Cu766  N787    2.029   .     S
Cu766  O794    1.946   .     S
Cu766  O792    1.948   .     S
Cu766  O790    1.957   .     S
Cu767  O793    1.953   .     S
Cu767  O789    1.948   .     S
Cu767  N786    2.029   .     S
Cu767  O795    1.957   .     S
Cu767  O791    1.946   .     S
H768   C906    1.087   .     S
H775   C651    1.109   1_655 S
H776   C650    1.105   1_655 S
H779   N681    1.028   1_655 S
N786   H672    1.029   1_655 S
N786   N681    1.300   1_655 S
C796   O842    1.289   .     A
C796   O841    1.295   .     A
C796   C798    1.426   .     S
C797   C799    1.462   .     S
C797   C812    1.423   .     A
C797   C805    1.402   .     A
C798   C482    1.328   1_565 S
C798   H505    1.088   1_565 S
C799   O844    1.294   .     A
C799   O843    1.308   .     A
C800   C801    1.427   .     S
C801   O846    1.295   .     A
C801   O845    1.289   .     A
C802   O847    1.308   .     A
C802   O848    1.301   .     A
C802   C804    1.478   .     S
C803   H834    1.084   .     S
C803   C818    1.406   .     A
C804   C817    1.393   .     A
C804   C818    1.413   .     A
C805   H836    1.084   .     S
C805   C806    1.387   .     A
C806   H838    1.082   .     S
C806   C808    1.390   .     A
C807   C812    1.414   .     A
C807   C808    1.407   .     A
C807   C336    1.414   1_556 S
C808   H360    1.077   1_556 S
C809   H830    1.097   .     S
C809   C810    1.553   .     S
C809   C924    1.511   1_455 S
C809   H935    1.105   1_455 S
C810   H827    1.109   .     S
C810   C811    1.526   .     S
C810   H934    1.109   1_455 S
C811   H824    1.106   .     S
C811   H825    1.106   .     S
C811   H826    1.111   .     S
C812   C816    1.416   .     A
C813   C817    1.399   .     A
C814   C815    1.395   .     A
C814   C326    1.402   1_556 S
C814   C336    1.409   1_556 S
C815   H833    1.084   .     S
C815   C816    1.394   .     A
C816   H822    1.081   .     S
C817   H835    1.069   .     S
C818   C862    1.511   .     S
Cu819  Cu820   2.701   .     S
Cu819  O841    1.953   .     S
Cu819  N840    2.029   .     S
Cu819  O847    1.946   .     S
Cu819  O845    1.948   .     S
Cu819  O843    1.957   .     S
Cu820  O846    1.953   .     S
Cu820  O842    1.948   .     S
Cu820  N839    2.029   .     S
Cu820  O848    1.957   .     S
Cu820  O844    1.946   .     S
H821   C482    1.087   1_565 S
H828   C863    1.109   .     S
H829   C862    1.105   .     S
H831   N945    1.029   1_455 S
H832   N893    1.028   .     S
N839   H884    1.029   .     S
N839   N893    1.300   .     S
N840   N945    1.300   1_455 S
N840   H938    1.028   1_455 S
C849   O895    1.289   .     A
C849   O894    1.295   .     A
C849   C851    1.426   .     S
C850   C852    1.462   .     S
C850   C865    1.423   .     A
C850   C858    1.402   .     A
C851   C535    1.328   1_565 S
C851   H558    1.088   1_565 S
C852   O897    1.294   .     A
C852   O896    1.308   .     A
C853   C854    1.427   .     S
C854   O899    1.295   .     A
C854   O898    1.289   .     A
C855   O900    1.308   .     A
C855   O901    1.301   .     A
C855   C857    1.478   .     S
C856   H887    1.084   .     S
C856   C871    1.406   .     A
C857   C870    1.393   .     A
C857   C871    1.413   .     A
C858   H889    1.084   .     S
C858   C859    1.387   .     A
C859   H891    1.082   .     S
C859   C861    1.390   .     A
C860   C865    1.414   .     A
C860   C861    1.407   .     A
C860   C389    1.414   1_556 S
C861   H413    1.077   1_556 S
C862   H883    1.097   .     S
C862   C863    1.553   .     S
C863   H880    1.109   .     S
C863   C864    1.526   .     S
C864   H877    1.106   .     S
C864   H878    1.106   .     S
C864   H879    1.111   .     S
C865   C869    1.416   .     A
C866   C870    1.399   .     A
C867   C868    1.395   .     A
C867   C379    1.402   1_556 S
C867   C389    1.409   1_556 S
C868   H886    1.084   .     S
C868   C869    1.394   .     A
C869   H875    1.081   .     S
C870   H888    1.069   .     S
C871   C915    1.511   .     S
Cu872  Cu873   2.701   .     S
Cu872  O894    1.953   .     S
Cu872  N893    2.029   .     S
Cu872  O900    1.946   .     S
Cu872  O898    1.948   .     S
Cu872  O896    1.957   .     S
Cu873  O899    1.953   .     S
Cu873  O895    1.948   .     S
Cu873  N892    2.029   .     S
Cu873  O901    1.957   .     S
Cu873  O897    1.946   .     S
H874   C535    1.087   1_565 S
H881   C916    1.109   .     S
H882   C915    1.105   .     S
H885   N946    1.028   .     S
N892   H937    1.029   .     S
N892   N946    1.300   .     S
C902   O948    1.289   .     A
C902   O947    1.295   .     A
C902   C904    1.426   .     S
C903   C905    1.462   .     S
C903   C918    1.423   .     A
C903   C911    1.402   .     A
C904   C588    1.328   1_565 S
C904   H611    1.088   1_565 S
C905   O950    1.294   .     A
C905   O949    1.308   .     A
C906   C907    1.427   .     S
C907   O952    1.295   .     A
C907   O951    1.289   .     A
C908   O953    1.308   .     A
C908   O954    1.301   .     A
C908   C910    1.478   .     S
C909   H940    1.084   .     S
C909   C924    1.406   .     A
C910   C923    1.393   .     A
C910   C924    1.413   .     A
C911   H942    1.084   .     S
C911   C912    1.387   .     A
C912   H944    1.082   .     S
C912   C914    1.390   .     A
C913   C918    1.414   .     A
C913   C914    1.407   .     A
C913   C442    1.414   1_556 S
C914   H466    1.077   1_556 S
C915   H936    1.097   .     S
C915   C916    1.553   .     S
C916   H933    1.109   .     S
C916   C917    1.526   .     S
C917   H930    1.106   .     S
C917   H931    1.106   .     S
C917   H932    1.111   .     S
C918   C922    1.416   .     A
C919   C923    1.399   .     A
C920   C921    1.395   .     A
C920   C432    1.402   1_556 S
C920   C442    1.409   1_556 S
C921   H939    1.084   .     S
C921   C922    1.394   .     A
C922   H928    1.081   .     S
C923   H941    1.069   .     S
C924   C809    1.511   1_655 S
Cu925  Cu926   2.701   .     S
Cu925  O947    1.953   .     S
Cu925  N946    2.029   .     S
Cu925  O953    1.946   .     S
Cu925  O951    1.948   .     S
Cu925  O949    1.957   .     S
Cu926  O952    1.953   .     S
Cu926  O948    1.948   .     S
Cu926  N945    2.029   .     S
Cu926  O954    1.957   .     S
Cu926  O950    1.946   .     S
H927   C588    1.087   1_565 S
H934   C810    1.109   1_655 S
H935   C809    1.105   1_655 S
H938   N840    1.028   1_655 S
N945   H831    1.029   1_655 S
N945   N840    1.300   1_655 S
