data_str_m3_o2_o5_pcu_sym.5
_audit_creation_date              2020-01-03
_audit_creation_method            'Materials Studio'
_symmetry_space_group_name_H-M    'P1'
_symmetry_Int_Tables_number       1
_symmetry_cell_setting            triclinic
loop_
_symmetry_equiv_pos_as_xyz
  x,y,z
_cell_length_a                    30.1842
_cell_length_b                    28.6607
_cell_length_c                    26.9140
_cell_angle_alpha                 89.7653
_cell_angle_beta                  93.9399
_cell_angle_gamma                 87.7815
loop_
_atom_site_label
_atom_site_type_symbol
_atom_site_fract_x
_atom_site_fract_y
_atom_site_fract_z
_atom_site_U_iso_or_equiv
_atom_site_adp_type
_atom_site_occupancy
C1     C     0.16401   0.25082   0.16803   0.00000  Uiso   1.00
C2     C     0.21037   0.44804   0.15415   0.00000  Uiso   1.00
C3     C     0.24975   0.25007   0.07291   0.00000  Uiso   1.00
C4     C     0.25021   0.24993   0.26042   0.00000  Uiso   1.00
C5     C     0.24870   0.02667   0.16617   0.00000  Uiso   1.00
C6     C     0.24925   0.47323   0.16526   0.00000  Uiso   1.00
C7     C     0.24990   0.25008   0.02176   0.00000  Uiso   1.00
C8     C     0.25006   0.24990   0.31157   0.00000  Uiso   1.00
C9     C     0.04641   0.28025   0.12679   0.00000  Uiso   1.00
C10    C     0.45360   0.20656   0.14111   0.00000  Uiso   1.00
C11    C     0.45175   0.28995   0.15798   0.00000  Uiso   1.00
C12    C     0.33603   0.24916   0.16356   0.00000  Uiso   1.00
C13    C     0.04803   0.21720   0.18843   0.00000  Uiso   1.00
C14    C     0.09075   0.28717   0.14062   0.00000  Uiso   1.00
C15    C     0.40821   0.20526   0.14835   0.00000  Uiso   1.00
C16    C     0.40569   0.29033   0.15339   0.00000  Uiso   1.00
C17    C     0.09447   0.21718   0.19251   0.00000  Uiso   1.00
C18    C     0.11583   0.25215   0.16759   0.00000  Uiso   1.00
C19    C     0.38380   0.24782   0.15562   0.00000  Uiso   1.00
C20    C     0.02418   0.24716   0.15356   0.00000  Uiso   1.00
C21    C     0.47582   0.24800   0.15069   0.00000  Uiso   1.00
C22    C     0.19999   0.13074   0.08970   0.00000  Uiso   1.00
C23    C     0.22601   0.10360   0.12942   0.00000  Uiso   1.00
C24    C     0.32053   0.37343   0.21987   0.00000  Uiso   1.00
C25    C     0.29760   0.12508   0.24500   0.00000  Uiso   1.00
C26    C     0.18500   0.37872   0.10561   0.00000  Uiso   1.00
C27    C     0.00953   0.28864   0.04997   0.00000  Uiso   1.00
C28    C     0.49566   0.32480   0.01009   0.00000  Uiso   1.00
C29    C     0.48054   0.16383   0.07786   0.00000  Uiso   1.00
C30    C     0.49876   0.11560   0.06462   0.00000  Uiso   1.00
C31    C     0.47494   0.34333   0.21570   0.00000  Uiso   1.00
C32    C     0.47611   0.39605   0.22143   0.00000  Uiso   1.00
C33    C     0.02017   0.21051   0.26504   0.00000  Uiso   1.00
C34    C     0.28609   0.39738   0.18599   0.00000  Uiso   1.00
C35    C     0.47362   0.20225   0.28072   0.00000  Uiso   1.00
C36    C     0.09198   0.36497   0.15922   0.00000  Uiso   1.00
C37    C     0.10979   0.36077   0.21379   0.00000  Uiso   1.00
C38    C     0.38967   0.13739   0.18617   0.00000  Uiso   1.00
C39    C     0.43113   0.10515   0.19274   0.00000  Uiso   1.00
C40    C     0.38543   0.35090   0.09953   0.00000  Uiso   1.00
C41    C     0.34138   0.34645   0.06913   0.00000  Uiso   1.00
C42    C     0.12113   0.14310   0.21195   0.00000  Uiso   1.00
C43    C     0.15620   0.11667   0.24552   0.00000  Uiso   1.00
C44    C     0.21830   0.01388   0.05503   0.00000  Uiso   1.00
C45    C     0.27255   0.10064   0.20432   0.00000  Uiso   1.00
C46    C     0.18433   0.00185   0.01296   0.00000  Uiso   1.00
C47    C     0.33998   0.47806   0.12871   0.00000  Uiso   1.00
C48    C     0.38780   0.49274   0.12936   0.00000  Uiso   1.00
C49    C     0.27716   0.00789   0.27659   0.00000  Uiso   1.00
C50    C     0.30987   0.48645   0.31670   0.00000  Uiso   1.00
C51    C     0.15486   0.47952   0.19744   0.00000  Uiso   1.00
C52    C     0.10870   0.00304   0.19295   0.00000  Uiso   1.00
C53    C     0.21472   0.39955   0.14458   0.00000  Uiso   1.00
C54    C     0.22484   0.05412   0.12848   0.00000  Uiso   1.00
C55    C     0.28899   0.44583   0.17555   0.00000  Uiso   1.00
C56    C     0.27277   0.05098   0.20452   0.00000  Uiso   1.00
H57    H     0.18169   0.16236   0.09793   0.00000  Uiso   1.00
H58    H     0.00425   0.18974   0.06621   0.00000  Uiso   1.00
H59    H     0.44763   0.16993   0.05690   0.00000  Uiso   1.00
H60    H     0.47536   0.08864   0.07449   0.00000  Uiso   1.00
H61    H     0.00312   0.11385   0.02403   0.00000  Uiso   1.00
H62    H     0.03148   0.10831   0.08523   0.00000  Uiso   1.00
H63    H     0.00609   0.32730   0.23374   0.00000  Uiso   1.00
H64    H     0.44589   0.33162   0.23537   0.00000  Uiso   1.00
H65    H     0.44464   0.41260   0.20495   0.00000  Uiso   1.00
H66    H     0.47982   0.40503   0.26156   0.00000  Uiso   1.00
H67    H     0.00439   0.41004   0.20262   0.00000  Uiso   1.00
H68    H     0.31398   0.34055   0.23707   0.00000  Uiso   1.00
H69    H     0.02452   0.24902   0.26453   0.00000  Uiso   1.00
H70    H     0.04481   0.19487   0.29353   0.00000  Uiso   1.00
H71    H     0.46885   0.16431   0.28517   0.00000  Uiso   1.00
H72    H     0.46856   0.21959   0.31667   0.00000  Uiso   1.00
H73    H     0.44846   0.21700   0.25237   0.00000  Uiso   1.00
H74    H     0.05514   0.36706   0.15690   0.00000  Uiso   1.00
H75    H     0.10192   0.39892   0.14471   0.00000  Uiso   1.00
H76    H     0.09730   0.39121   0.23484   0.00000  Uiso   1.00
H77    H     0.09809   0.32874   0.23122   0.00000  Uiso   1.00
H78    H     0.14666   0.35993   0.21653   0.00000  Uiso   1.00
H79    H     0.31193   0.15808   0.23804   0.00000  Uiso   1.00
H80    H     0.36107   0.11434   0.18365   0.00000  Uiso   1.00
H81    H     0.38682   0.15965   0.21978   0.00000  Uiso   1.00
H82    H     0.46027   0.12482   0.20651   0.00000  Uiso   1.00
H83    H     0.42604   0.07780   0.22091   0.00000  Uiso   1.00
H84    H     0.43794   0.08806   0.15699   0.00000  Uiso   1.00
H85    H     0.41239   0.33433   0.07841   0.00000  Uiso   1.00
H86    H     0.39284   0.38836   0.10258   0.00000  Uiso   1.00
H87    H     0.34294   0.36363   0.03226   0.00000  Uiso   1.00
H88    H     0.33460   0.30901   0.06327   0.00000  Uiso   1.00
H89    H     0.31395   0.36340   0.08874   0.00000  Uiso   1.00
H90    H     0.18734   0.34203   0.09778   0.00000  Uiso   1.00
H91    H     0.13103   0.14055   0.17287   0.00000  Uiso   1.00
H92    H     0.08883   0.12621   0.21464   0.00000  Uiso   1.00
H93    H     0.14522   0.11467   0.28399   0.00000  Uiso   1.00
H94    H     0.16163   0.08092   0.23131   0.00000  Uiso   1.00
H95    H     0.18812   0.13473   0.24632   0.00000  Uiso   1.00
H96    H     0.23647   0.48114   0.06762   0.00000  Uiso   1.00
H97    H     0.24243   0.03816   0.04085   0.00000  Uiso   1.00
H98    H     0.17133   0.03416   0.32659   0.00000  Uiso   1.00
H99    H     0.19968   0.47809   0.31940   0.00000  Uiso   1.00
H100   H     0.15614   0.48395   0.02806   0.00000  Uiso   1.00
H101   H     0.47978   0.26858   0.05659   0.00000  Uiso   1.00
H102   H     0.31840   0.00810   0.11435   0.00000  Uiso   1.00
H103   H     0.33576   0.44834   0.10250   0.00000  Uiso   1.00
H104   H     0.41084   0.46296   0.14072   0.00000  Uiso   1.00
H105   H     0.39524   0.00488   0.09170   0.00000  Uiso   1.00
H106   H     0.39283   0.02153   0.15622   0.00000  Uiso   1.00
H107   H     0.25576   0.47984   0.26181   0.00000  Uiso   1.00
H108   H     0.25597   0.03530   0.29331   0.00000  Uiso   1.00
H109   H     0.32842   0.01431   0.00321   0.00000  Uiso   1.00
H110   H     0.29198   0.46651   0.01054   0.00000  Uiso   1.00
H111   H     0.33383   0.46206   0.29960   0.00000  Uiso   1.00
H112   H     0.03599   0.26502   0.03575   0.00000  Uiso   1.00
H113   H     0.17775   0.00319   0.21811   0.00000  Uiso   1.00
H114   H     0.15353   0.44680   0.21951   0.00000  Uiso   1.00
H115   H     0.08454   0.47939   0.17437   0.00000  Uiso   1.00
H116   H     0.09797   0.01164   0.23060   0.00000  Uiso   1.00
H117   H     0.10913   0.03576   0.17076   0.00000  Uiso   1.00
H118   H     0.02534   0.34166   0.33044   0.00000  Uiso   1.00
H119   H     0.47797   0.30720   0.31189   0.00000  Uiso   1.00
H120   H     0.47283   0.35193   0.02473   0.00000  Uiso   1.00
N121   N     0.25000   0.12624   0.16667   0.00000  Uiso   1.00
N122   N     0.25000   0.37377   0.16667   0.00000  Uiso   1.00
O123   O     0.18453   0.28974   0.16667   0.00000  Uiso   1.00
O124   O     0.35605   0.39095   0.23101   0.00000  Uiso   1.00
O125   O     0.30272   0.10877   0.28705   0.00000  Uiso   1.00
O126   O     0.15887   0.40302   0.07913   0.00000  Uiso   1.00
O127   O     0.02441   0.31179   0.09364   0.00000  Uiso   1.00
O128   O     0.47697   0.16596   0.12973   0.00000  Uiso   1.00
O129   O     0.47251   0.33192   0.16467   0.00000  Uiso   1.00
O130   O     0.02576   0.18841   0.21883   0.00000  Uiso   1.00
O131   O     0.10931   0.32884   0.12913   0.00000  Uiso   1.00
O132   O     0.38741   0.16339   0.14113   0.00000  Uiso   1.00
O133   O     0.38247   0.33286   0.14832   0.00000  Uiso   1.00
O134   O     0.31547   0.21026   0.16666   0.00000  Uiso   1.00
O135   O     0.11842   0.18980   0.22818   0.00000  Uiso   1.00
O136   O     0.19539   0.03407   0.09393   0.00000  Uiso   1.00
O137   O     0.33018   0.46561   0.17756   0.00000  Uiso   1.00
O138   O     0.30134   0.02704   0.23906   0.00000  Uiso   1.00
O139   O     0.16871   0.47004   0.14934   0.00000  Uiso   1.00
O140   O     0.31547   0.28974   0.16666   0.00000  Uiso   1.00
O141   O     0.18453   0.21026   0.16667   0.00000  Uiso   1.00
O142   O     0.25000   0.28973   0.09511   0.00000  Uiso   1.00
O143   O     0.25000   0.21027   0.23822   0.00000  Uiso   1.00
O144   O     0.25000   0.28973   0.23822   0.00000  Uiso   1.00
O145   O     0.25000   0.21027   0.09511   0.00000  Uiso   1.00
O146   O     0.19881   0.11805   0.04642   0.00000  Uiso   1.00
Zn147  Zn    0.25000   0.30307   0.16667   0.00000  Uiso   1.00
Zn148  Zn    0.25000   0.19693   0.16667   0.00000  Uiso   1.00
C149   C     0.66401   0.25082   0.16803   0.00000  Uiso   1.00
C150   C     0.71037   0.44804   0.15415   0.00000  Uiso   1.00
C151   C     0.74975   0.25007   0.07291   0.00000  Uiso   1.00
C152   C     0.75021   0.24993   0.26042   0.00000  Uiso   1.00
C153   C     0.74870   0.02667   0.16617   0.00000  Uiso   1.00
C154   C     0.74925   0.47323   0.16526   0.00000  Uiso   1.00
C155   C     0.74990   0.25008   0.02176   0.00000  Uiso   1.00
C156   C     0.75006   0.24990   0.31157   0.00000  Uiso   1.00
C157   C     0.54641   0.28025   0.12679   0.00000  Uiso   1.00
C158   C     0.95360   0.20656   0.14111   0.00000  Uiso   1.00
C159   C     0.95175   0.28995   0.15798   0.00000  Uiso   1.00
C160   C     0.83603   0.24916   0.16356   0.00000  Uiso   1.00
C161   C     0.54803   0.21720   0.18843   0.00000  Uiso   1.00
C162   C     0.59075   0.28717   0.14062   0.00000  Uiso   1.00
C163   C     0.90821   0.20526   0.14835   0.00000  Uiso   1.00
C164   C     0.90569   0.29033   0.15339   0.00000  Uiso   1.00
C165   C     0.59447   0.21718   0.19251   0.00000  Uiso   1.00
C166   C     0.61583   0.25215   0.16759   0.00000  Uiso   1.00
C167   C     0.88380   0.24782   0.15562   0.00000  Uiso   1.00
C168   C     0.52418   0.24716   0.15356   0.00000  Uiso   1.00
C169   C     0.97582   0.24800   0.15069   0.00000  Uiso   1.00
C170   C     0.69999   0.13074   0.08970   0.00000  Uiso   1.00
C171   C     0.72601   0.10360   0.12942   0.00000  Uiso   1.00
C172   C     0.82053   0.37343   0.21987   0.00000  Uiso   1.00
C173   C     0.79760   0.12508   0.24500   0.00000  Uiso   1.00
C174   C     0.68500   0.37872   0.10561   0.00000  Uiso   1.00
C175   C     0.50953   0.28864   0.04997   0.00000  Uiso   1.00
C176   C     0.99566   0.32480   0.01009   0.00000  Uiso   1.00
C177   C     0.98054   0.16383   0.07786   0.00000  Uiso   1.00
C178   C     0.99876   0.11560   0.06462   0.00000  Uiso   1.00
C179   C     0.97494   0.34333   0.21570   0.00000  Uiso   1.00
C180   C     0.97611   0.39605   0.22143   0.00000  Uiso   1.00
C181   C     0.52017   0.21051   0.26504   0.00000  Uiso   1.00
C182   C     0.78609   0.39738   0.18599   0.00000  Uiso   1.00
C183   C     0.97362   0.20225   0.28072   0.00000  Uiso   1.00
C184   C     0.59198   0.36497   0.15922   0.00000  Uiso   1.00
C185   C     0.60979   0.36077   0.21379   0.00000  Uiso   1.00
C186   C     0.88967   0.13739   0.18617   0.00000  Uiso   1.00
C187   C     0.93113   0.10515   0.19274   0.00000  Uiso   1.00
C188   C     0.88543   0.35090   0.09953   0.00000  Uiso   1.00
C189   C     0.84138   0.34645   0.06913   0.00000  Uiso   1.00
C190   C     0.62113   0.14310   0.21195   0.00000  Uiso   1.00
C191   C     0.65620   0.11667   0.24552   0.00000  Uiso   1.00
C192   C     0.71830   0.01388   0.05503   0.00000  Uiso   1.00
C193   C     0.77255   0.10064   0.20432   0.00000  Uiso   1.00
C194   C     0.68433   0.00185   0.01296   0.00000  Uiso   1.00
C195   C     0.83998   0.47806   0.12871   0.00000  Uiso   1.00
C196   C     0.88780   0.49274   0.12936   0.00000  Uiso   1.00
C197   C     0.77716   0.00789   0.27659   0.00000  Uiso   1.00
C198   C     0.80987   0.48645   0.31670   0.00000  Uiso   1.00
C199   C     0.65486   0.47952   0.19744   0.00000  Uiso   1.00
C200   C     0.60870   0.00304   0.19295   0.00000  Uiso   1.00
C201   C     0.71472   0.39955   0.14458   0.00000  Uiso   1.00
C202   C     0.72484   0.05412   0.12848   0.00000  Uiso   1.00
C203   C     0.78899   0.44583   0.17555   0.00000  Uiso   1.00
C204   C     0.77277   0.05098   0.20452   0.00000  Uiso   1.00
H205   H     0.68169   0.16236   0.09793   0.00000  Uiso   1.00
H206   H     0.50425   0.18974   0.06621   0.00000  Uiso   1.00
H207   H     0.94763   0.16993   0.05690   0.00000  Uiso   1.00
H208   H     0.97536   0.08864   0.07449   0.00000  Uiso   1.00
H209   H     0.50312   0.11385   0.02403   0.00000  Uiso   1.00
H210   H     0.53148   0.10831   0.08523   0.00000  Uiso   1.00
H211   H     0.50609   0.32730   0.23374   0.00000  Uiso   1.00
H212   H     0.94589   0.33162   0.23537   0.00000  Uiso   1.00
H213   H     0.94464   0.41260   0.20495   0.00000  Uiso   1.00
H214   H     0.97982   0.40503   0.26156   0.00000  Uiso   1.00
H215   H     0.50439   0.41004   0.20262   0.00000  Uiso   1.00
H216   H     0.81398   0.34055   0.23707   0.00000  Uiso   1.00
H217   H     0.52452   0.24902   0.26453   0.00000  Uiso   1.00
H218   H     0.54481   0.19487   0.29353   0.00000  Uiso   1.00
H219   H     0.96885   0.16431   0.28517   0.00000  Uiso   1.00
H220   H     0.96856   0.21959   0.31667   0.00000  Uiso   1.00
H221   H     0.94846   0.21700   0.25237   0.00000  Uiso   1.00
H222   H     0.55514   0.36706   0.15690   0.00000  Uiso   1.00
H223   H     0.60192   0.39892   0.14471   0.00000  Uiso   1.00
H224   H     0.59730   0.39121   0.23484   0.00000  Uiso   1.00
H225   H     0.59809   0.32874   0.23122   0.00000  Uiso   1.00
H226   H     0.64666   0.35993   0.21653   0.00000  Uiso   1.00
H227   H     0.81193   0.15808   0.23804   0.00000  Uiso   1.00
H228   H     0.86107   0.11434   0.18365   0.00000  Uiso   1.00
H229   H     0.88682   0.15965   0.21978   0.00000  Uiso   1.00
H230   H     0.96027   0.12482   0.20651   0.00000  Uiso   1.00
H231   H     0.92604   0.07780   0.22091   0.00000  Uiso   1.00
H232   H     0.93794   0.08806   0.15699   0.00000  Uiso   1.00
H233   H     0.91239   0.33433   0.07841   0.00000  Uiso   1.00
H234   H     0.89284   0.38836   0.10258   0.00000  Uiso   1.00
H235   H     0.84294   0.36363   0.03226   0.00000  Uiso   1.00
H236   H     0.83460   0.30901   0.06327   0.00000  Uiso   1.00
H237   H     0.81395   0.36340   0.08874   0.00000  Uiso   1.00
H238   H     0.68734   0.34203   0.09778   0.00000  Uiso   1.00
H239   H     0.63103   0.14055   0.17287   0.00000  Uiso   1.00
H240   H     0.58883   0.12621   0.21464   0.00000  Uiso   1.00
H241   H     0.64522   0.11467   0.28399   0.00000  Uiso   1.00
H242   H     0.66163   0.08092   0.23131   0.00000  Uiso   1.00
H243   H     0.68812   0.13473   0.24632   0.00000  Uiso   1.00
H244   H     0.73647   0.48114   0.06762   0.00000  Uiso   1.00
H245   H     0.74243   0.03816   0.04085   0.00000  Uiso   1.00
H246   H     0.67133   0.03416   0.32659   0.00000  Uiso   1.00
H247   H     0.69968   0.47809   0.31940   0.00000  Uiso   1.00
H248   H     0.65614   0.48395   0.02806   0.00000  Uiso   1.00
H249   H     0.97978   0.26858   0.05659   0.00000  Uiso   1.00
H250   H     0.81840   0.00810   0.11435   0.00000  Uiso   1.00
H251   H     0.83576   0.44834   0.10250   0.00000  Uiso   1.00
H252   H     0.91084   0.46296   0.14072   0.00000  Uiso   1.00
H253   H     0.89524   0.00488   0.09170   0.00000  Uiso   1.00
H254   H     0.89283   0.02153   0.15622   0.00000  Uiso   1.00
H255   H     0.75576   0.47984   0.26181   0.00000  Uiso   1.00
H256   H     0.75597   0.03530   0.29331   0.00000  Uiso   1.00
H257   H     0.82842   0.01431   0.00321   0.00000  Uiso   1.00
H258   H     0.79198   0.46651   0.01054   0.00000  Uiso   1.00
H259   H     0.83383   0.46206   0.29960   0.00000  Uiso   1.00
H260   H     0.53599   0.26502   0.03575   0.00000  Uiso   1.00
H261   H     0.67775   0.00319   0.21811   0.00000  Uiso   1.00
H262   H     0.65353   0.44680   0.21951   0.00000  Uiso   1.00
H263   H     0.58454   0.47939   0.17437   0.00000  Uiso   1.00
H264   H     0.59797   0.01164   0.23060   0.00000  Uiso   1.00
H265   H     0.60913   0.03576   0.17076   0.00000  Uiso   1.00
H266   H     0.52534   0.34166   0.33044   0.00000  Uiso   1.00
H267   H     0.97797   0.30720   0.31189   0.00000  Uiso   1.00
H268   H     0.97283   0.35193   0.02473   0.00000  Uiso   1.00
N269   N     0.75000   0.12624   0.16667   0.00000  Uiso   1.00
N270   N     0.75000   0.37377   0.16667   0.00000  Uiso   1.00
O271   O     0.68453   0.28974   0.16667   0.00000  Uiso   1.00
O272   O     0.85605   0.39095   0.23101   0.00000  Uiso   1.00
O273   O     0.80272   0.10877   0.28705   0.00000  Uiso   1.00
O274   O     0.65887   0.40302   0.07913   0.00000  Uiso   1.00
O275   O     0.52441   0.31179   0.09364   0.00000  Uiso   1.00
O276   O     0.97697   0.16596   0.12973   0.00000  Uiso   1.00
O277   O     0.97251   0.33192   0.16467   0.00000  Uiso   1.00
O278   O     0.52576   0.18841   0.21883   0.00000  Uiso   1.00
O279   O     0.60931   0.32884   0.12913   0.00000  Uiso   1.00
O280   O     0.88741   0.16339   0.14113   0.00000  Uiso   1.00
O281   O     0.88247   0.33286   0.14832   0.00000  Uiso   1.00
O282   O     0.81547   0.21026   0.16666   0.00000  Uiso   1.00
O283   O     0.61842   0.18980   0.22818   0.00000  Uiso   1.00
O284   O     0.69539   0.03407   0.09393   0.00000  Uiso   1.00
O285   O     0.83018   0.46561   0.17756   0.00000  Uiso   1.00
O286   O     0.80134   0.02704   0.23906   0.00000  Uiso   1.00
O287   O     0.66871   0.47004   0.14934   0.00000  Uiso   1.00
O288   O     0.81547   0.28974   0.16666   0.00000  Uiso   1.00
O289   O     0.68453   0.21026   0.16667   0.00000  Uiso   1.00
O290   O     0.75000   0.28973   0.09511   0.00000  Uiso   1.00
O291   O     0.75000   0.21027   0.23822   0.00000  Uiso   1.00
O292   O     0.75000   0.28973   0.23822   0.00000  Uiso   1.00
O293   O     0.75000   0.21027   0.09511   0.00000  Uiso   1.00
O294   O     0.69881   0.11805   0.04642   0.00000  Uiso   1.00
Zn295  Zn    0.75000   0.30307   0.16667   0.00000  Uiso   1.00
Zn296  Zn    0.75000   0.19693   0.16667   0.00000  Uiso   1.00
C297   C     0.16401   0.75082   0.16803   0.00000  Uiso   1.00
C298   C     0.21037   0.94804   0.15415   0.00000  Uiso   1.00
C299   C     0.24975   0.75007   0.07291   0.00000  Uiso   1.00
C300   C     0.25021   0.74993   0.26042   0.00000  Uiso   1.00
C301   C     0.24870   0.52667   0.16617   0.00000  Uiso   1.00
C302   C     0.24925   0.97323   0.16526   0.00000  Uiso   1.00
C303   C     0.24990   0.75008   0.02176   0.00000  Uiso   1.00
C304   C     0.25006   0.74990   0.31157   0.00000  Uiso   1.00
C305   C     0.04641   0.78025   0.12679   0.00000  Uiso   1.00
C306   C     0.45360   0.70656   0.14111   0.00000  Uiso   1.00
C307   C     0.45175   0.78995   0.15798   0.00000  Uiso   1.00
C308   C     0.33603   0.74916   0.16356   0.00000  Uiso   1.00
C309   C     0.04803   0.71720   0.18843   0.00000  Uiso   1.00
C310   C     0.09075   0.78717   0.14062   0.00000  Uiso   1.00
C311   C     0.40821   0.70526   0.14835   0.00000  Uiso   1.00
C312   C     0.40569   0.79033   0.15339   0.00000  Uiso   1.00
C313   C     0.09447   0.71718   0.19251   0.00000  Uiso   1.00
C314   C     0.11583   0.75215   0.16759   0.00000  Uiso   1.00
C315   C     0.38380   0.74782   0.15562   0.00000  Uiso   1.00
C316   C     0.02418   0.74716   0.15356   0.00000  Uiso   1.00
C317   C     0.47582   0.74800   0.15069   0.00000  Uiso   1.00
C318   C     0.19999   0.63074   0.08970   0.00000  Uiso   1.00
C319   C     0.22601   0.60360   0.12942   0.00000  Uiso   1.00
C320   C     0.32053   0.87343   0.21987   0.00000  Uiso   1.00
C321   C     0.29760   0.62508   0.24500   0.00000  Uiso   1.00
C322   C     0.18500   0.87872   0.10561   0.00000  Uiso   1.00
C323   C     0.00953   0.78864   0.04997   0.00000  Uiso   1.00
C324   C     0.49566   0.82480   0.01009   0.00000  Uiso   1.00
C325   C     0.48054   0.66383   0.07786   0.00000  Uiso   1.00
C326   C     0.49876   0.61560   0.06462   0.00000  Uiso   1.00
C327   C     0.47494   0.84333   0.21570   0.00000  Uiso   1.00
C328   C     0.47611   0.89605   0.22143   0.00000  Uiso   1.00
C329   C     0.02017   0.71051   0.26504   0.00000  Uiso   1.00
C330   C     0.28609   0.89738   0.18599   0.00000  Uiso   1.00
C331   C     0.47362   0.70225   0.28072   0.00000  Uiso   1.00
C332   C     0.09198   0.86497   0.15922   0.00000  Uiso   1.00
C333   C     0.10979   0.86077   0.21379   0.00000  Uiso   1.00
C334   C     0.38967   0.63739   0.18617   0.00000  Uiso   1.00
C335   C     0.43113   0.60515   0.19274   0.00000  Uiso   1.00
C336   C     0.38543   0.85090   0.09953   0.00000  Uiso   1.00
C337   C     0.34138   0.84645   0.06913   0.00000  Uiso   1.00
C338   C     0.12113   0.64310   0.21195   0.00000  Uiso   1.00
C339   C     0.15620   0.61667   0.24552   0.00000  Uiso   1.00
C340   C     0.21830   0.51388   0.05503   0.00000  Uiso   1.00
C341   C     0.27255   0.60064   0.20432   0.00000  Uiso   1.00
C342   C     0.18433   0.50185   0.01296   0.00000  Uiso   1.00
C343   C     0.33998   0.97806   0.12871   0.00000  Uiso   1.00
C344   C     0.38780   0.99274   0.12936   0.00000  Uiso   1.00
C345   C     0.27716   0.50789   0.27659   0.00000  Uiso   1.00
C346   C     0.30987   0.98645   0.31670   0.00000  Uiso   1.00
C347   C     0.15486   0.97952   0.19744   0.00000  Uiso   1.00
C348   C     0.10870   0.50304   0.19295   0.00000  Uiso   1.00
C349   C     0.21472   0.89955   0.14458   0.00000  Uiso   1.00
C350   C     0.22484   0.55412   0.12848   0.00000  Uiso   1.00
C351   C     0.28899   0.94583   0.17555   0.00000  Uiso   1.00
C352   C     0.27277   0.55098   0.20452   0.00000  Uiso   1.00
H353   H     0.18169   0.66236   0.09793   0.00000  Uiso   1.00
H354   H     0.00425   0.68974   0.06621   0.00000  Uiso   1.00
H355   H     0.44763   0.66993   0.05690   0.00000  Uiso   1.00
H356   H     0.47536   0.58864   0.07449   0.00000  Uiso   1.00
H357   H     0.00312   0.61385   0.02403   0.00000  Uiso   1.00
H358   H     0.03148   0.60831   0.08523   0.00000  Uiso   1.00
H359   H     0.00609   0.82730   0.23374   0.00000  Uiso   1.00
H360   H     0.44589   0.83162   0.23537   0.00000  Uiso   1.00
H361   H     0.44464   0.91260   0.20495   0.00000  Uiso   1.00
H362   H     0.47982   0.90503   0.26156   0.00000  Uiso   1.00
H363   H     0.00439   0.91004   0.20262   0.00000  Uiso   1.00
H364   H     0.31398   0.84055   0.23707   0.00000  Uiso   1.00
H365   H     0.02452   0.74902   0.26453   0.00000  Uiso   1.00
H366   H     0.04481   0.69487   0.29353   0.00000  Uiso   1.00
H367   H     0.46885   0.66431   0.28517   0.00000  Uiso   1.00
H368   H     0.46856   0.71959   0.31667   0.00000  Uiso   1.00
H369   H     0.44846   0.71700   0.25237   0.00000  Uiso   1.00
H370   H     0.05514   0.86706   0.15690   0.00000  Uiso   1.00
H371   H     0.10192   0.89892   0.14471   0.00000  Uiso   1.00
H372   H     0.09730   0.89121   0.23484   0.00000  Uiso   1.00
H373   H     0.09809   0.82874   0.23122   0.00000  Uiso   1.00
H374   H     0.14666   0.85993   0.21653   0.00000  Uiso   1.00
H375   H     0.31193   0.65808   0.23804   0.00000  Uiso   1.00
H376   H     0.36107   0.61434   0.18365   0.00000  Uiso   1.00
H377   H     0.38682   0.65965   0.21978   0.00000  Uiso   1.00
H378   H     0.46027   0.62482   0.20651   0.00000  Uiso   1.00
H379   H     0.42604   0.57780   0.22091   0.00000  Uiso   1.00
H380   H     0.43794   0.58806   0.15699   0.00000  Uiso   1.00
H381   H     0.41239   0.83433   0.07841   0.00000  Uiso   1.00
H382   H     0.39284   0.88836   0.10258   0.00000  Uiso   1.00
H383   H     0.34294   0.86363   0.03226   0.00000  Uiso   1.00
H384   H     0.33460   0.80901   0.06327   0.00000  Uiso   1.00
H385   H     0.31395   0.86340   0.08874   0.00000  Uiso   1.00
H386   H     0.18734   0.84203   0.09778   0.00000  Uiso   1.00
H387   H     0.13103   0.64055   0.17287   0.00000  Uiso   1.00
H388   H     0.08883   0.62621   0.21464   0.00000  Uiso   1.00
H389   H     0.14522   0.61467   0.28399   0.00000  Uiso   1.00
H390   H     0.16163   0.58092   0.23131   0.00000  Uiso   1.00
H391   H     0.18812   0.63473   0.24632   0.00000  Uiso   1.00
H392   H     0.23647   0.98114   0.06762   0.00000  Uiso   1.00
H393   H     0.24243   0.53816   0.04085   0.00000  Uiso   1.00
H394   H     0.17133   0.53416   0.32659   0.00000  Uiso   1.00
H395   H     0.19968   0.97809   0.31940   0.00000  Uiso   1.00
H396   H     0.15614   0.98395   0.02806   0.00000  Uiso   1.00
H397   H     0.47978   0.76858   0.05659   0.00000  Uiso   1.00
H398   H     0.31840   0.50810   0.11435   0.00000  Uiso   1.00
H399   H     0.33576   0.94834   0.10250   0.00000  Uiso   1.00
H400   H     0.41084   0.96296   0.14072   0.00000  Uiso   1.00
H401   H     0.39524   0.50488   0.09170   0.00000  Uiso   1.00
H402   H     0.39283   0.52153   0.15622   0.00000  Uiso   1.00
H403   H     0.25576   0.97984   0.26181   0.00000  Uiso   1.00
H404   H     0.25597   0.53530   0.29331   0.00000  Uiso   1.00
H405   H     0.32842   0.51431   0.00321   0.00000  Uiso   1.00
H406   H     0.29198   0.96651   0.01054   0.00000  Uiso   1.00
H407   H     0.33383   0.96206   0.29960   0.00000  Uiso   1.00
H408   H     0.03599   0.76502   0.03575   0.00000  Uiso   1.00
H409   H     0.17775   0.50319   0.21811   0.00000  Uiso   1.00
H410   H     0.15353   0.94680   0.21951   0.00000  Uiso   1.00
H411   H     0.08454   0.97939   0.17437   0.00000  Uiso   1.00
H412   H     0.09797   0.51164   0.23060   0.00000  Uiso   1.00
H413   H     0.10913   0.53576   0.17076   0.00000  Uiso   1.00
H414   H     0.02534   0.84166   0.33044   0.00000  Uiso   1.00
H415   H     0.47797   0.80720   0.31189   0.00000  Uiso   1.00
H416   H     0.47283   0.85193   0.02473   0.00000  Uiso   1.00
N417   N     0.25000   0.62624   0.16667   0.00000  Uiso   1.00
N418   N     0.25000   0.87377   0.16667   0.00000  Uiso   1.00
O419   O     0.18453   0.78974   0.16667   0.00000  Uiso   1.00
O420   O     0.35605   0.89095   0.23101   0.00000  Uiso   1.00
O421   O     0.30272   0.60877   0.28705   0.00000  Uiso   1.00
O422   O     0.15887   0.90302   0.07913   0.00000  Uiso   1.00
O423   O     0.02441   0.81179   0.09364   0.00000  Uiso   1.00
O424   O     0.47697   0.66596   0.12973   0.00000  Uiso   1.00
O425   O     0.47251   0.83192   0.16467   0.00000  Uiso   1.00
O426   O     0.02576   0.68841   0.21883   0.00000  Uiso   1.00
O427   O     0.10931   0.82884   0.12913   0.00000  Uiso   1.00
O428   O     0.38741   0.66339   0.14113   0.00000  Uiso   1.00
O429   O     0.38247   0.83286   0.14832   0.00000  Uiso   1.00
O430   O     0.31547   0.71026   0.16666   0.00000  Uiso   1.00
O431   O     0.11842   0.68980   0.22818   0.00000  Uiso   1.00
O432   O     0.19539   0.53407   0.09393   0.00000  Uiso   1.00
O433   O     0.33018   0.96561   0.17756   0.00000  Uiso   1.00
O434   O     0.30134   0.52704   0.23906   0.00000  Uiso   1.00
O435   O     0.16871   0.97004   0.14934   0.00000  Uiso   1.00
O436   O     0.31547   0.78974   0.16666   0.00000  Uiso   1.00
O437   O     0.18453   0.71026   0.16667   0.00000  Uiso   1.00
O438   O     0.25000   0.78973   0.09511   0.00000  Uiso   1.00
O439   O     0.25000   0.71027   0.23822   0.00000  Uiso   1.00
O440   O     0.25000   0.78973   0.23822   0.00000  Uiso   1.00
O441   O     0.25000   0.71027   0.09511   0.00000  Uiso   1.00
O442   O     0.19881   0.61805   0.04642   0.00000  Uiso   1.00
Zn443  Zn    0.25000   0.80307   0.16667   0.00000  Uiso   1.00
Zn444  Zn    0.25000   0.69693   0.16667   0.00000  Uiso   1.00
C445   C     0.66401   0.75082   0.16803   0.00000  Uiso   1.00
C446   C     0.71037   0.94804   0.15415   0.00000  Uiso   1.00
C447   C     0.74975   0.75007   0.07291   0.00000  Uiso   1.00
C448   C     0.75021   0.74993   0.26042   0.00000  Uiso   1.00
C449   C     0.74870   0.52667   0.16617   0.00000  Uiso   1.00
C450   C     0.74925   0.97323   0.16526   0.00000  Uiso   1.00
C451   C     0.74990   0.75008   0.02176   0.00000  Uiso   1.00
C452   C     0.75006   0.74990   0.31157   0.00000  Uiso   1.00
C453   C     0.54641   0.78025   0.12679   0.00000  Uiso   1.00
C454   C     0.95360   0.70656   0.14111   0.00000  Uiso   1.00
C455   C     0.95175   0.78995   0.15798   0.00000  Uiso   1.00
C456   C     0.83603   0.74916   0.16356   0.00000  Uiso   1.00
C457   C     0.54803   0.71720   0.18843   0.00000  Uiso   1.00
C458   C     0.59075   0.78717   0.14062   0.00000  Uiso   1.00
C459   C     0.90821   0.70526   0.14835   0.00000  Uiso   1.00
C460   C     0.90569   0.79033   0.15339   0.00000  Uiso   1.00
C461   C     0.59447   0.71718   0.19251   0.00000  Uiso   1.00
C462   C     0.61583   0.75215   0.16759   0.00000  Uiso   1.00
C463   C     0.88380   0.74782   0.15562   0.00000  Uiso   1.00
C464   C     0.52418   0.74716   0.15356   0.00000  Uiso   1.00
C465   C     0.97582   0.74800   0.15069   0.00000  Uiso   1.00
C466   C     0.69999   0.63074   0.08970   0.00000  Uiso   1.00
C467   C     0.72601   0.60360   0.12942   0.00000  Uiso   1.00
C468   C     0.82053   0.87343   0.21987   0.00000  Uiso   1.00
C469   C     0.79760   0.62508   0.24500   0.00000  Uiso   1.00
C470   C     0.68500   0.87872   0.10561   0.00000  Uiso   1.00
C471   C     0.50953   0.78864   0.04997   0.00000  Uiso   1.00
C472   C     0.99566   0.82480   0.01009   0.00000  Uiso   1.00
C473   C     0.98054   0.66383   0.07786   0.00000  Uiso   1.00
C474   C     0.99876   0.61560   0.06462   0.00000  Uiso   1.00
C475   C     0.97494   0.84333   0.21570   0.00000  Uiso   1.00
C476   C     0.97611   0.89605   0.22143   0.00000  Uiso   1.00
C477   C     0.52017   0.71051   0.26504   0.00000  Uiso   1.00
C478   C     0.78609   0.89738   0.18599   0.00000  Uiso   1.00
C479   C     0.97362   0.70225   0.28072   0.00000  Uiso   1.00
C480   C     0.59198   0.86497   0.15922   0.00000  Uiso   1.00
C481   C     0.60979   0.86077   0.21379   0.00000  Uiso   1.00
C482   C     0.88967   0.63739   0.18617   0.00000  Uiso   1.00
C483   C     0.93113   0.60515   0.19274   0.00000  Uiso   1.00
C484   C     0.88543   0.85090   0.09953   0.00000  Uiso   1.00
C485   C     0.84138   0.84645   0.06913   0.00000  Uiso   1.00
C486   C     0.62113   0.64310   0.21195   0.00000  Uiso   1.00
C487   C     0.65620   0.61667   0.24552   0.00000  Uiso   1.00
C488   C     0.71830   0.51388   0.05503   0.00000  Uiso   1.00
C489   C     0.77255   0.60064   0.20432   0.00000  Uiso   1.00
C490   C     0.68433   0.50185   0.01296   0.00000  Uiso   1.00
C491   C     0.83998   0.97806   0.12871   0.00000  Uiso   1.00
C492   C     0.88780   0.99274   0.12936   0.00000  Uiso   1.00
C493   C     0.77716   0.50789   0.27659   0.00000  Uiso   1.00
C494   C     0.80987   0.98645   0.31670   0.00000  Uiso   1.00
C495   C     0.65486   0.97952   0.19744   0.00000  Uiso   1.00
C496   C     0.60870   0.50304   0.19295   0.00000  Uiso   1.00
C497   C     0.71472   0.89955   0.14458   0.00000  Uiso   1.00
C498   C     0.72484   0.55412   0.12848   0.00000  Uiso   1.00
C499   C     0.78899   0.94583   0.17555   0.00000  Uiso   1.00
C500   C     0.77277   0.55098   0.20452   0.00000  Uiso   1.00
H501   H     0.68169   0.66236   0.09793   0.00000  Uiso   1.00
H502   H     0.50425   0.68974   0.06621   0.00000  Uiso   1.00
H503   H     0.94763   0.66993   0.05690   0.00000  Uiso   1.00
H504   H     0.97536   0.58864   0.07449   0.00000  Uiso   1.00
H505   H     0.50312   0.61385   0.02403   0.00000  Uiso   1.00
H506   H     0.53148   0.60831   0.08523   0.00000  Uiso   1.00
H507   H     0.50609   0.82730   0.23374   0.00000  Uiso   1.00
H508   H     0.94589   0.83162   0.23537   0.00000  Uiso   1.00
H509   H     0.94464   0.91260   0.20495   0.00000  Uiso   1.00
H510   H     0.97982   0.90503   0.26156   0.00000  Uiso   1.00
H511   H     0.50439   0.91004   0.20262   0.00000  Uiso   1.00
H512   H     0.81398   0.84055   0.23707   0.00000  Uiso   1.00
H513   H     0.52452   0.74902   0.26453   0.00000  Uiso   1.00
H514   H     0.54481   0.69487   0.29353   0.00000  Uiso   1.00
H515   H     0.96885   0.66431   0.28517   0.00000  Uiso   1.00
H516   H     0.96856   0.71959   0.31667   0.00000  Uiso   1.00
H517   H     0.94846   0.71700   0.25237   0.00000  Uiso   1.00
H518   H     0.55514   0.86706   0.15690   0.00000  Uiso   1.00
H519   H     0.60192   0.89892   0.14471   0.00000  Uiso   1.00
H520   H     0.59730   0.89121   0.23484   0.00000  Uiso   1.00
H521   H     0.59809   0.82874   0.23122   0.00000  Uiso   1.00
H522   H     0.64666   0.85993   0.21653   0.00000  Uiso   1.00
H523   H     0.81193   0.65808   0.23804   0.00000  Uiso   1.00
H524   H     0.86107   0.61434   0.18365   0.00000  Uiso   1.00
H525   H     0.88682   0.65965   0.21978   0.00000  Uiso   1.00
H526   H     0.96027   0.62482   0.20651   0.00000  Uiso   1.00
H527   H     0.92604   0.57780   0.22091   0.00000  Uiso   1.00
H528   H     0.93794   0.58806   0.15699   0.00000  Uiso   1.00
H529   H     0.91239   0.83433   0.07841   0.00000  Uiso   1.00
H530   H     0.89284   0.88836   0.10258   0.00000  Uiso   1.00
H531   H     0.84294   0.86363   0.03226   0.00000  Uiso   1.00
H532   H     0.83460   0.80901   0.06327   0.00000  Uiso   1.00
H533   H     0.81395   0.86340   0.08874   0.00000  Uiso   1.00
H534   H     0.68734   0.84203   0.09778   0.00000  Uiso   1.00
H535   H     0.63103   0.64055   0.17287   0.00000  Uiso   1.00
H536   H     0.58883   0.62621   0.21464   0.00000  Uiso   1.00
H537   H     0.64522   0.61467   0.28399   0.00000  Uiso   1.00
H538   H     0.66163   0.58092   0.23131   0.00000  Uiso   1.00
H539   H     0.68812   0.63473   0.24632   0.00000  Uiso   1.00
H540   H     0.73647   0.98114   0.06762   0.00000  Uiso   1.00
H541   H     0.74243   0.53816   0.04085   0.00000  Uiso   1.00
H542   H     0.67133   0.53416   0.32659   0.00000  Uiso   1.00
H543   H     0.69968   0.97809   0.31940   0.00000  Uiso   1.00
H544   H     0.65614   0.98395   0.02806   0.00000  Uiso   1.00
H545   H     0.97978   0.76858   0.05659   0.00000  Uiso   1.00
H546   H     0.81840   0.50810   0.11435   0.00000  Uiso   1.00
H547   H     0.83576   0.94834   0.10250   0.00000  Uiso   1.00
H548   H     0.91084   0.96296   0.14072   0.00000  Uiso   1.00
H549   H     0.89524   0.50488   0.09170   0.00000  Uiso   1.00
H550   H     0.89283   0.52153   0.15622   0.00000  Uiso   1.00
H551   H     0.75576   0.97984   0.26181   0.00000  Uiso   1.00
H552   H     0.75597   0.53530   0.29331   0.00000  Uiso   1.00
H553   H     0.82842   0.51431   0.00321   0.00000  Uiso   1.00
H554   H     0.79198   0.96651   0.01054   0.00000  Uiso   1.00
H555   H     0.83383   0.96206   0.29960   0.00000  Uiso   1.00
H556   H     0.53599   0.76502   0.03575   0.00000  Uiso   1.00
H557   H     0.67775   0.50319   0.21811   0.00000  Uiso   1.00
H558   H     0.65353   0.94680   0.21951   0.00000  Uiso   1.00
H559   H     0.58454   0.97939   0.17437   0.00000  Uiso   1.00
H560   H     0.59797   0.51164   0.23060   0.00000  Uiso   1.00
H561   H     0.60913   0.53576   0.17076   0.00000  Uiso   1.00
H562   H     0.52534   0.84166   0.33044   0.00000  Uiso   1.00
H563   H     0.97797   0.80720   0.31189   0.00000  Uiso   1.00
H564   H     0.97283   0.85193   0.02473   0.00000  Uiso   1.00
N565   N     0.75000   0.62624   0.16667   0.00000  Uiso   1.00
N566   N     0.75000   0.87377   0.16667   0.00000  Uiso   1.00
O567   O     0.68453   0.78974   0.16667   0.00000  Uiso   1.00
O568   O     0.85605   0.89095   0.23101   0.00000  Uiso   1.00
O569   O     0.80272   0.60877   0.28705   0.00000  Uiso   1.00
O570   O     0.65887   0.90302   0.07913   0.00000  Uiso   1.00
O571   O     0.52441   0.81179   0.09364   0.00000  Uiso   1.00
O572   O     0.97697   0.66596   0.12973   0.00000  Uiso   1.00
O573   O     0.97251   0.83192   0.16467   0.00000  Uiso   1.00
O574   O     0.52576   0.68841   0.21883   0.00000  Uiso   1.00
O575   O     0.60931   0.82884   0.12913   0.00000  Uiso   1.00
O576   O     0.88741   0.66339   0.14113   0.00000  Uiso   1.00
O577   O     0.88247   0.83286   0.14832   0.00000  Uiso   1.00
O578   O     0.81547   0.71026   0.16666   0.00000  Uiso   1.00
O579   O     0.61842   0.68980   0.22818   0.00000  Uiso   1.00
O580   O     0.69539   0.53407   0.09393   0.00000  Uiso   1.00
O581   O     0.83018   0.96561   0.17756   0.00000  Uiso   1.00
O582   O     0.80134   0.52704   0.23906   0.00000  Uiso   1.00
O583   O     0.66871   0.97004   0.14934   0.00000  Uiso   1.00
O584   O     0.81547   0.78974   0.16666   0.00000  Uiso   1.00
O585   O     0.68453   0.71026   0.16667   0.00000  Uiso   1.00
O586   O     0.75000   0.78973   0.09511   0.00000  Uiso   1.00
O587   O     0.75000   0.71027   0.23822   0.00000  Uiso   1.00
O588   O     0.75000   0.78973   0.23822   0.00000  Uiso   1.00
O589   O     0.75000   0.71027   0.09511   0.00000  Uiso   1.00
O590   O     0.69881   0.61805   0.04642   0.00000  Uiso   1.00
Zn591  Zn    0.75000   0.80307   0.16667   0.00000  Uiso   1.00
Zn592  Zn    0.75000   0.69693   0.16667   0.00000  Uiso   1.00
C593   C     0.16401   0.25082   0.50137   0.00000  Uiso   1.00
C594   C     0.21037   0.44804   0.48748   0.00000  Uiso   1.00
C595   C     0.24975   0.25007   0.40624   0.00000  Uiso   1.00
C596   C     0.25021   0.24993   0.59375   0.00000  Uiso   1.00
C597   C     0.24870   0.02667   0.49950   0.00000  Uiso   1.00
C598   C     0.24925   0.47323   0.49859   0.00000  Uiso   1.00
C599   C     0.24990   0.25008   0.35509   0.00000  Uiso   1.00
C600   C     0.25006   0.24990   0.64491   0.00000  Uiso   1.00
C601   C     0.04641   0.28025   0.46012   0.00000  Uiso   1.00
C602   C     0.45360   0.20656   0.47444   0.00000  Uiso   1.00
C603   C     0.45175   0.28995   0.49131   0.00000  Uiso   1.00
C604   C     0.33603   0.24916   0.49689   0.00000  Uiso   1.00
C605   C     0.04803   0.21720   0.52176   0.00000  Uiso   1.00
C606   C     0.09075   0.28717   0.47396   0.00000  Uiso   1.00
C607   C     0.40821   0.20526   0.48169   0.00000  Uiso   1.00
C608   C     0.40569   0.29033   0.48672   0.00000  Uiso   1.00
C609   C     0.09447   0.21718   0.52584   0.00000  Uiso   1.00
C610   C     0.11583   0.25215   0.50092   0.00000  Uiso   1.00
C611   C     0.38380   0.24782   0.48895   0.00000  Uiso   1.00
C612   C     0.02418   0.24716   0.48690   0.00000  Uiso   1.00
C613   C     0.47582   0.24800   0.48402   0.00000  Uiso   1.00
C614   C     0.19999   0.13074   0.42304   0.00000  Uiso   1.00
C615   C     0.22601   0.10360   0.46275   0.00000  Uiso   1.00
C616   C     0.32053   0.37343   0.55320   0.00000  Uiso   1.00
C617   C     0.29760   0.12508   0.57833   0.00000  Uiso   1.00
C618   C     0.18500   0.37872   0.43894   0.00000  Uiso   1.00
C619   C     0.00953   0.28864   0.38330   0.00000  Uiso   1.00
C620   C     0.49566   0.32480   0.34343   0.00000  Uiso   1.00
C621   C     0.48054   0.16383   0.41119   0.00000  Uiso   1.00
C622   C     0.49876   0.11560   0.39795   0.00000  Uiso   1.00
C623   C     0.47494   0.34333   0.54903   0.00000  Uiso   1.00
C624   C     0.47611   0.39605   0.55477   0.00000  Uiso   1.00
C625   C     0.02017   0.21051   0.59838   0.00000  Uiso   1.00
C626   C     0.28609   0.39738   0.51933   0.00000  Uiso   1.00
C627   C     0.47362   0.20225   0.61406   0.00000  Uiso   1.00
C628   C     0.09198   0.36497   0.49256   0.00000  Uiso   1.00
C629   C     0.10979   0.36077   0.54712   0.00000  Uiso   1.00
C630   C     0.38967   0.13739   0.51950   0.00000  Uiso   1.00
C631   C     0.43113   0.10515   0.52607   0.00000  Uiso   1.00
C632   C     0.38543   0.35090   0.43286   0.00000  Uiso   1.00
C633   C     0.34138   0.34645   0.40246   0.00000  Uiso   1.00
C634   C     0.12113   0.14310   0.54529   0.00000  Uiso   1.00
C635   C     0.15620   0.11667   0.57885   0.00000  Uiso   1.00
C636   C     0.21830   0.01388   0.38836   0.00000  Uiso   1.00
C637   C     0.27255   0.10064   0.53765   0.00000  Uiso   1.00
C638   C     0.18433   0.00185   0.34629   0.00000  Uiso   1.00
C639   C     0.33998   0.47806   0.46204   0.00000  Uiso   1.00
C640   C     0.38780   0.49274   0.46270   0.00000  Uiso   1.00
C641   C     0.27716   0.00789   0.60992   0.00000  Uiso   1.00
C642   C     0.30987   0.48645   0.65003   0.00000  Uiso   1.00
C643   C     0.15486   0.47952   0.53078   0.00000  Uiso   1.00
C644   C     0.10870   0.00304   0.52629   0.00000  Uiso   1.00
C645   C     0.21472   0.39955   0.47791   0.00000  Uiso   1.00
C646   C     0.22484   0.05412   0.46181   0.00000  Uiso   1.00
C647   C     0.28899   0.44583   0.50888   0.00000  Uiso   1.00
C648   C     0.27277   0.05098   0.53785   0.00000  Uiso   1.00
H649   H     0.18169   0.16236   0.43126   0.00000  Uiso   1.00
H650   H     0.00425   0.18974   0.39954   0.00000  Uiso   1.00
H651   H     0.44763   0.16993   0.39023   0.00000  Uiso   1.00
H652   H     0.47536   0.08864   0.40783   0.00000  Uiso   1.00
H653   H     0.00312   0.11385   0.35737   0.00000  Uiso   1.00
H654   H     0.03148   0.10831   0.41856   0.00000  Uiso   1.00
H655   H     0.00609   0.32730   0.56707   0.00000  Uiso   1.00
H656   H     0.44589   0.33162   0.56870   0.00000  Uiso   1.00
H657   H     0.44464   0.41260   0.53828   0.00000  Uiso   1.00
H658   H     0.47982   0.40503   0.59489   0.00000  Uiso   1.00
H659   H     0.00439   0.41004   0.53596   0.00000  Uiso   1.00
H660   H     0.31398   0.34055   0.57040   0.00000  Uiso   1.00
H661   H     0.02452   0.24902   0.59786   0.00000  Uiso   1.00
H662   H     0.04481   0.19487   0.62687   0.00000  Uiso   1.00
H663   H     0.46885   0.16431   0.61850   0.00000  Uiso   1.00
H664   H     0.46856   0.21959   0.65000   0.00000  Uiso   1.00
H665   H     0.44846   0.21700   0.58570   0.00000  Uiso   1.00
H666   H     0.05514   0.36706   0.49023   0.00000  Uiso   1.00
H667   H     0.10192   0.39892   0.47804   0.00000  Uiso   1.00
H668   H     0.09730   0.39121   0.56817   0.00000  Uiso   1.00
H669   H     0.09809   0.32874   0.56455   0.00000  Uiso   1.00
H670   H     0.14666   0.35993   0.54986   0.00000  Uiso   1.00
H671   H     0.31193   0.15808   0.57137   0.00000  Uiso   1.00
H672   H     0.36107   0.11434   0.51698   0.00000  Uiso   1.00
H673   H     0.38682   0.15965   0.55311   0.00000  Uiso   1.00
H674   H     0.46027   0.12482   0.53985   0.00000  Uiso   1.00
H675   H     0.42604   0.07780   0.55424   0.00000  Uiso   1.00
H676   H     0.43794   0.08806   0.49033   0.00000  Uiso   1.00
H677   H     0.41239   0.33433   0.41174   0.00000  Uiso   1.00
H678   H     0.39284   0.38836   0.43591   0.00000  Uiso   1.00
H679   H     0.34294   0.36363   0.36559   0.00000  Uiso   1.00
H680   H     0.33460   0.30901   0.39660   0.00000  Uiso   1.00
H681   H     0.31395   0.36340   0.42207   0.00000  Uiso   1.00
H682   H     0.18734   0.34203   0.43111   0.00000  Uiso   1.00
H683   H     0.13103   0.14055   0.50620   0.00000  Uiso   1.00
H684   H     0.08883   0.12621   0.54798   0.00000  Uiso   1.00
H685   H     0.14522   0.11467   0.61732   0.00000  Uiso   1.00
H686   H     0.16163   0.08092   0.56464   0.00000  Uiso   1.00
H687   H     0.18812   0.13473   0.57965   0.00000  Uiso   1.00
H688   H     0.23647   0.48114   0.40096   0.00000  Uiso   1.00
H689   H     0.24243   0.03816   0.37418   0.00000  Uiso   1.00
H690   H     0.17133   0.03416   0.65992   0.00000  Uiso   1.00
H691   H     0.19968   0.47809   0.65274   0.00000  Uiso   1.00
H692   H     0.15614   0.48395   0.36139   0.00000  Uiso   1.00
H693   H     0.47978   0.26858   0.38993   0.00000  Uiso   1.00
H694   H     0.31840   0.00810   0.44769   0.00000  Uiso   1.00
H695   H     0.33576   0.44834   0.43583   0.00000  Uiso   1.00
H696   H     0.41084   0.46296   0.47405   0.00000  Uiso   1.00
H697   H     0.39524   0.00488   0.42504   0.00000  Uiso   1.00
H698   H     0.39283   0.02153   0.48955   0.00000  Uiso   1.00
H699   H     0.25576   0.47984   0.59514   0.00000  Uiso   1.00
H700   H     0.25597   0.03530   0.62665   0.00000  Uiso   1.00
H701   H     0.32842   0.01431   0.33654   0.00000  Uiso   1.00
H702   H     0.29198   0.46651   0.34388   0.00000  Uiso   1.00
H703   H     0.33383   0.46206   0.63293   0.00000  Uiso   1.00
H704   H     0.03599   0.26502   0.36908   0.00000  Uiso   1.00
H705   H     0.17775   0.00319   0.55145   0.00000  Uiso   1.00
H706   H     0.15353   0.44680   0.55284   0.00000  Uiso   1.00
H707   H     0.08454   0.47939   0.50771   0.00000  Uiso   1.00
H708   H     0.09797   0.01164   0.56393   0.00000  Uiso   1.00
H709   H     0.10913   0.03576   0.50409   0.00000  Uiso   1.00
H710   H     0.02534   0.34166   0.66377   0.00000  Uiso   1.00
H711   H     0.47797   0.30720   0.64522   0.00000  Uiso   1.00
H712   H     0.47283   0.35193   0.35806   0.00000  Uiso   1.00
N713   N     0.25000   0.12624   0.50000   0.00000  Uiso   1.00
N714   N     0.25000   0.37377   0.50000   0.00000  Uiso   1.00
O715   O     0.18453   0.28974   0.50000   0.00000  Uiso   1.00
O716   O     0.35605   0.39095   0.56434   0.00000  Uiso   1.00
O717   O     0.30272   0.10877   0.62038   0.00000  Uiso   1.00
O718   O     0.15887   0.40302   0.41246   0.00000  Uiso   1.00
O719   O     0.02441   0.31179   0.42697   0.00000  Uiso   1.00
O720   O     0.47697   0.16596   0.46306   0.00000  Uiso   1.00
O721   O     0.47251   0.33192   0.49801   0.00000  Uiso   1.00
O722   O     0.02576   0.18841   0.55216   0.00000  Uiso   1.00
O723   O     0.10931   0.32884   0.46246   0.00000  Uiso   1.00
O724   O     0.38741   0.16339   0.47446   0.00000  Uiso   1.00
O725   O     0.38247   0.33286   0.48166   0.00000  Uiso   1.00
O726   O     0.31547   0.21026   0.50000   0.00000  Uiso   1.00
O727   O     0.11842   0.18980   0.56151   0.00000  Uiso   1.00
O728   O     0.19539   0.03407   0.42726   0.00000  Uiso   1.00
O729   O     0.33018   0.46561   0.51089   0.00000  Uiso   1.00
O730   O     0.30134   0.02704   0.57239   0.00000  Uiso   1.00
O731   O     0.16871   0.47004   0.48268   0.00000  Uiso   1.00
O732   O     0.31547   0.28974   0.50000   0.00000  Uiso   1.00
O733   O     0.18453   0.21026   0.50000   0.00000  Uiso   1.00
O734   O     0.25000   0.28973   0.42845   0.00000  Uiso   1.00
O735   O     0.25000   0.21027   0.57155   0.00000  Uiso   1.00
O736   O     0.25000   0.28973   0.57155   0.00000  Uiso   1.00
O737   O     0.25000   0.21027   0.42845   0.00000  Uiso   1.00
O738   O     0.19881   0.11805   0.37976   0.00000  Uiso   1.00
Zn739  Zn    0.25000   0.30307   0.50000   0.00000  Uiso   1.00
Zn740  Zn    0.25000   0.19693   0.50000   0.00000  Uiso   1.00
C741   C     0.66401   0.25082   0.50137   0.00000  Uiso   1.00
C742   C     0.71037   0.44804   0.48748   0.00000  Uiso   1.00
C743   C     0.74975   0.25007   0.40624   0.00000  Uiso   1.00
C744   C     0.75021   0.24993   0.59375   0.00000  Uiso   1.00
C745   C     0.74870   0.02667   0.49950   0.00000  Uiso   1.00
C746   C     0.74925   0.47323   0.49859   0.00000  Uiso   1.00
C747   C     0.74990   0.25008   0.35509   0.00000  Uiso   1.00
C748   C     0.75006   0.24990   0.64491   0.00000  Uiso   1.00
C749   C     0.54641   0.28025   0.46012   0.00000  Uiso   1.00
C750   C     0.95360   0.20656   0.47444   0.00000  Uiso   1.00
C751   C     0.95175   0.28995   0.49131   0.00000  Uiso   1.00
C752   C     0.83603   0.24916   0.49689   0.00000  Uiso   1.00
C753   C     0.54803   0.21720   0.52176   0.00000  Uiso   1.00
C754   C     0.59075   0.28717   0.47396   0.00000  Uiso   1.00
C755   C     0.90821   0.20526   0.48169   0.00000  Uiso   1.00
C756   C     0.90569   0.29033   0.48672   0.00000  Uiso   1.00
C757   C     0.59447   0.21718   0.52584   0.00000  Uiso   1.00
C758   C     0.61583   0.25215   0.50092   0.00000  Uiso   1.00
C759   C     0.88380   0.24782   0.48895   0.00000  Uiso   1.00
C760   C     0.52418   0.24716   0.48690   0.00000  Uiso   1.00
C761   C     0.97582   0.24800   0.48402   0.00000  Uiso   1.00
C762   C     0.69999   0.13074   0.42304   0.00000  Uiso   1.00
C763   C     0.72601   0.10360   0.46275   0.00000  Uiso   1.00
C764   C     0.82053   0.37343   0.55320   0.00000  Uiso   1.00
C765   C     0.79760   0.12508   0.57833   0.00000  Uiso   1.00
C766   C     0.68500   0.37872   0.43894   0.00000  Uiso   1.00
C767   C     0.50953   0.28864   0.38330   0.00000  Uiso   1.00
C768   C     0.99566   0.32480   0.34343   0.00000  Uiso   1.00
C769   C     0.98054   0.16383   0.41119   0.00000  Uiso   1.00
C770   C     0.99876   0.11560   0.39795   0.00000  Uiso   1.00
C771   C     0.97494   0.34333   0.54903   0.00000  Uiso   1.00
C772   C     0.97611   0.39605   0.55477   0.00000  Uiso   1.00
C773   C     0.52017   0.21051   0.59838   0.00000  Uiso   1.00
C774   C     0.78609   0.39738   0.51933   0.00000  Uiso   1.00
C775   C     0.97362   0.20225   0.61406   0.00000  Uiso   1.00
C776   C     0.59198   0.36497   0.49256   0.00000  Uiso   1.00
C777   C     0.60979   0.36077   0.54712   0.00000  Uiso   1.00
C778   C     0.88967   0.13739   0.51950   0.00000  Uiso   1.00
C779   C     0.93113   0.10515   0.52607   0.00000  Uiso   1.00
C780   C     0.88543   0.35090   0.43286   0.00000  Uiso   1.00
C781   C     0.84138   0.34645   0.40246   0.00000  Uiso   1.00
C782   C     0.62113   0.14310   0.54529   0.00000  Uiso   1.00
C783   C     0.65620   0.11667   0.57885   0.00000  Uiso   1.00
C784   C     0.71830   0.01388   0.38836   0.00000  Uiso   1.00
C785   C     0.77255   0.10064   0.53765   0.00000  Uiso   1.00
C786   C     0.68433   0.00185   0.34629   0.00000  Uiso   1.00
C787   C     0.83998   0.47806   0.46204   0.00000  Uiso   1.00
C788   C     0.88780   0.49274   0.46270   0.00000  Uiso   1.00
C789   C     0.77716   0.00789   0.60992   0.00000  Uiso   1.00
C790   C     0.80987   0.48645   0.65003   0.00000  Uiso   1.00
C791   C     0.65486   0.47952   0.53078   0.00000  Uiso   1.00
C792   C     0.60870   0.00304   0.52629   0.00000  Uiso   1.00
C793   C     0.71472   0.39955   0.47791   0.00000  Uiso   1.00
C794   C     0.72484   0.05412   0.46181   0.00000  Uiso   1.00
C795   C     0.78899   0.44583   0.50888   0.00000  Uiso   1.00
C796   C     0.77277   0.05098   0.53785   0.00000  Uiso   1.00
H797   H     0.68169   0.16236   0.43126   0.00000  Uiso   1.00
H798   H     0.50425   0.18974   0.39954   0.00000  Uiso   1.00
H799   H     0.94763   0.16993   0.39023   0.00000  Uiso   1.00
H800   H     0.97536   0.08864   0.40783   0.00000  Uiso   1.00
H801   H     0.50312   0.11385   0.35737   0.00000  Uiso   1.00
H802   H     0.53148   0.10831   0.41856   0.00000  Uiso   1.00
H803   H     0.50609   0.32730   0.56707   0.00000  Uiso   1.00
H804   H     0.94589   0.33162   0.56870   0.00000  Uiso   1.00
H805   H     0.94464   0.41260   0.53828   0.00000  Uiso   1.00
H806   H     0.97982   0.40503   0.59489   0.00000  Uiso   1.00
H807   H     0.50439   0.41004   0.53596   0.00000  Uiso   1.00
H808   H     0.81398   0.34055   0.57040   0.00000  Uiso   1.00
H809   H     0.52452   0.24902   0.59786   0.00000  Uiso   1.00
H810   H     0.54481   0.19487   0.62687   0.00000  Uiso   1.00
H811   H     0.96885   0.16431   0.61850   0.00000  Uiso   1.00
H812   H     0.96856   0.21959   0.65000   0.00000  Uiso   1.00
H813   H     0.94846   0.21700   0.58570   0.00000  Uiso   1.00
H814   H     0.55514   0.36706   0.49023   0.00000  Uiso   1.00
H815   H     0.60192   0.39892   0.47804   0.00000  Uiso   1.00
H816   H     0.59730   0.39121   0.56817   0.00000  Uiso   1.00
H817   H     0.59809   0.32874   0.56455   0.00000  Uiso   1.00
H818   H     0.64666   0.35993   0.54986   0.00000  Uiso   1.00
H819   H     0.81193   0.15808   0.57137   0.00000  Uiso   1.00
H820   H     0.86107   0.11434   0.51698   0.00000  Uiso   1.00
H821   H     0.88682   0.15965   0.55311   0.00000  Uiso   1.00
H822   H     0.96027   0.12482   0.53985   0.00000  Uiso   1.00
H823   H     0.92604   0.07780   0.55424   0.00000  Uiso   1.00
H824   H     0.93794   0.08806   0.49033   0.00000  Uiso   1.00
H825   H     0.91239   0.33433   0.41174   0.00000  Uiso   1.00
H826   H     0.89284   0.38836   0.43591   0.00000  Uiso   1.00
H827   H     0.84294   0.36363   0.36559   0.00000  Uiso   1.00
H828   H     0.83460   0.30901   0.39660   0.00000  Uiso   1.00
H829   H     0.81395   0.36340   0.42207   0.00000  Uiso   1.00
H830   H     0.68734   0.34203   0.43111   0.00000  Uiso   1.00
H831   H     0.63103   0.14055   0.50620   0.00000  Uiso   1.00
H832   H     0.58883   0.12621   0.54798   0.00000  Uiso   1.00
H833   H     0.64522   0.11467   0.61732   0.00000  Uiso   1.00
H834   H     0.66163   0.08092   0.56464   0.00000  Uiso   1.00
H835   H     0.68812   0.13473   0.57965   0.00000  Uiso   1.00
H836   H     0.73647   0.48114   0.40096   0.00000  Uiso   1.00
H837   H     0.74243   0.03816   0.37418   0.00000  Uiso   1.00
H838   H     0.67133   0.03416   0.65992   0.00000  Uiso   1.00
H839   H     0.69968   0.47809   0.65274   0.00000  Uiso   1.00
H840   H     0.65614   0.48395   0.36139   0.00000  Uiso   1.00
H841   H     0.97978   0.26858   0.38993   0.00000  Uiso   1.00
H842   H     0.81840   0.00810   0.44769   0.00000  Uiso   1.00
H843   H     0.83576   0.44834   0.43583   0.00000  Uiso   1.00
H844   H     0.91084   0.46296   0.47405   0.00000  Uiso   1.00
H845   H     0.89524   0.00488   0.42504   0.00000  Uiso   1.00
H846   H     0.89283   0.02153   0.48955   0.00000  Uiso   1.00
H847   H     0.75576   0.47984   0.59514   0.00000  Uiso   1.00
H848   H     0.75597   0.03530   0.62665   0.00000  Uiso   1.00
H849   H     0.82842   0.01431   0.33654   0.00000  Uiso   1.00
H850   H     0.79198   0.46651   0.34388   0.00000  Uiso   1.00
H851   H     0.83383   0.46206   0.63293   0.00000  Uiso   1.00
H852   H     0.53599   0.26502   0.36908   0.00000  Uiso   1.00
H853   H     0.67775   0.00319   0.55145   0.00000  Uiso   1.00
H854   H     0.65353   0.44680   0.55284   0.00000  Uiso   1.00
H855   H     0.58454   0.47939   0.50771   0.00000  Uiso   1.00
H856   H     0.59797   0.01164   0.56393   0.00000  Uiso   1.00
H857   H     0.60913   0.03576   0.50409   0.00000  Uiso   1.00
H858   H     0.52534   0.34166   0.66377   0.00000  Uiso   1.00
H859   H     0.97797   0.30720   0.64522   0.00000  Uiso   1.00
H860   H     0.97283   0.35193   0.35806   0.00000  Uiso   1.00
N861   N     0.75000   0.12624   0.50000   0.00000  Uiso   1.00
N862   N     0.75000   0.37377   0.50000   0.00000  Uiso   1.00
O863   O     0.68453   0.28974   0.50000   0.00000  Uiso   1.00
O864   O     0.85605   0.39095   0.56434   0.00000  Uiso   1.00
O865   O     0.80272   0.10877   0.62038   0.00000  Uiso   1.00
O866   O     0.65887   0.40302   0.41246   0.00000  Uiso   1.00
O867   O     0.52441   0.31179   0.42697   0.00000  Uiso   1.00
O868   O     0.97697   0.16596   0.46306   0.00000  Uiso   1.00
O869   O     0.97251   0.33192   0.49801   0.00000  Uiso   1.00
O870   O     0.52576   0.18841   0.55216   0.00000  Uiso   1.00
O871   O     0.60931   0.32884   0.46246   0.00000  Uiso   1.00
O872   O     0.88741   0.16339   0.47446   0.00000  Uiso   1.00
O873   O     0.88247   0.33286   0.48166   0.00000  Uiso   1.00
O874   O     0.81547   0.21026   0.50000   0.00000  Uiso   1.00
O875   O     0.61842   0.18980   0.56151   0.00000  Uiso   1.00
O876   O     0.69539   0.03407   0.42726   0.00000  Uiso   1.00
O877   O     0.83018   0.46561   0.51089   0.00000  Uiso   1.00
O878   O     0.80134   0.02704   0.57239   0.00000  Uiso   1.00
O879   O     0.66871   0.47004   0.48268   0.00000  Uiso   1.00
O880   O     0.81547   0.28974   0.50000   0.00000  Uiso   1.00
O881   O     0.68453   0.21026   0.50000   0.00000  Uiso   1.00
O882   O     0.75000   0.28973   0.42845   0.00000  Uiso   1.00
O883   O     0.75000   0.21027   0.57155   0.00000  Uiso   1.00
O884   O     0.75000   0.28973   0.57155   0.00000  Uiso   1.00
O885   O     0.75000   0.21027   0.42845   0.00000  Uiso   1.00
O886   O     0.69881   0.11805   0.37976   0.00000  Uiso   1.00
Zn887  Zn    0.75000   0.30307   0.50000   0.00000  Uiso   1.00
Zn888  Zn    0.75000   0.19693   0.50000   0.00000  Uiso   1.00
C889   C     0.16401   0.75082   0.50137   0.00000  Uiso   1.00
C890   C     0.21037   0.94804   0.48748   0.00000  Uiso   1.00
C891   C     0.24975   0.75007   0.40624   0.00000  Uiso   1.00
C892   C     0.25021   0.74993   0.59375   0.00000  Uiso   1.00
C893   C     0.24870   0.52667   0.49950   0.00000  Uiso   1.00
C894   C     0.24925   0.97323   0.49859   0.00000  Uiso   1.00
C895   C     0.24990   0.75008   0.35509   0.00000  Uiso   1.00
C896   C     0.25006   0.74990   0.64491   0.00000  Uiso   1.00
C897   C     0.04641   0.78025   0.46012   0.00000  Uiso   1.00
C898   C     0.45360   0.70656   0.47444   0.00000  Uiso   1.00
C899   C     0.45175   0.78995   0.49131   0.00000  Uiso   1.00
C900   C     0.33603   0.74916   0.49689   0.00000  Uiso   1.00
C901   C     0.04803   0.71720   0.52176   0.00000  Uiso   1.00
C902   C     0.09075   0.78717   0.47396   0.00000  Uiso   1.00
C903   C     0.40821   0.70526   0.48169   0.00000  Uiso   1.00
C904   C     0.40569   0.79033   0.48672   0.00000  Uiso   1.00
C905   C     0.09447   0.71718   0.52584   0.00000  Uiso   1.00
C906   C     0.11583   0.75215   0.50092   0.00000  Uiso   1.00
C907   C     0.38380   0.74782   0.48895   0.00000  Uiso   1.00
C908   C     0.02418   0.74716   0.48690   0.00000  Uiso   1.00
C909   C     0.47582   0.74800   0.48402   0.00000  Uiso   1.00
C910   C     0.19999   0.63074   0.42304   0.00000  Uiso   1.00
C911   C     0.22601   0.60360   0.46275   0.00000  Uiso   1.00
C912   C     0.32053   0.87343   0.55320   0.00000  Uiso   1.00
C913   C     0.29760   0.62508   0.57833   0.00000  Uiso   1.00
C914   C     0.18500   0.87872   0.43894   0.00000  Uiso   1.00
C915   C     0.00953   0.78864   0.38330   0.00000  Uiso   1.00
C916   C     0.49566   0.82480   0.34343   0.00000  Uiso   1.00
C917   C     0.48054   0.66383   0.41119   0.00000  Uiso   1.00
C918   C     0.49876   0.61560   0.39795   0.00000  Uiso   1.00
C919   C     0.47494   0.84333   0.54903   0.00000  Uiso   1.00
C920   C     0.47611   0.89605   0.55477   0.00000  Uiso   1.00
C921   C     0.02017   0.71051   0.59838   0.00000  Uiso   1.00
C922   C     0.28609   0.89738   0.51933   0.00000  Uiso   1.00
C923   C     0.47362   0.70225   0.61406   0.00000  Uiso   1.00
C924   C     0.09198   0.86497   0.49256   0.00000  Uiso   1.00
C925   C     0.10979   0.86077   0.54712   0.00000  Uiso   1.00
C926   C     0.38967   0.63739   0.51950   0.00000  Uiso   1.00
C927   C     0.43113   0.60515   0.52607   0.00000  Uiso   1.00
C928   C     0.38543   0.85090   0.43286   0.00000  Uiso   1.00
C929   C     0.34138   0.84645   0.40246   0.00000  Uiso   1.00
C930   C     0.12113   0.64310   0.54529   0.00000  Uiso   1.00
C931   C     0.15620   0.61667   0.57885   0.00000  Uiso   1.00
C932   C     0.21830   0.51388   0.38836   0.00000  Uiso   1.00
C933   C     0.27255   0.60064   0.53765   0.00000  Uiso   1.00
C934   C     0.18433   0.50185   0.34629   0.00000  Uiso   1.00
C935   C     0.33998   0.97806   0.46204   0.00000  Uiso   1.00
C936   C     0.38780   0.99274   0.46270   0.00000  Uiso   1.00
C937   C     0.27716   0.50789   0.60992   0.00000  Uiso   1.00
C938   C     0.30987   0.98645   0.65003   0.00000  Uiso   1.00
C939   C     0.15486   0.97952   0.53078   0.00000  Uiso   1.00
C940   C     0.10870   0.50304   0.52629   0.00000  Uiso   1.00
C941   C     0.21472   0.89955   0.47791   0.00000  Uiso   1.00
C942   C     0.22484   0.55412   0.46181   0.00000  Uiso   1.00
C943   C     0.28899   0.94583   0.50888   0.00000  Uiso   1.00
C944   C     0.27277   0.55098   0.53785   0.00000  Uiso   1.00
H945   H     0.18169   0.66236   0.43126   0.00000  Uiso   1.00
H946   H     0.00425   0.68974   0.39954   0.00000  Uiso   1.00
H947   H     0.44763   0.66993   0.39023   0.00000  Uiso   1.00
H948   H     0.47536   0.58864   0.40783   0.00000  Uiso   1.00
H949   H     0.00312   0.61385   0.35737   0.00000  Uiso   1.00
H950   H     0.03148   0.60831   0.41856   0.00000  Uiso   1.00
H951   H     0.00609   0.82730   0.56707   0.00000  Uiso   1.00
H952   H     0.44589   0.83162   0.56870   0.00000  Uiso   1.00
H953   H     0.44464   0.91260   0.53828   0.00000  Uiso   1.00
H954   H     0.47982   0.90503   0.59489   0.00000  Uiso   1.00
H955   H     0.00439   0.91004   0.53596   0.00000  Uiso   1.00
H956   H     0.31398   0.84055   0.57040   0.00000  Uiso   1.00
H957   H     0.02452   0.74902   0.59786   0.00000  Uiso   1.00
H958   H     0.04481   0.69487   0.62687   0.00000  Uiso   1.00
H959   H     0.46885   0.66431   0.61850   0.00000  Uiso   1.00
H960   H     0.46856   0.71959   0.65000   0.00000  Uiso   1.00
H961   H     0.44846   0.71700   0.58570   0.00000  Uiso   1.00
H962   H     0.05514   0.86706   0.49023   0.00000  Uiso   1.00
H963   H     0.10192   0.89892   0.47804   0.00000  Uiso   1.00
H964   H     0.09730   0.89121   0.56817   0.00000  Uiso   1.00
H965   H     0.09809   0.82874   0.56455   0.00000  Uiso   1.00
H966   H     0.14666   0.85993   0.54986   0.00000  Uiso   1.00
H967   H     0.31193   0.65808   0.57137   0.00000  Uiso   1.00
H968   H     0.36107   0.61434   0.51698   0.00000  Uiso   1.00
H969   H     0.38682   0.65965   0.55311   0.00000  Uiso   1.00
H970   H     0.46027   0.62482   0.53985   0.00000  Uiso   1.00
H971   H     0.42604   0.57780   0.55424   0.00000  Uiso   1.00
H972   H     0.43794   0.58806   0.49033   0.00000  Uiso   1.00
H973   H     0.41239   0.83433   0.41174   0.00000  Uiso   1.00
H974   H     0.39284   0.88836   0.43591   0.00000  Uiso   1.00
H975   H     0.34294   0.86363   0.36559   0.00000  Uiso   1.00
H976   H     0.33460   0.80901   0.39660   0.00000  Uiso   1.00
H977   H     0.31395   0.86340   0.42207   0.00000  Uiso   1.00
H978   H     0.18734   0.84203   0.43111   0.00000  Uiso   1.00
H979   H     0.13103   0.64055   0.50620   0.00000  Uiso   1.00
H980   H     0.08883   0.62621   0.54798   0.00000  Uiso   1.00
H981   H     0.14522   0.61467   0.61732   0.00000  Uiso   1.00
H982   H     0.16163   0.58092   0.56464   0.00000  Uiso   1.00
H983   H     0.18812   0.63473   0.57965   0.00000  Uiso   1.00
H984   H     0.23647   0.98114   0.40096   0.00000  Uiso   1.00
H985   H     0.24243   0.53816   0.37418   0.00000  Uiso   1.00
H986   H     0.17133   0.53416   0.65992   0.00000  Uiso   1.00
H987   H     0.19968   0.97809   0.65274   0.00000  Uiso   1.00
H988   H     0.15614   0.98395   0.36139   0.00000  Uiso   1.00
H989   H     0.47978   0.76858   0.38993   0.00000  Uiso   1.00
H990   H     0.31840   0.50810   0.44769   0.00000  Uiso   1.00
H991   H     0.33576   0.94834   0.43583   0.00000  Uiso   1.00
H992   H     0.41084   0.96296   0.47405   0.00000  Uiso   1.00
H993   H     0.39524   0.50488   0.42504   0.00000  Uiso   1.00
H994   H     0.39283   0.52153   0.48955   0.00000  Uiso   1.00
H995   H     0.25576   0.97984   0.59514   0.00000  Uiso   1.00
H996   H     0.25597   0.53530   0.62665   0.00000  Uiso   1.00
H997   H     0.32842   0.51431   0.33654   0.00000  Uiso   1.00
H998   H     0.29198   0.96651   0.34388   0.00000  Uiso   1.00
H999   H     0.33383   0.96206   0.63293   0.00000  Uiso   1.00
H1000  H     0.03599   0.76502   0.36908   0.00000  Uiso   1.00
H1001  H     0.17775   0.50319   0.55145   0.00000  Uiso   1.00
H1002  H     0.15353   0.94680   0.55284   0.00000  Uiso   1.00
H1003  H     0.08454   0.97939   0.50771   0.00000  Uiso   1.00
H1004  H     0.09797   0.51164   0.56393   0.00000  Uiso   1.00
H1005  H     0.10913   0.53576   0.50409   0.00000  Uiso   1.00
H1006  H     0.02534   0.84166   0.66377   0.00000  Uiso   1.00
H1007  H     0.47797   0.80720   0.64522   0.00000  Uiso   1.00
H1008  H     0.47283   0.85193   0.35806   0.00000  Uiso   1.00
N1009  N     0.25000   0.62624   0.50000   0.00000  Uiso   1.00
N1010  N     0.25000   0.87377   0.50000   0.00000  Uiso   1.00
O1011  O     0.18453   0.78974   0.50000   0.00000  Uiso   1.00
O1012  O     0.35605   0.89095   0.56434   0.00000  Uiso   1.00
O1013  O     0.30272   0.60877   0.62038   0.00000  Uiso   1.00
O1014  O     0.15887   0.90302   0.41246   0.00000  Uiso   1.00
O1015  O     0.02441   0.81179   0.42697   0.00000  Uiso   1.00
O1016  O     0.47697   0.66596   0.46306   0.00000  Uiso   1.00
O1017  O     0.47251   0.83192   0.49801   0.00000  Uiso   1.00
O1018  O     0.02576   0.68841   0.55216   0.00000  Uiso   1.00
O1019  O     0.10931   0.82884   0.46246   0.00000  Uiso   1.00
O1020  O     0.38741   0.66339   0.47446   0.00000  Uiso   1.00
O1021  O     0.38247   0.83286   0.48166   0.00000  Uiso   1.00
O1022  O     0.31547   0.71026   0.50000   0.00000  Uiso   1.00
O1023  O     0.11842   0.68980   0.56151   0.00000  Uiso   1.00
O1024  O     0.19539   0.53407   0.42726   0.00000  Uiso   1.00
O1025  O     0.33018   0.96561   0.51089   0.00000  Uiso   1.00
O1026  O     0.30134   0.52704   0.57239   0.00000  Uiso   1.00
O1027  O     0.16871   0.97004   0.48268   0.00000  Uiso   1.00
O1028  O     0.31547   0.78974   0.50000   0.00000  Uiso   1.00
O1029  O     0.18453   0.71026   0.50000   0.00000  Uiso   1.00
O1030  O     0.25000   0.78973   0.42845   0.00000  Uiso   1.00
O1031  O     0.25000   0.71027   0.57155   0.00000  Uiso   1.00
O1032  O     0.25000   0.78973   0.57155   0.00000  Uiso   1.00
O1033  O     0.25000   0.71027   0.42845   0.00000  Uiso   1.00
O1034  O     0.19881   0.61805   0.37976   0.00000  Uiso   1.00
Zn1035 Zn    0.25000   0.80307   0.50000   0.00000  Uiso   1.00
Zn1036 Zn    0.25000   0.69693   0.50000   0.00000  Uiso   1.00
C1037  C     0.66401   0.75082   0.50137   0.00000  Uiso   1.00
C1038  C     0.71037   0.94804   0.48748   0.00000  Uiso   1.00
C1039  C     0.74975   0.75007   0.40624   0.00000  Uiso   1.00
C1040  C     0.75021   0.74993   0.59375   0.00000  Uiso   1.00
C1041  C     0.74870   0.52667   0.49950   0.00000  Uiso   1.00
C1042  C     0.74925   0.97323   0.49859   0.00000  Uiso   1.00
C1043  C     0.74990   0.75008   0.35509   0.00000  Uiso   1.00
C1044  C     0.75006   0.74990   0.64491   0.00000  Uiso   1.00
C1045  C     0.54641   0.78025   0.46012   0.00000  Uiso   1.00
C1046  C     0.95360   0.70656   0.47444   0.00000  Uiso   1.00
C1047  C     0.95175   0.78995   0.49131   0.00000  Uiso   1.00
C1048  C     0.83603   0.74916   0.49689   0.00000  Uiso   1.00
C1049  C     0.54803   0.71720   0.52176   0.00000  Uiso   1.00
C1050  C     0.59075   0.78717   0.47396   0.00000  Uiso   1.00
C1051  C     0.90821   0.70526   0.48169   0.00000  Uiso   1.00
C1052  C     0.90569   0.79033   0.48672   0.00000  Uiso   1.00
C1053  C     0.59447   0.71718   0.52584   0.00000  Uiso   1.00
C1054  C     0.61583   0.75215   0.50092   0.00000  Uiso   1.00
C1055  C     0.88380   0.74782   0.48895   0.00000  Uiso   1.00
C1056  C     0.52418   0.74716   0.48690   0.00000  Uiso   1.00
C1057  C     0.97582   0.74800   0.48402   0.00000  Uiso   1.00
C1058  C     0.69999   0.63074   0.42304   0.00000  Uiso   1.00
C1059  C     0.72601   0.60360   0.46275   0.00000  Uiso   1.00
C1060  C     0.82053   0.87343   0.55320   0.00000  Uiso   1.00
C1061  C     0.79760   0.62508   0.57833   0.00000  Uiso   1.00
C1062  C     0.68500   0.87872   0.43894   0.00000  Uiso   1.00
C1063  C     0.50953   0.78864   0.38330   0.00000  Uiso   1.00
C1064  C     0.99566   0.82480   0.34343   0.00000  Uiso   1.00
C1065  C     0.98054   0.66383   0.41119   0.00000  Uiso   1.00
C1066  C     0.99876   0.61560   0.39795   0.00000  Uiso   1.00
C1067  C     0.97494   0.84333   0.54903   0.00000  Uiso   1.00
C1068  C     0.97611   0.89605   0.55477   0.00000  Uiso   1.00
C1069  C     0.52017   0.71051   0.59838   0.00000  Uiso   1.00
C1070  C     0.78609   0.89738   0.51933   0.00000  Uiso   1.00
C1071  C     0.97362   0.70225   0.61406   0.00000  Uiso   1.00
C1072  C     0.59198   0.86497   0.49256   0.00000  Uiso   1.00
C1073  C     0.60979   0.86077   0.54712   0.00000  Uiso   1.00
C1074  C     0.88967   0.63739   0.51950   0.00000  Uiso   1.00
C1075  C     0.93113   0.60515   0.52607   0.00000  Uiso   1.00
C1076  C     0.88543   0.85090   0.43286   0.00000  Uiso   1.00
C1077  C     0.84138   0.84645   0.40246   0.00000  Uiso   1.00
C1078  C     0.62113   0.64310   0.54529   0.00000  Uiso   1.00
C1079  C     0.65620   0.61667   0.57885   0.00000  Uiso   1.00
C1080  C     0.71830   0.51388   0.38836   0.00000  Uiso   1.00
C1081  C     0.77255   0.60064   0.53765   0.00000  Uiso   1.00
C1082  C     0.68433   0.50185   0.34629   0.00000  Uiso   1.00
C1083  C     0.83998   0.97806   0.46204   0.00000  Uiso   1.00
C1084  C     0.88780   0.99274   0.46270   0.00000  Uiso   1.00
C1085  C     0.77716   0.50789   0.60992   0.00000  Uiso   1.00
C1086  C     0.80987   0.98645   0.65003   0.00000  Uiso   1.00
C1087  C     0.65486   0.97952   0.53078   0.00000  Uiso   1.00
C1088  C     0.60870   0.50304   0.52629   0.00000  Uiso   1.00
C1089  C     0.71472   0.89955   0.47791   0.00000  Uiso   1.00
C1090  C     0.72484   0.55412   0.46181   0.00000  Uiso   1.00
C1091  C     0.78899   0.94583   0.50888   0.00000  Uiso   1.00
C1092  C     0.77277   0.55098   0.53785   0.00000  Uiso   1.00
H1093  H     0.68169   0.66236   0.43126   0.00000  Uiso   1.00
H1094  H     0.50425   0.68974   0.39954   0.00000  Uiso   1.00
H1095  H     0.94763   0.66993   0.39023   0.00000  Uiso   1.00
H1096  H     0.97536   0.58864   0.40783   0.00000  Uiso   1.00
H1097  H     0.50312   0.61385   0.35737   0.00000  Uiso   1.00
H1098  H     0.53148   0.60831   0.41856   0.00000  Uiso   1.00
H1099  H     0.50609   0.82730   0.56707   0.00000  Uiso   1.00
H1100  H     0.94589   0.83162   0.56870   0.00000  Uiso   1.00
H1101  H     0.94464   0.91260   0.53828   0.00000  Uiso   1.00
H1102  H     0.97982   0.90503   0.59489   0.00000  Uiso   1.00
H1103  H     0.50439   0.91004   0.53596   0.00000  Uiso   1.00
H1104  H     0.81398   0.84055   0.57040   0.00000  Uiso   1.00
H1105  H     0.52452   0.74902   0.59786   0.00000  Uiso   1.00
H1106  H     0.54481   0.69487   0.62687   0.00000  Uiso   1.00
H1107  H     0.96885   0.66431   0.61850   0.00000  Uiso   1.00
H1108  H     0.96856   0.71959   0.65000   0.00000  Uiso   1.00
H1109  H     0.94846   0.71700   0.58570   0.00000  Uiso   1.00
H1110  H     0.55514   0.86706   0.49023   0.00000  Uiso   1.00
H1111  H     0.60192   0.89892   0.47804   0.00000  Uiso   1.00
H1112  H     0.59730   0.89121   0.56817   0.00000  Uiso   1.00
H1113  H     0.59809   0.82874   0.56455   0.00000  Uiso   1.00
H1114  H     0.64666   0.85993   0.54986   0.00000  Uiso   1.00
H1115  H     0.81193   0.65808   0.57137   0.00000  Uiso   1.00
H1116  H     0.86107   0.61434   0.51698   0.00000  Uiso   1.00
H1117  H     0.88682   0.65965   0.55311   0.00000  Uiso   1.00
H1118  H     0.96027   0.62482   0.53985   0.00000  Uiso   1.00
H1119  H     0.92604   0.57780   0.55424   0.00000  Uiso   1.00
H1120  H     0.93794   0.58806   0.49033   0.00000  Uiso   1.00
H1121  H     0.91239   0.83433   0.41174   0.00000  Uiso   1.00
H1122  H     0.89284   0.88836   0.43591   0.00000  Uiso   1.00
H1123  H     0.84294   0.86363   0.36559   0.00000  Uiso   1.00
H1124  H     0.83460   0.80901   0.39660   0.00000  Uiso   1.00
H1125  H     0.81395   0.86340   0.42207   0.00000  Uiso   1.00
H1126  H     0.68734   0.84203   0.43111   0.00000  Uiso   1.00
H1127  H     0.63103   0.64055   0.50620   0.00000  Uiso   1.00
H1128  H     0.58883   0.62621   0.54798   0.00000  Uiso   1.00
H1129  H     0.64522   0.61467   0.61732   0.00000  Uiso   1.00
H1130  H     0.66163   0.58092   0.56464   0.00000  Uiso   1.00
H1131  H     0.68812   0.63473   0.57965   0.00000  Uiso   1.00
H1132  H     0.73647   0.98114   0.40096   0.00000  Uiso   1.00
H1133  H     0.74243   0.53816   0.37418   0.00000  Uiso   1.00
H1134  H     0.67133   0.53416   0.65992   0.00000  Uiso   1.00
H1135  H     0.69968   0.97809   0.65274   0.00000  Uiso   1.00
H1136  H     0.65614   0.98395   0.36139   0.00000  Uiso   1.00
H1137  H     0.97978   0.76858   0.38993   0.00000  Uiso   1.00
H1138  H     0.81840   0.50810   0.44769   0.00000  Uiso   1.00
H1139  H     0.83576   0.94834   0.43583   0.00000  Uiso   1.00
H1140  H     0.91084   0.96296   0.47405   0.00000  Uiso   1.00
H1141  H     0.89524   0.50488   0.42504   0.00000  Uiso   1.00
H1142  H     0.89283   0.52153   0.48955   0.00000  Uiso   1.00
H1143  H     0.75576   0.97984   0.59514   0.00000  Uiso   1.00
H1144  H     0.75597   0.53530   0.62665   0.00000  Uiso   1.00
H1145  H     0.82842   0.51431   0.33654   0.00000  Uiso   1.00
H1146  H     0.79198   0.96651   0.34388   0.00000  Uiso   1.00
H1147  H     0.83383   0.96206   0.63293   0.00000  Uiso   1.00
H1148  H     0.53599   0.76502   0.36908   0.00000  Uiso   1.00
H1149  H     0.67775   0.50319   0.55145   0.00000  Uiso   1.00
H1150  H     0.65353   0.94680   0.55284   0.00000  Uiso   1.00
H1151  H     0.58454   0.97939   0.50771   0.00000  Uiso   1.00
H1152  H     0.59797   0.51164   0.56393   0.00000  Uiso   1.00
H1153  H     0.60913   0.53576   0.50409   0.00000  Uiso   1.00
H1154  H     0.52534   0.84166   0.66377   0.00000  Uiso   1.00
H1155  H     0.97797   0.80720   0.64522   0.00000  Uiso   1.00
H1156  H     0.97283   0.85193   0.35806   0.00000  Uiso   1.00
N1157  N     0.75000   0.62624   0.50000   0.00000  Uiso   1.00
N1158  N     0.75000   0.87377   0.50000   0.00000  Uiso   1.00
O1159  O     0.68453   0.78974   0.50000   0.00000  Uiso   1.00
O1160  O     0.85605   0.89095   0.56434   0.00000  Uiso   1.00
O1161  O     0.80272   0.60877   0.62038   0.00000  Uiso   1.00
O1162  O     0.65887   0.90302   0.41246   0.00000  Uiso   1.00
O1163  O     0.52441   0.81179   0.42697   0.00000  Uiso   1.00
O1164  O     0.97697   0.66596   0.46306   0.00000  Uiso   1.00
O1165  O     0.97251   0.83192   0.49801   0.00000  Uiso   1.00
O1166  O     0.52576   0.68841   0.55216   0.00000  Uiso   1.00
O1167  O     0.60931   0.82884   0.46246   0.00000  Uiso   1.00
O1168  O     0.88741   0.66339   0.47446   0.00000  Uiso   1.00
O1169  O     0.88247   0.83286   0.48166   0.00000  Uiso   1.00
O1170  O     0.81547   0.71026   0.50000   0.00000  Uiso   1.00
O1171  O     0.61842   0.68980   0.56151   0.00000  Uiso   1.00
O1172  O     0.69539   0.53407   0.42726   0.00000  Uiso   1.00
O1173  O     0.83018   0.96561   0.51089   0.00000  Uiso   1.00
O1174  O     0.80134   0.52704   0.57239   0.00000  Uiso   1.00
O1175  O     0.66871   0.97004   0.48268   0.00000  Uiso   1.00
O1176  O     0.81547   0.78974   0.50000   0.00000  Uiso   1.00
O1177  O     0.68453   0.71026   0.50000   0.00000  Uiso   1.00
O1178  O     0.75000   0.78973   0.42845   0.00000  Uiso   1.00
O1179  O     0.75000   0.71027   0.57155   0.00000  Uiso   1.00
O1180  O     0.75000   0.78973   0.57155   0.00000  Uiso   1.00
O1181  O     0.75000   0.71027   0.42845   0.00000  Uiso   1.00
O1182  O     0.69881   0.61805   0.37976   0.00000  Uiso   1.00
Zn1183 Zn    0.75000   0.80307   0.50000   0.00000  Uiso   1.00
Zn1184 Zn    0.75000   0.69693   0.50000   0.00000  Uiso   1.00
C1185  C     0.16401   0.25082   0.83470   0.00000  Uiso   1.00
C1186  C     0.21037   0.44804   0.82081   0.00000  Uiso   1.00
C1187  C     0.24975   0.25007   0.73958   0.00000  Uiso   1.00
C1188  C     0.25021   0.24993   0.92709   0.00000  Uiso   1.00
C1189  C     0.24870   0.02667   0.83284   0.00000  Uiso   1.00
C1190  C     0.24925   0.47323   0.83192   0.00000  Uiso   1.00
C1191  C     0.24990   0.25008   0.68843   0.00000  Uiso   1.00
C1192  C     0.25006   0.24990   0.97824   0.00000  Uiso   1.00
C1193  C     0.04641   0.28025   0.79346   0.00000  Uiso   1.00
C1194  C     0.45360   0.20656   0.80777   0.00000  Uiso   1.00
C1195  C     0.45175   0.28995   0.82464   0.00000  Uiso   1.00
C1196  C     0.33603   0.24916   0.83023   0.00000  Uiso   1.00
C1197  C     0.04803   0.21720   0.85509   0.00000  Uiso   1.00
C1198  C     0.09075   0.28717   0.80729   0.00000  Uiso   1.00
C1199  C     0.40821   0.20526   0.81502   0.00000  Uiso   1.00
C1200  C     0.40569   0.29033   0.82005   0.00000  Uiso   1.00
C1201  C     0.09447   0.21718   0.85917   0.00000  Uiso   1.00
C1202  C     0.11583   0.25215   0.83426   0.00000  Uiso   1.00
C1203  C     0.38380   0.24782   0.82229   0.00000  Uiso   1.00
C1204  C     0.02418   0.24716   0.82023   0.00000  Uiso   1.00
C1205  C     0.47582   0.24800   0.81736   0.00000  Uiso   1.00
C1206  C     0.19999   0.13074   0.75637   0.00000  Uiso   1.00
C1207  C     0.22601   0.10360   0.79608   0.00000  Uiso   1.00
C1208  C     0.32053   0.37343   0.88653   0.00000  Uiso   1.00
C1209  C     0.29760   0.12508   0.91166   0.00000  Uiso   1.00
C1210  C     0.18500   0.37872   0.77228   0.00000  Uiso   1.00
C1211  C     0.00953   0.28864   0.71663   0.00000  Uiso   1.00
C1212  C     0.49566   0.32480   0.67676   0.00000  Uiso   1.00
C1213  C     0.48054   0.16383   0.74453   0.00000  Uiso   1.00
C1214  C     0.49876   0.11560   0.73129   0.00000  Uiso   1.00
C1215  C     0.47494   0.34333   0.88237   0.00000  Uiso   1.00
C1216  C     0.47611   0.39605   0.88810   0.00000  Uiso   1.00
C1217  C     0.02017   0.21051   0.93171   0.00000  Uiso   1.00
C1218  C     0.28609   0.39738   0.85266   0.00000  Uiso   1.00
C1219  C     0.47362   0.20225   0.94739   0.00000  Uiso   1.00
C1220  C     0.09198   0.36497   0.82589   0.00000  Uiso   1.00
C1221  C     0.10979   0.36077   0.88046   0.00000  Uiso   1.00
C1222  C     0.38967   0.13739   0.85283   0.00000  Uiso   1.00
C1223  C     0.43113   0.10515   0.85940   0.00000  Uiso   1.00
C1224  C     0.38543   0.35090   0.76619   0.00000  Uiso   1.00
C1225  C     0.34138   0.34645   0.73579   0.00000  Uiso   1.00
C1226  C     0.12113   0.14310   0.87862   0.00000  Uiso   1.00
C1227  C     0.15620   0.11667   0.91218   0.00000  Uiso   1.00
C1228  C     0.21830   0.01388   0.72169   0.00000  Uiso   1.00
C1229  C     0.27255   0.10064   0.87098   0.00000  Uiso   1.00
C1230  C     0.18433   0.00185   0.67962   0.00000  Uiso   1.00
C1231  C     0.33998   0.47806   0.79538   0.00000  Uiso   1.00
C1232  C     0.38780   0.49274   0.79603   0.00000  Uiso   1.00
C1233  C     0.27716   0.00789   0.94326   0.00000  Uiso   1.00
C1234  C     0.30987   0.48645   0.98336   0.00000  Uiso   1.00
C1235  C     0.15486   0.47952   0.86411   0.00000  Uiso   1.00
C1236  C     0.10870   0.00304   0.85962   0.00000  Uiso   1.00
C1237  C     0.21472   0.39955   0.81124   0.00000  Uiso   1.00
C1238  C     0.22484   0.05412   0.79514   0.00000  Uiso   1.00
C1239  C     0.28899   0.44583   0.84222   0.00000  Uiso   1.00
C1240  C     0.27277   0.05098   0.87119   0.00000  Uiso   1.00
H1241  H     0.18169   0.16236   0.76459   0.00000  Uiso   1.00
H1242  H     0.00425   0.18974   0.73287   0.00000  Uiso   1.00
H1243  H     0.44763   0.16993   0.72357   0.00000  Uiso   1.00
H1244  H     0.47536   0.08864   0.74116   0.00000  Uiso   1.00
H1245  H     0.00312   0.11385   0.69070   0.00000  Uiso   1.00
H1246  H     0.03148   0.10831   0.75189   0.00000  Uiso   1.00
H1247  H     0.00609   0.32730   0.90041   0.00000  Uiso   1.00
H1248  H     0.44589   0.33162   0.90203   0.00000  Uiso   1.00
H1249  H     0.44464   0.41260   0.87161   0.00000  Uiso   1.00
H1250  H     0.47982   0.40503   0.92823   0.00000  Uiso   1.00
H1251  H     0.00439   0.41004   0.86929   0.00000  Uiso   1.00
H1252  H     0.31398   0.34055   0.90374   0.00000  Uiso   1.00
H1253  H     0.02452   0.24902   0.93120   0.00000  Uiso   1.00
H1254  H     0.04481   0.19487   0.96020   0.00000  Uiso   1.00
H1255  H     0.46885   0.16431   0.95184   0.00000  Uiso   1.00
H1256  H     0.46856   0.21959   0.98334   0.00000  Uiso   1.00
H1257  H     0.44846   0.21700   0.91904   0.00000  Uiso   1.00
H1258  H     0.05514   0.36706   0.82356   0.00000  Uiso   1.00
H1259  H     0.10192   0.39892   0.81137   0.00000  Uiso   1.00
H1260  H     0.09730   0.39121   0.90150   0.00000  Uiso   1.00
H1261  H     0.09809   0.32874   0.89788   0.00000  Uiso   1.00
H1262  H     0.14666   0.35993   0.88320   0.00000  Uiso   1.00
H1263  H     0.31193   0.15808   0.90471   0.00000  Uiso   1.00
H1264  H     0.36107   0.11434   0.85031   0.00000  Uiso   1.00
H1265  H     0.38682   0.15965   0.88645   0.00000  Uiso   1.00
H1266  H     0.46027   0.12482   0.87318   0.00000  Uiso   1.00
H1267  H     0.42604   0.07780   0.88758   0.00000  Uiso   1.00
H1268  H     0.43794   0.08806   0.82366   0.00000  Uiso   1.00
H1269  H     0.41239   0.33433   0.74507   0.00000  Uiso   1.00
H1270  H     0.39284   0.38836   0.76924   0.00000  Uiso   1.00
H1271  H     0.34294   0.36363   0.69892   0.00000  Uiso   1.00
H1272  H     0.33460   0.30901   0.72993   0.00000  Uiso   1.00
H1273  H     0.31395   0.36340   0.75540   0.00000  Uiso   1.00
H1274  H     0.18734   0.34203   0.76444   0.00000  Uiso   1.00
H1275  H     0.13103   0.14055   0.83954   0.00000  Uiso   1.00
H1276  H     0.08883   0.12621   0.88131   0.00000  Uiso   1.00
H1277  H     0.14522   0.11467   0.95066   0.00000  Uiso   1.00
H1278  H     0.16163   0.08092   0.89798   0.00000  Uiso   1.00
H1279  H     0.18812   0.13473   0.91299   0.00000  Uiso   1.00
H1280  H     0.23647   0.48114   0.73429   0.00000  Uiso   1.00
H1281  H     0.24243   0.03816   0.70752   0.00000  Uiso   1.00
H1282  H     0.17133   0.03416   0.99326   0.00000  Uiso   1.00
H1283  H     0.19968   0.47809   0.98607   0.00000  Uiso   1.00
H1284  H     0.15614   0.48395   0.69472   0.00000  Uiso   1.00
H1285  H     0.47978   0.26858   0.72326   0.00000  Uiso   1.00
H1286  H     0.31840   0.00810   0.78102   0.00000  Uiso   1.00
H1287  H     0.33576   0.44834   0.76917   0.00000  Uiso   1.00
H1288  H     0.41084   0.46296   0.80739   0.00000  Uiso   1.00
H1289  H     0.39524   0.00488   0.75837   0.00000  Uiso   1.00
H1290  H     0.39283   0.02153   0.82288   0.00000  Uiso   1.00
H1291  H     0.25576   0.47984   0.92848   0.00000  Uiso   1.00
H1292  H     0.25597   0.03530   0.95998   0.00000  Uiso   1.00
H1293  H     0.32842   0.01431   0.66988   0.00000  Uiso   1.00
H1294  H     0.29198   0.46651   0.67721   0.00000  Uiso   1.00
H1295  H     0.33383   0.46206   0.96626   0.00000  Uiso   1.00
H1296  H     0.03599   0.26502   0.70242   0.00000  Uiso   1.00
H1297  H     0.17775   0.00319   0.88478   0.00000  Uiso   1.00
H1298  H     0.15353   0.44680   0.88617   0.00000  Uiso   1.00
H1299  H     0.08454   0.47939   0.84104   0.00000  Uiso   1.00
H1300  H     0.09797   0.01164   0.89727   0.00000  Uiso   1.00
H1301  H     0.10913   0.03576   0.83742   0.00000  Uiso   1.00
H1302  H     0.02534   0.34166   0.99711   0.00000  Uiso   1.00
H1303  H     0.47797   0.30720   0.97856   0.00000  Uiso   1.00
H1304  H     0.47283   0.35193   0.69140   0.00000  Uiso   1.00
N1305  N     0.25000   0.12624   0.83333   0.00000  Uiso   1.00
N1306  N     0.25000   0.37377   0.83333   0.00000  Uiso   1.00
O1307  O     0.18453   0.28974   0.83334   0.00000  Uiso   1.00
O1308  O     0.35605   0.39095   0.89768   0.00000  Uiso   1.00
O1309  O     0.30272   0.10877   0.95371   0.00000  Uiso   1.00
O1310  O     0.15887   0.40302   0.74580   0.00000  Uiso   1.00
O1311  O     0.02441   0.31179   0.76031   0.00000  Uiso   1.00
O1312  O     0.47697   0.16596   0.79640   0.00000  Uiso   1.00
O1313  O     0.47251   0.33192   0.83134   0.00000  Uiso   1.00
O1314  O     0.02576   0.18841   0.88550   0.00000  Uiso   1.00
O1315  O     0.10931   0.32884   0.79580   0.00000  Uiso   1.00
O1316  O     0.38741   0.16339   0.80779   0.00000  Uiso   1.00
O1317  O     0.38247   0.33286   0.81499   0.00000  Uiso   1.00
O1318  O     0.31547   0.21026   0.83333   0.00000  Uiso   1.00
O1319  O     0.11842   0.18980   0.89485   0.00000  Uiso   1.00
O1320  O     0.19539   0.03407   0.76060   0.00000  Uiso   1.00
O1321  O     0.33018   0.46561   0.84423   0.00000  Uiso   1.00
O1322  O     0.30134   0.02704   0.90572   0.00000  Uiso   1.00
O1323  O     0.16871   0.47004   0.81601   0.00000  Uiso   1.00
O1324  O     0.31547   0.28974   0.83333   0.00000  Uiso   1.00
O1325  O     0.18453   0.21026   0.83334   0.00000  Uiso   1.00
O1326  O     0.25000   0.28973   0.76178   0.00000  Uiso   1.00
O1327  O     0.25000   0.21027   0.90489   0.00000  Uiso   1.00
O1328  O     0.25000   0.28973   0.90489   0.00000  Uiso   1.00
O1329  O     0.25000   0.21027   0.76178   0.00000  Uiso   1.00
O1330  O     0.19881   0.11805   0.71309   0.00000  Uiso   1.00
Zn1331 Zn    0.25000   0.30307   0.83333   0.00000  Uiso   1.00
Zn1332 Zn    0.25000   0.19693   0.83333   0.00000  Uiso   1.00
C1333  C     0.66401   0.25082   0.83470   0.00000  Uiso   1.00
C1334  C     0.71037   0.44804   0.82081   0.00000  Uiso   1.00
C1335  C     0.74975   0.25007   0.73958   0.00000  Uiso   1.00
C1336  C     0.75021   0.24993   0.92709   0.00000  Uiso   1.00
C1337  C     0.74870   0.02667   0.83284   0.00000  Uiso   1.00
C1338  C     0.74925   0.47323   0.83192   0.00000  Uiso   1.00
C1339  C     0.74990   0.25008   0.68843   0.00000  Uiso   1.00
C1340  C     0.75006   0.24990   0.97824   0.00000  Uiso   1.00
C1341  C     0.54641   0.28025   0.79346   0.00000  Uiso   1.00
C1342  C     0.95360   0.20656   0.80777   0.00000  Uiso   1.00
C1343  C     0.95175   0.28995   0.82464   0.00000  Uiso   1.00
C1344  C     0.83603   0.24916   0.83023   0.00000  Uiso   1.00
C1345  C     0.54803   0.21720   0.85509   0.00000  Uiso   1.00
C1346  C     0.59075   0.28717   0.80729   0.00000  Uiso   1.00
C1347  C     0.90821   0.20526   0.81502   0.00000  Uiso   1.00
C1348  C     0.90569   0.29033   0.82005   0.00000  Uiso   1.00
C1349  C     0.59447   0.21718   0.85917   0.00000  Uiso   1.00
C1350  C     0.61583   0.25215   0.83426   0.00000  Uiso   1.00
C1351  C     0.88380   0.24782   0.82229   0.00000  Uiso   1.00
C1352  C     0.52418   0.24716   0.82023   0.00000  Uiso   1.00
C1353  C     0.97582   0.24800   0.81736   0.00000  Uiso   1.00
C1354  C     0.69999   0.13074   0.75637   0.00000  Uiso   1.00
C1355  C     0.72601   0.10360   0.79608   0.00000  Uiso   1.00
C1356  C     0.82053   0.37343   0.88653   0.00000  Uiso   1.00
C1357  C     0.79760   0.12508   0.91166   0.00000  Uiso   1.00
C1358  C     0.68500   0.37872   0.77228   0.00000  Uiso   1.00
C1359  C     0.50953   0.28864   0.71663   0.00000  Uiso   1.00
C1360  C     0.99566   0.32480   0.67676   0.00000  Uiso   1.00
C1361  C     0.98054   0.16383   0.74453   0.00000  Uiso   1.00
C1362  C     0.99876   0.11560   0.73129   0.00000  Uiso   1.00
C1363  C     0.97494   0.34333   0.88237   0.00000  Uiso   1.00
C1364  C     0.97611   0.39605   0.88810   0.00000  Uiso   1.00
C1365  C     0.52017   0.21051   0.93171   0.00000  Uiso   1.00
C1366  C     0.78609   0.39738   0.85266   0.00000  Uiso   1.00
C1367  C     0.97362   0.20225   0.94739   0.00000  Uiso   1.00
C1368  C     0.59198   0.36497   0.82589   0.00000  Uiso   1.00
C1369  C     0.60979   0.36077   0.88046   0.00000  Uiso   1.00
C1370  C     0.88967   0.13739   0.85283   0.00000  Uiso   1.00
C1371  C     0.93113   0.10515   0.85940   0.00000  Uiso   1.00
C1372  C     0.88543   0.35090   0.76619   0.00000  Uiso   1.00
C1373  C     0.84138   0.34645   0.73579   0.00000  Uiso   1.00
C1374  C     0.62113   0.14310   0.87862   0.00000  Uiso   1.00
C1375  C     0.65620   0.11667   0.91218   0.00000  Uiso   1.00
C1376  C     0.71830   0.01388   0.72169   0.00000  Uiso   1.00
C1377  C     0.77255   0.10064   0.87098   0.00000  Uiso   1.00
C1378  C     0.68433   0.00185   0.67962   0.00000  Uiso   1.00
C1379  C     0.83998   0.47806   0.79538   0.00000  Uiso   1.00
C1380  C     0.88780   0.49274   0.79603   0.00000  Uiso   1.00
C1381  C     0.77716   0.00789   0.94326   0.00000  Uiso   1.00
C1382  C     0.80987   0.48645   0.98336   0.00000  Uiso   1.00
C1383  C     0.65486   0.47952   0.86411   0.00000  Uiso   1.00
C1384  C     0.60870   0.00304   0.85962   0.00000  Uiso   1.00
C1385  C     0.71472   0.39955   0.81124   0.00000  Uiso   1.00
C1386  C     0.72484   0.05412   0.79514   0.00000  Uiso   1.00
C1387  C     0.78899   0.44583   0.84222   0.00000  Uiso   1.00
C1388  C     0.77277   0.05098   0.87119   0.00000  Uiso   1.00
H1389  H     0.68169   0.16236   0.76459   0.00000  Uiso   1.00
H1390  H     0.50425   0.18974   0.73287   0.00000  Uiso   1.00
H1391  H     0.94763   0.16993   0.72357   0.00000  Uiso   1.00
H1392  H     0.97536   0.08864   0.74116   0.00000  Uiso   1.00
H1393  H     0.50312   0.11385   0.69070   0.00000  Uiso   1.00
H1394  H     0.53148   0.10831   0.75189   0.00000  Uiso   1.00
H1395  H     0.50609   0.32730   0.90041   0.00000  Uiso   1.00
H1396  H     0.94589   0.33162   0.90203   0.00000  Uiso   1.00
H1397  H     0.94464   0.41260   0.87161   0.00000  Uiso   1.00
H1398  H     0.97982   0.40503   0.92823   0.00000  Uiso   1.00
H1399  H     0.50439   0.41004   0.86929   0.00000  Uiso   1.00
H1400  H     0.81398   0.34055   0.90374   0.00000  Uiso   1.00
H1401  H     0.52452   0.24902   0.93120   0.00000  Uiso   1.00
H1402  H     0.54481   0.19487   0.96020   0.00000  Uiso   1.00
H1403  H     0.96885   0.16431   0.95184   0.00000  Uiso   1.00
H1404  H     0.96856   0.21959   0.98334   0.00000  Uiso   1.00
H1405  H     0.94846   0.21700   0.91904   0.00000  Uiso   1.00
H1406  H     0.55514   0.36706   0.82356   0.00000  Uiso   1.00
H1407  H     0.60192   0.39892   0.81137   0.00000  Uiso   1.00
H1408  H     0.59730   0.39121   0.90150   0.00000  Uiso   1.00
H1409  H     0.59809   0.32874   0.89788   0.00000  Uiso   1.00
H1410  H     0.64666   0.35993   0.88320   0.00000  Uiso   1.00
H1411  H     0.81193   0.15808   0.90471   0.00000  Uiso   1.00
H1412  H     0.86107   0.11434   0.85031   0.00000  Uiso   1.00
H1413  H     0.88682   0.15965   0.88645   0.00000  Uiso   1.00
H1414  H     0.96027   0.12482   0.87318   0.00000  Uiso   1.00
H1415  H     0.92604   0.07780   0.88758   0.00000  Uiso   1.00
H1416  H     0.93794   0.08806   0.82366   0.00000  Uiso   1.00
H1417  H     0.91239   0.33433   0.74507   0.00000  Uiso   1.00
H1418  H     0.89284   0.38836   0.76924   0.00000  Uiso   1.00
H1419  H     0.84294   0.36363   0.69892   0.00000  Uiso   1.00
H1420  H     0.83460   0.30901   0.72993   0.00000  Uiso   1.00
H1421  H     0.81395   0.36340   0.75540   0.00000  Uiso   1.00
H1422  H     0.68734   0.34203   0.76444   0.00000  Uiso   1.00
H1423  H     0.63103   0.14055   0.83954   0.00000  Uiso   1.00
H1424  H     0.58883   0.12621   0.88131   0.00000  Uiso   1.00
H1425  H     0.64522   0.11467   0.95066   0.00000  Uiso   1.00
H1426  H     0.66163   0.08092   0.89798   0.00000  Uiso   1.00
H1427  H     0.68812   0.13473   0.91299   0.00000  Uiso   1.00
H1428  H     0.73647   0.48114   0.73429   0.00000  Uiso   1.00
H1429  H     0.74243   0.03816   0.70752   0.00000  Uiso   1.00
H1430  H     0.67133   0.03416   0.99326   0.00000  Uiso   1.00
H1431  H     0.69968   0.47809   0.98607   0.00000  Uiso   1.00
H1432  H     0.65614   0.48395   0.69472   0.00000  Uiso   1.00
H1433  H     0.97978   0.26858   0.72326   0.00000  Uiso   1.00
H1434  H     0.81840   0.00810   0.78102   0.00000  Uiso   1.00
H1435  H     0.83576   0.44834   0.76917   0.00000  Uiso   1.00
H1436  H     0.91084   0.46296   0.80739   0.00000  Uiso   1.00
H1437  H     0.89524   0.00488   0.75837   0.00000  Uiso   1.00
H1438  H     0.89283   0.02153   0.82288   0.00000  Uiso   1.00
H1439  H     0.75576   0.47984   0.92848   0.00000  Uiso   1.00
H1440  H     0.75597   0.03530   0.95998   0.00000  Uiso   1.00
H1441  H     0.82842   0.01431   0.66988   0.00000  Uiso   1.00
H1442  H     0.79198   0.46651   0.67721   0.00000  Uiso   1.00
H1443  H     0.83383   0.46206   0.96626   0.00000  Uiso   1.00
H1444  H     0.53599   0.26502   0.70242   0.00000  Uiso   1.00
H1445  H     0.67775   0.00319   0.88478   0.00000  Uiso   1.00
H1446  H     0.65353   0.44680   0.88617   0.00000  Uiso   1.00
H1447  H     0.58454   0.47939   0.84104   0.00000  Uiso   1.00
H1448  H     0.59797   0.01164   0.89727   0.00000  Uiso   1.00
H1449  H     0.60913   0.03576   0.83742   0.00000  Uiso   1.00
H1450  H     0.52534   0.34166   0.99711   0.00000  Uiso   1.00
H1451  H     0.97797   0.30720   0.97856   0.00000  Uiso   1.00
H1452  H     0.97283   0.35193   0.69140   0.00000  Uiso   1.00
N1453  N     0.75000   0.12624   0.83333   0.00000  Uiso   1.00
N1454  N     0.75000   0.37377   0.83333   0.00000  Uiso   1.00
O1455  O     0.68453   0.28974   0.83334   0.00000  Uiso   1.00
O1456  O     0.85605   0.39095   0.89768   0.00000  Uiso   1.00
O1457  O     0.80272   0.10877   0.95371   0.00000  Uiso   1.00
O1458  O     0.65887   0.40302   0.74580   0.00000  Uiso   1.00
O1459  O     0.52441   0.31179   0.76031   0.00000  Uiso   1.00
O1460  O     0.97697   0.16596   0.79640   0.00000  Uiso   1.00
O1461  O     0.97251   0.33192   0.83134   0.00000  Uiso   1.00
O1462  O     0.52576   0.18841   0.88550   0.00000  Uiso   1.00
O1463  O     0.60931   0.32884   0.79580   0.00000  Uiso   1.00
O1464  O     0.88741   0.16339   0.80779   0.00000  Uiso   1.00
O1465  O     0.88247   0.33286   0.81499   0.00000  Uiso   1.00
O1466  O     0.81547   0.21026   0.83333   0.00000  Uiso   1.00
O1467  O     0.61842   0.18980   0.89485   0.00000  Uiso   1.00
O1468  O     0.69539   0.03407   0.76060   0.00000  Uiso   1.00
O1469  O     0.83018   0.46561   0.84423   0.00000  Uiso   1.00
O1470  O     0.80134   0.02704   0.90572   0.00000  Uiso   1.00
O1471  O     0.66871   0.47004   0.81601   0.00000  Uiso   1.00
O1472  O     0.81547   0.28974   0.83333   0.00000  Uiso   1.00
O1473  O     0.68453   0.21026   0.83334   0.00000  Uiso   1.00
O1474  O     0.75000   0.28973   0.76178   0.00000  Uiso   1.00
O1475  O     0.75000   0.21027   0.90489   0.00000  Uiso   1.00
O1476  O     0.75000   0.28973   0.90489   0.00000  Uiso   1.00
O1477  O     0.75000   0.21027   0.76178   0.00000  Uiso   1.00
O1478  O     0.69881   0.11805   0.71309   0.00000  Uiso   1.00
Zn1479 Zn    0.75000   0.30307   0.83333   0.00000  Uiso   1.00
Zn1480 Zn    0.75000   0.19693   0.83333   0.00000  Uiso   1.00
C1481  C     0.16401   0.75082   0.83470   0.00000  Uiso   1.00
C1482  C     0.21037   0.94804   0.82081   0.00000  Uiso   1.00
C1483  C     0.24975   0.75007   0.73958   0.00000  Uiso   1.00
C1484  C     0.25021   0.74993   0.92709   0.00000  Uiso   1.00
C1485  C     0.24870   0.52667   0.83284   0.00000  Uiso   1.00
C1486  C     0.24925   0.97323   0.83192   0.00000  Uiso   1.00
C1487  C     0.24990   0.75008   0.68843   0.00000  Uiso   1.00
C1488  C     0.25006   0.74990   0.97824   0.00000  Uiso   1.00
C1489  C     0.04641   0.78025   0.79346   0.00000  Uiso   1.00
C1490  C     0.45360   0.70656   0.80777   0.00000  Uiso   1.00
C1491  C     0.45175   0.78995   0.82464   0.00000  Uiso   1.00
C1492  C     0.33603   0.74916   0.83023   0.00000  Uiso   1.00
C1493  C     0.04803   0.71720   0.85509   0.00000  Uiso   1.00
C1494  C     0.09075   0.78717   0.80729   0.00000  Uiso   1.00
C1495  C     0.40821   0.70526   0.81502   0.00000  Uiso   1.00
C1496  C     0.40569   0.79033   0.82005   0.00000  Uiso   1.00
C1497  C     0.09447   0.71718   0.85917   0.00000  Uiso   1.00
C1498  C     0.11583   0.75215   0.83426   0.00000  Uiso   1.00
C1499  C     0.38380   0.74782   0.82229   0.00000  Uiso   1.00
C1500  C     0.02418   0.74716   0.82023   0.00000  Uiso   1.00
C1501  C     0.47582   0.74800   0.81736   0.00000  Uiso   1.00
C1502  C     0.19999   0.63074   0.75637   0.00000  Uiso   1.00
C1503  C     0.22601   0.60360   0.79608   0.00000  Uiso   1.00
C1504  C     0.32053   0.87343   0.88653   0.00000  Uiso   1.00
C1505  C     0.29760   0.62508   0.91166   0.00000  Uiso   1.00
C1506  C     0.18500   0.87872   0.77228   0.00000  Uiso   1.00
C1507  C     0.00953   0.78864   0.71663   0.00000  Uiso   1.00
C1508  C     0.49566   0.82480   0.67676   0.00000  Uiso   1.00
C1509  C     0.48054   0.66383   0.74453   0.00000  Uiso   1.00
C1510  C     0.49876   0.61560   0.73129   0.00000  Uiso   1.00
C1511  C     0.47494   0.84333   0.88237   0.00000  Uiso   1.00
C1512  C     0.47611   0.89605   0.88810   0.00000  Uiso   1.00
C1513  C     0.02017   0.71051   0.93171   0.00000  Uiso   1.00
C1514  C     0.28609   0.89738   0.85266   0.00000  Uiso   1.00
C1515  C     0.47362   0.70225   0.94739   0.00000  Uiso   1.00
C1516  C     0.09198   0.86497   0.82589   0.00000  Uiso   1.00
C1517  C     0.10979   0.86077   0.88046   0.00000  Uiso   1.00
C1518  C     0.38967   0.63739   0.85283   0.00000  Uiso   1.00
C1519  C     0.43113   0.60515   0.85940   0.00000  Uiso   1.00
C1520  C     0.38543   0.85090   0.76619   0.00000  Uiso   1.00
C1521  C     0.34138   0.84645   0.73579   0.00000  Uiso   1.00
C1522  C     0.12113   0.64310   0.87862   0.00000  Uiso   1.00
C1523  C     0.15620   0.61667   0.91218   0.00000  Uiso   1.00
C1524  C     0.21830   0.51388   0.72169   0.00000  Uiso   1.00
C1525  C     0.27255   0.60064   0.87098   0.00000  Uiso   1.00
C1526  C     0.18433   0.50185   0.67962   0.00000  Uiso   1.00
C1527  C     0.33998   0.97806   0.79538   0.00000  Uiso   1.00
C1528  C     0.38780   0.99274   0.79603   0.00000  Uiso   1.00
C1529  C     0.27716   0.50789   0.94326   0.00000  Uiso   1.00
C1530  C     0.30987   0.98645   0.98336   0.00000  Uiso   1.00
C1531  C     0.15486   0.97952   0.86411   0.00000  Uiso   1.00
C1532  C     0.10870   0.50304   0.85962   0.00000  Uiso   1.00
C1533  C     0.21472   0.89955   0.81124   0.00000  Uiso   1.00
C1534  C     0.22484   0.55412   0.79514   0.00000  Uiso   1.00
C1535  C     0.28899   0.94583   0.84222   0.00000  Uiso   1.00
C1536  C     0.27277   0.55098   0.87119   0.00000  Uiso   1.00
H1537  H     0.18169   0.66236   0.76459   0.00000  Uiso   1.00
H1538  H     0.00425   0.68974   0.73287   0.00000  Uiso   1.00
H1539  H     0.44763   0.66993   0.72357   0.00000  Uiso   1.00
H1540  H     0.47536   0.58864   0.74116   0.00000  Uiso   1.00
H1541  H     0.00312   0.61385   0.69070   0.00000  Uiso   1.00
H1542  H     0.03148   0.60831   0.75189   0.00000  Uiso   1.00
H1543  H     0.00609   0.82730   0.90041   0.00000  Uiso   1.00
H1544  H     0.44589   0.83162   0.90203   0.00000  Uiso   1.00
H1545  H     0.44464   0.91260   0.87161   0.00000  Uiso   1.00
H1546  H     0.47982   0.90503   0.92823   0.00000  Uiso   1.00
H1547  H     0.00439   0.91004   0.86929   0.00000  Uiso   1.00
H1548  H     0.31398   0.84055   0.90374   0.00000  Uiso   1.00
H1549  H     0.02452   0.74902   0.93120   0.00000  Uiso   1.00
H1550  H     0.04481   0.69487   0.96020   0.00000  Uiso   1.00
H1551  H     0.46885   0.66431   0.95184   0.00000  Uiso   1.00
H1552  H     0.46856   0.71959   0.98334   0.00000  Uiso   1.00
H1553  H     0.44846   0.71700   0.91904   0.00000  Uiso   1.00
H1554  H     0.05514   0.86706   0.82356   0.00000  Uiso   1.00
H1555  H     0.10192   0.89892   0.81137   0.00000  Uiso   1.00
H1556  H     0.09730   0.89121   0.90150   0.00000  Uiso   1.00
H1557  H     0.09809   0.82874   0.89788   0.00000  Uiso   1.00
H1558  H     0.14666   0.85993   0.88320   0.00000  Uiso   1.00
H1559  H     0.31193   0.65808   0.90471   0.00000  Uiso   1.00
H1560  H     0.36107   0.61434   0.85031   0.00000  Uiso   1.00
H1561  H     0.38682   0.65965   0.88645   0.00000  Uiso   1.00
H1562  H     0.46027   0.62482   0.87318   0.00000  Uiso   1.00
H1563  H     0.42604   0.57780   0.88758   0.00000  Uiso   1.00
H1564  H     0.43794   0.58806   0.82366   0.00000  Uiso   1.00
H1565  H     0.41239   0.83433   0.74507   0.00000  Uiso   1.00
H1566  H     0.39284   0.88836   0.76924   0.00000  Uiso   1.00
H1567  H     0.34294   0.86363   0.69892   0.00000  Uiso   1.00
H1568  H     0.33460   0.80901   0.72993   0.00000  Uiso   1.00
H1569  H     0.31395   0.86340   0.75540   0.00000  Uiso   1.00
H1570  H     0.18734   0.84203   0.76444   0.00000  Uiso   1.00
H1571  H     0.13103   0.64055   0.83954   0.00000  Uiso   1.00
H1572  H     0.08883   0.62621   0.88131   0.00000  Uiso   1.00
H1573  H     0.14522   0.61467   0.95066   0.00000  Uiso   1.00
H1574  H     0.16163   0.58092   0.89798   0.00000  Uiso   1.00
H1575  H     0.18812   0.63473   0.91299   0.00000  Uiso   1.00
H1576  H     0.23647   0.98114   0.73429   0.00000  Uiso   1.00
H1577  H     0.24243   0.53816   0.70752   0.00000  Uiso   1.00
H1578  H     0.17133   0.53416   0.99326   0.00000  Uiso   1.00
H1579  H     0.19968   0.97809   0.98607   0.00000  Uiso   1.00
H1580  H     0.15614   0.98395   0.69472   0.00000  Uiso   1.00
H1581  H     0.47978   0.76858   0.72326   0.00000  Uiso   1.00
H1582  H     0.31840   0.50810   0.78102   0.00000  Uiso   1.00
H1583  H     0.33576   0.94834   0.76917   0.00000  Uiso   1.00
H1584  H     0.41084   0.96296   0.80739   0.00000  Uiso   1.00
H1585  H     0.39524   0.50488   0.75837   0.00000  Uiso   1.00
H1586  H     0.39283   0.52153   0.82288   0.00000  Uiso   1.00
H1587  H     0.25576   0.97984   0.92848   0.00000  Uiso   1.00
H1588  H     0.25597   0.53530   0.95998   0.00000  Uiso   1.00
H1589  H     0.32842   0.51431   0.66988   0.00000  Uiso   1.00
H1590  H     0.29198   0.96651   0.67721   0.00000  Uiso   1.00
H1591  H     0.33383   0.96206   0.96626   0.00000  Uiso   1.00
H1592  H     0.03599   0.76502   0.70242   0.00000  Uiso   1.00
H1593  H     0.17775   0.50319   0.88478   0.00000  Uiso   1.00
H1594  H     0.15353   0.94680   0.88617   0.00000  Uiso   1.00
H1595  H     0.08454   0.97939   0.84104   0.00000  Uiso   1.00
H1596  H     0.09797   0.51164   0.89727   0.00000  Uiso   1.00
H1597  H     0.10913   0.53576   0.83742   0.00000  Uiso   1.00
H1598  H     0.02534   0.84166   0.99711   0.00000  Uiso   1.00
H1599  H     0.47797   0.80720   0.97856   0.00000  Uiso   1.00
H1600  H     0.47283   0.85193   0.69140   0.00000  Uiso   1.00
N1601  N     0.25000   0.62624   0.83333   0.00000  Uiso   1.00
N1602  N     0.25000   0.87377   0.83333   0.00000  Uiso   1.00
O1603  O     0.18453   0.78974   0.83334   0.00000  Uiso   1.00
O1604  O     0.35605   0.89095   0.89768   0.00000  Uiso   1.00
O1605  O     0.30272   0.60877   0.95371   0.00000  Uiso   1.00
O1606  O     0.15887   0.90302   0.74580   0.00000  Uiso   1.00
O1607  O     0.02441   0.81179   0.76031   0.00000  Uiso   1.00
O1608  O     0.47697   0.66596   0.79640   0.00000  Uiso   1.00
O1609  O     0.47251   0.83192   0.83134   0.00000  Uiso   1.00
O1610  O     0.02576   0.68841   0.88550   0.00000  Uiso   1.00
O1611  O     0.10931   0.82884   0.79580   0.00000  Uiso   1.00
O1612  O     0.38741   0.66339   0.80779   0.00000  Uiso   1.00
O1613  O     0.38247   0.83286   0.81499   0.00000  Uiso   1.00
O1614  O     0.31547   0.71026   0.83333   0.00000  Uiso   1.00
O1615  O     0.11842   0.68980   0.89485   0.00000  Uiso   1.00
O1616  O     0.19539   0.53407   0.76060   0.00000  Uiso   1.00
O1617  O     0.33018   0.96561   0.84423   0.00000  Uiso   1.00
O1618  O     0.30134   0.52704   0.90572   0.00000  Uiso   1.00
O1619  O     0.16871   0.97004   0.81601   0.00000  Uiso   1.00
O1620  O     0.31547   0.78974   0.83333   0.00000  Uiso   1.00
O1621  O     0.18453   0.71026   0.83334   0.00000  Uiso   1.00
O1622  O     0.25000   0.78973   0.76178   0.00000  Uiso   1.00
O1623  O     0.25000   0.71027   0.90489   0.00000  Uiso   1.00
O1624  O     0.25000   0.78973   0.90489   0.00000  Uiso   1.00
O1625  O     0.25000   0.71027   0.76178   0.00000  Uiso   1.00
O1626  O     0.19881   0.61805   0.71309   0.00000  Uiso   1.00
Zn1627 Zn    0.25000   0.80307   0.83333   0.00000  Uiso   1.00
Zn1628 Zn    0.25000   0.69693   0.83333   0.00000  Uiso   1.00
C1629  C     0.66401   0.75082   0.83470   0.00000  Uiso   1.00
C1630  C     0.71037   0.94804   0.82081   0.00000  Uiso   1.00
C1631  C     0.74975   0.75007   0.73958   0.00000  Uiso   1.00
C1632  C     0.75021   0.74993   0.92709   0.00000  Uiso   1.00
C1633  C     0.74870   0.52667   0.83284   0.00000  Uiso   1.00
C1634  C     0.74925   0.97323   0.83192   0.00000  Uiso   1.00
C1635  C     0.74990   0.75008   0.68843   0.00000  Uiso   1.00
C1636  C     0.75006   0.74990   0.97824   0.00000  Uiso   1.00
C1637  C     0.54641   0.78025   0.79346   0.00000  Uiso   1.00
C1638  C     0.95360   0.70656   0.80777   0.00000  Uiso   1.00
C1639  C     0.95175   0.78995   0.82464   0.00000  Uiso   1.00
C1640  C     0.83603   0.74916   0.83023   0.00000  Uiso   1.00
C1641  C     0.54803   0.71720   0.85509   0.00000  Uiso   1.00
C1642  C     0.59075   0.78717   0.80729   0.00000  Uiso   1.00
C1643  C     0.90821   0.70526   0.81502   0.00000  Uiso   1.00
C1644  C     0.90569   0.79033   0.82005   0.00000  Uiso   1.00
C1645  C     0.59447   0.71718   0.85917   0.00000  Uiso   1.00
C1646  C     0.61583   0.75215   0.83426   0.00000  Uiso   1.00
C1647  C     0.88380   0.74782   0.82229   0.00000  Uiso   1.00
C1648  C     0.52418   0.74716   0.82023   0.00000  Uiso   1.00
C1649  C     0.97582   0.74800   0.81736   0.00000  Uiso   1.00
C1650  C     0.69999   0.63074   0.75637   0.00000  Uiso   1.00
C1651  C     0.72601   0.60360   0.79608   0.00000  Uiso   1.00
C1652  C     0.82053   0.87343   0.88653   0.00000  Uiso   1.00
C1653  C     0.79760   0.62508   0.91166   0.00000  Uiso   1.00
C1654  C     0.68500   0.87872   0.77228   0.00000  Uiso   1.00
C1655  C     0.50953   0.78864   0.71663   0.00000  Uiso   1.00
C1656  C     0.99566   0.82480   0.67676   0.00000  Uiso   1.00
C1657  C     0.98054   0.66383   0.74453   0.00000  Uiso   1.00
C1658  C     0.99876   0.61560   0.73129   0.00000  Uiso   1.00
C1659  C     0.97494   0.84333   0.88237   0.00000  Uiso   1.00
C1660  C     0.97611   0.89605   0.88810   0.00000  Uiso   1.00
C1661  C     0.52017   0.71051   0.93171   0.00000  Uiso   1.00
C1662  C     0.78609   0.89738   0.85266   0.00000  Uiso   1.00
C1663  C     0.97362   0.70225   0.94739   0.00000  Uiso   1.00
C1664  C     0.59198   0.86497   0.82589   0.00000  Uiso   1.00
C1665  C     0.60979   0.86077   0.88046   0.00000  Uiso   1.00
C1666  C     0.88967   0.63739   0.85283   0.00000  Uiso   1.00
C1667  C     0.93113   0.60515   0.85940   0.00000  Uiso   1.00
C1668  C     0.88543   0.85090   0.76619   0.00000  Uiso   1.00
C1669  C     0.84138   0.84645   0.73579   0.00000  Uiso   1.00
C1670  C     0.62113   0.64310   0.87862   0.00000  Uiso   1.00
C1671  C     0.65620   0.61667   0.91218   0.00000  Uiso   1.00
C1672  C     0.71830   0.51388   0.72169   0.00000  Uiso   1.00
C1673  C     0.77255   0.60064   0.87098   0.00000  Uiso   1.00
C1674  C     0.68433   0.50185   0.67962   0.00000  Uiso   1.00
C1675  C     0.83998   0.97806   0.79538   0.00000  Uiso   1.00
C1676  C     0.88780   0.99274   0.79603   0.00000  Uiso   1.00
C1677  C     0.77716   0.50789   0.94326   0.00000  Uiso   1.00
C1678  C     0.80987   0.98645   0.98336   0.00000  Uiso   1.00
C1679  C     0.65486   0.97952   0.86411   0.00000  Uiso   1.00
C1680  C     0.60870   0.50304   0.85962   0.00000  Uiso   1.00
C1681  C     0.71472   0.89955   0.81124   0.00000  Uiso   1.00
C1682  C     0.72484   0.55412   0.79514   0.00000  Uiso   1.00
C1683  C     0.78899   0.94583   0.84222   0.00000  Uiso   1.00
C1684  C     0.77277   0.55098   0.87119   0.00000  Uiso   1.00
H1685  H     0.68169   0.66236   0.76459   0.00000  Uiso   1.00
H1686  H     0.50425   0.68974   0.73287   0.00000  Uiso   1.00
H1687  H     0.94763   0.66993   0.72357   0.00000  Uiso   1.00
H1688  H     0.97536   0.58864   0.74116   0.00000  Uiso   1.00
H1689  H     0.50312   0.61385   0.69070   0.00000  Uiso   1.00
H1690  H     0.53148   0.60831   0.75189   0.00000  Uiso   1.00
H1691  H     0.50609   0.82730   0.90041   0.00000  Uiso   1.00
H1692  H     0.94589   0.83162   0.90203   0.00000  Uiso   1.00
H1693  H     0.94464   0.91260   0.87161   0.00000  Uiso   1.00
H1694  H     0.97982   0.90503   0.92823   0.00000  Uiso   1.00
H1695  H     0.50439   0.91004   0.86929   0.00000  Uiso   1.00
H1696  H     0.81398   0.84055   0.90374   0.00000  Uiso   1.00
H1697  H     0.52452   0.74902   0.93120   0.00000  Uiso   1.00
H1698  H     0.54481   0.69487   0.96020   0.00000  Uiso   1.00
H1699  H     0.96885   0.66431   0.95184   0.00000  Uiso   1.00
H1700  H     0.96856   0.71959   0.98334   0.00000  Uiso   1.00
H1701  H     0.94846   0.71700   0.91904   0.00000  Uiso   1.00
H1702  H     0.55514   0.86706   0.82356   0.00000  Uiso   1.00
H1703  H     0.60192   0.89892   0.81137   0.00000  Uiso   1.00
H1704  H     0.59730   0.89121   0.90150   0.00000  Uiso   1.00
H1705  H     0.59809   0.82874   0.89788   0.00000  Uiso   1.00
H1706  H     0.64666   0.85993   0.88320   0.00000  Uiso   1.00
H1707  H     0.81193   0.65808   0.90471   0.00000  Uiso   1.00
H1708  H     0.86107   0.61434   0.85031   0.00000  Uiso   1.00
H1709  H     0.88682   0.65965   0.88645   0.00000  Uiso   1.00
H1710  H     0.96027   0.62482   0.87318   0.00000  Uiso   1.00
H1711  H     0.92604   0.57780   0.88758   0.00000  Uiso   1.00
H1712  H     0.93794   0.58806   0.82366   0.00000  Uiso   1.00
H1713  H     0.91239   0.83433   0.74507   0.00000  Uiso   1.00
H1714  H     0.89284   0.88836   0.76924   0.00000  Uiso   1.00
H1715  H     0.84294   0.86363   0.69892   0.00000  Uiso   1.00
H1716  H     0.83460   0.80901   0.72993   0.00000  Uiso   1.00
H1717  H     0.81395   0.86340   0.75540   0.00000  Uiso   1.00
H1718  H     0.68734   0.84203   0.76444   0.00000  Uiso   1.00
H1719  H     0.63103   0.64055   0.83954   0.00000  Uiso   1.00
H1720  H     0.58883   0.62621   0.88131   0.00000  Uiso   1.00
H1721  H     0.64522   0.61467   0.95066   0.00000  Uiso   1.00
H1722  H     0.66163   0.58092   0.89798   0.00000  Uiso   1.00
H1723  H     0.68812   0.63473   0.91299   0.00000  Uiso   1.00
H1724  H     0.73647   0.98114   0.73429   0.00000  Uiso   1.00
H1725  H     0.74243   0.53816   0.70752   0.00000  Uiso   1.00
H1726  H     0.67133   0.53416   0.99326   0.00000  Uiso   1.00
H1727  H     0.69968   0.97809   0.98607   0.00000  Uiso   1.00
H1728  H     0.65614   0.98395   0.69472   0.00000  Uiso   1.00
H1729  H     0.97978   0.76858   0.72326   0.00000  Uiso   1.00
H1730  H     0.81840   0.50810   0.78102   0.00000  Uiso   1.00
H1731  H     0.83576   0.94834   0.76917   0.00000  Uiso   1.00
H1732  H     0.91084   0.96296   0.80739   0.00000  Uiso   1.00
H1733  H     0.89524   0.50488   0.75837   0.00000  Uiso   1.00
H1734  H     0.89283   0.52153   0.82288   0.00000  Uiso   1.00
H1735  H     0.75576   0.97984   0.92848   0.00000  Uiso   1.00
H1736  H     0.75597   0.53530   0.95998   0.00000  Uiso   1.00
H1737  H     0.82842   0.51431   0.66988   0.00000  Uiso   1.00
H1738  H     0.79198   0.96651   0.67721   0.00000  Uiso   1.00
H1739  H     0.83383   0.96206   0.96626   0.00000  Uiso   1.00
H1740  H     0.53599   0.76502   0.70242   0.00000  Uiso   1.00
H1741  H     0.67775   0.50319   0.88478   0.00000  Uiso   1.00
H1742  H     0.65353   0.94680   0.88617   0.00000  Uiso   1.00
H1743  H     0.58454   0.97939   0.84104   0.00000  Uiso   1.00
H1744  H     0.59797   0.51164   0.89727   0.00000  Uiso   1.00
H1745  H     0.60913   0.53576   0.83742   0.00000  Uiso   1.00
H1746  H     0.52534   0.84166   0.99711   0.00000  Uiso   1.00
H1747  H     0.97797   0.80720   0.97856   0.00000  Uiso   1.00
H1748  H     0.97283   0.85193   0.69140   0.00000  Uiso   1.00
N1749  N     0.75000   0.62624   0.83333   0.00000  Uiso   1.00
N1750  N     0.75000   0.87377   0.83333   0.00000  Uiso   1.00
O1751  O     0.68453   0.78974   0.83334   0.00000  Uiso   1.00
O1752  O     0.85605   0.89095   0.89768   0.00000  Uiso   1.00
O1753  O     0.80272   0.60877   0.95371   0.00000  Uiso   1.00
O1754  O     0.65887   0.90302   0.74580   0.00000  Uiso   1.00
O1755  O     0.52441   0.81179   0.76031   0.00000  Uiso   1.00
O1756  O     0.97697   0.66596   0.79640   0.00000  Uiso   1.00
O1757  O     0.97251   0.83192   0.83134   0.00000  Uiso   1.00
O1758  O     0.52576   0.68841   0.88550   0.00000  Uiso   1.00
O1759  O     0.60931   0.82884   0.79580   0.00000  Uiso   1.00
O1760  O     0.88741   0.66339   0.80779   0.00000  Uiso   1.00
O1761  O     0.88247   0.83286   0.81499   0.00000  Uiso   1.00
O1762  O     0.81547   0.71026   0.83333   0.00000  Uiso   1.00
O1763  O     0.61842   0.68980   0.89485   0.00000  Uiso   1.00
O1764  O     0.69539   0.53407   0.76060   0.00000  Uiso   1.00
O1765  O     0.83018   0.96561   0.84423   0.00000  Uiso   1.00
O1766  O     0.80134   0.52704   0.90572   0.00000  Uiso   1.00
O1767  O     0.66871   0.97004   0.81601   0.00000  Uiso   1.00
O1768  O     0.81547   0.78974   0.83333   0.00000  Uiso   1.00
O1769  O     0.68453   0.71026   0.83334   0.00000  Uiso   1.00
O1770  O     0.75000   0.78973   0.76178   0.00000  Uiso   1.00
O1771  O     0.75000   0.71027   0.90489   0.00000  Uiso   1.00
O1772  O     0.75000   0.78973   0.90489   0.00000  Uiso   1.00
O1773  O     0.75000   0.71027   0.76178   0.00000  Uiso   1.00
O1774  O     0.69881   0.61805   0.71309   0.00000  Uiso   1.00
Zn1775 Zn    0.75000   0.80307   0.83333   0.00000  Uiso   1.00
Zn1776 Zn    0.75000   0.69693   0.83333   0.00000  Uiso   1.00
loop_
_geom_bond_atom_site_label_1
_geom_bond_atom_site_label_2
_geom_bond_distance
_geom_bond_site_symmetry_2
_ccdc_geom_bond_type
C1     C18     1.453   .     S
C1     O123    1.298   .     A
C1     O141    1.298   .     A
C2     O139    1.382   .     S
C2     C6      1.417   .     A
C2     C53     1.417   .     A
C3     C7      1.377   .     S
C3     O142    1.286   .     A
C3     O145    1.285   .     A
C4     C8      1.377   .     S
C4     O143    1.286   .     A
C4     O144    1.285   .     A
C5     C56     1.422   .     A
C5     C54     1.420   .     A
C5     C302    1.531   1_545 S
C6     C55     1.419   .     A
C6     C301    1.531   .     S
C7     C1192   1.172   1_554 S
C8     C599    1.172   .     S
C9     O127    1.385   .     S
C9     C14     1.386   .     A
C9     C20     1.407   .     A
C10    O128    1.384   .     S
C10    C21     1.402   .     A
C10    C15     1.399   .     A
C11    O129    1.384   .     S
C11    C21     1.402   .     A
C11    C16     1.387   .     A
C12    O140    1.303   .     A
C12    O134    1.302   .     A
C12    C19     1.471   .     S
C13    O130    1.384   .     S
C13    C20     1.410   .     A
C13    C17     1.398   .     A
C14    C18     1.402   .     A
C14    O131    1.381   .     S
C15    C19     1.422   .     A
C15    O132    1.384   .     S
C16    O133    1.384   .     S
C16    C19     1.411   .     A
C17    O135    1.384   .     S
C17    C18     1.405   .     A
C20    C169    1.456   1_455 S
C21    C168    1.456   .     S
C22    H57     1.075   .     S
C22    O146    1.220   .     D
C22    C23     1.482   .     S
C23    N121    1.376   .     A
C23    C54     1.420   .     A
C24    O124    1.221   .     D
C24    C34     1.481   .     S
C24    H68     1.079   .     S
C25    O125    1.220   .     D
C25    C45     1.481   .     S
C25    H79     1.076   .     S
C26    O126    1.221   .     D
C26    C53     1.476   .     S
C26    H90     1.074   .     S
C27    O127    1.407   .     S
C27    H112    1.116   .     S
C27    C176    1.515   1_455 S
C27    H249    1.109   1_455 S
C28    H120    1.110   .     S
C28    C175    1.515   .     S
C28    H1450   1.111   1_554 S
C28    H1303   1.106   1_554 S
C29    H59     1.115   .     S
C29    C30     1.521   .     S
C29    O128    1.409   .     S
C29    H206    1.110   .     S
C30    H60     1.110   .     S
C30    H209    1.110   .     S
C30    H210    1.111   .     S
C31    H64     1.117   .     S
C31    C32     1.521   .     S
C31    O129    1.411   .     S
C31    H211    1.110   .     S
C32    H66     1.110   .     S
C32    H65     1.109   .     S
C32    H215    1.109   .     S
C33    O130    1.416   .     S
C33    H69     1.117   .     S
C33    H70     1.111   .     S
C33    C183    1.522   1_455 S
C34    C55     1.423   .     A
C34    N122    1.377   .     A
C35    H71     1.109   .     S
C35    H73     1.110   .     S
C35    H72     1.107   .     S
C35    C181    1.522   .     S
C36    C37     1.531   .     S
C36    O131    1.423   .     S
C36    H75     1.107   .     S
C36    H74     1.109   .     S
C37    H77     1.110   .     S
C37    H76     1.110   .     S
C37    H78     1.110   .     S
C38    C39     1.526   .     S
C38    O132    1.416   .     S
C38    H81     1.115   .     S
C38    H80     1.106   .     S
C39    H84     1.109   .     S
C39    H82     1.106   .     S
C39    H83     1.111   .     S
C40    H86     1.107   .     S
C40    H85     1.116   .     S
C40    C41     1.523   .     S
C40    O133    1.419   .     S
C41    H89     1.110   .     S
C41    H87     1.111   .     S
C41    H88     1.110   .     S
C42    H91     1.115   .     S
C42    O135    1.411   .     S
C42    C43     1.520   .     S
C42    H92     1.112   .     S
C43    H94     1.105   .     S
C43    H93     1.111   .     S
C43    H95     1.110   .     S
C44    O136    1.408   .     S
C44    C46     1.524   .     S
C44    H97     1.112   .     S
C44    H392    1.108   1_545 S
C45    C56     1.423   .     A
C45    N121    1.374   .     A
C46    H1282   1.110   1_554 S
C46    H1579   1.108   1_544 S
C46    H396    1.110   1_545 S
C47    H103    1.114   .     S
C47    C48     1.518   .     S
C47    O137    1.415   .     S
C47    H398    1.111   .     S
C48    H104    1.108   .     S
C48    H401    1.111   .     S
C48    H402    1.107   .     S
C49    O138    1.408   .     S
C49    H108    1.110   .     S
C49    C346    1.523   1_545 S
C49    H403    1.109   1_545 S
C50    H111    1.110   .     S
C50    C345    1.523   .     S
C50    H997    1.111   .     S
C50    H702    1.108   .     S
C51    H114    1.111   .     S
C51    O139    1.412   .     S
C51    C348    1.521   .     S
C51    H409    1.111   .     S
C52    H117    1.111   .     S
C52    H116    1.111   .     S
C52    C347    1.521   1_545 S
C52    H411    1.110   1_545 S
C53    N122    1.372   .     A
C54    O136    1.384   .     S
C55    O137    1.384   .     S
C56    O138    1.385   .     S
H58    C177    1.110   1_455 S
H61    C178    1.110   1_455 S
H62    C178    1.111   1_455 S
H63    C179    1.110   1_455 S
H67    C180    1.109   1_455 S
H96    C340    1.108   .     S
H98    C638    1.110   .     S
H99    C934    1.108   .     S
H100   C342    1.110   .     S
H101   C175    1.109   .     S
H102   C343    1.111   1_545 S
H105   C344    1.111   1_545 S
H106   C344    1.107   1_545 S
H107   C345    1.109   .     S
H109   C1530   1.111   1_544 S
H110   C1234   1.108   1_554 S
H113   C347    1.111   1_545 S
H115   C348    1.110   .     S
H118   C768    1.111   1_455 S
H119   C620    1.106   .     S
N121   Zn148   2.026   .     S
N122   Zn147   2.026   .     S
O123   Zn147   2.027   .     S
O134   Zn148   2.027   .     S
O140   Zn147   1.998   .     S
O141   Zn148   1.998   .     S
O142   Zn147   1.965   .     S
O143   Zn148   1.965   .     S
O144   Zn147   1.962   .     S
O145   Zn148   1.962   .     S
C149   C166    1.453   .     S
C149   O271    1.298   .     A
C149   O289    1.298   .     A
C150   O287    1.382   .     S
C150   C154    1.417   .     A
C150   C201    1.417   .     A
C151   C155    1.377   .     S
C151   O290    1.286   .     A
C151   O293    1.285   .     A
C152   C156    1.377   .     S
C152   O291    1.286   .     A
C152   O292    1.285   .     A
C153   C204    1.422   .     A
C153   C202    1.420   .     A
C153   C450    1.531   1_545 S
C154   C203    1.419   .     A
C154   C449    1.531   .     S
C155   C1340   1.172   1_554 S
C156   C747    1.172   .     S
C157   O275    1.385   .     S
C157   C162    1.386   .     A
C157   C168    1.407   .     A
C158   O276    1.384   .     S
C158   C169    1.402   .     A
C158   C163    1.399   .     A
C159   O277    1.384   .     S
C159   C169    1.402   .     A
C159   C164    1.387   .     A
C160   O288    1.303   .     A
C160   O282    1.302   .     A
C160   C167    1.471   .     S
C161   O278    1.384   .     S
C161   C168    1.410   .     A
C161   C165    1.398   .     A
C162   C166    1.402   .     A
C162   O279    1.381   .     S
C163   C167    1.422   .     A
C163   O280    1.384   .     S
C164   O281    1.384   .     S
C164   C167    1.411   .     A
C165   O283    1.384   .     S
C165   C166    1.405   .     A
C169   C20     1.456   1_655 S
C170   H205    1.075   .     S
C170   O294    1.220   .     D
C170   C171    1.482   .     S
C171   N269    1.376   .     A
C171   C202    1.420   .     A
C172   O272    1.221   .     D
C172   C182    1.481   .     S
C172   H216    1.079   .     S
C173   O273    1.220   .     D
C173   C193    1.481   .     S
C173   H227    1.076   .     S
C174   O274    1.221   .     D
C174   C201    1.476   .     S
C174   H238    1.074   .     S
C175   O275    1.407   .     S
C175   H260    1.116   .     S
C176   H268    1.110   .     S
C176   C27     1.515   1_655 S
C176   H1302   1.111   1_654 S
C176   H1451   1.106   1_554 S
C177   H207    1.115   .     S
C177   C178    1.521   .     S
C177   O276    1.409   .     S
C177   H58     1.110   1_655 S
C178   H208    1.110   .     S
C178   H61     1.110   1_655 S
C178   H62     1.111   1_655 S
C179   H212    1.117   .     S
C179   C180    1.521   .     S
C179   O277    1.411   .     S
C179   H63     1.110   1_655 S
C180   H214    1.110   .     S
C180   H213    1.109   .     S
C180   H67     1.109   1_655 S
C181   O278    1.416   .     S
C181   H217    1.117   .     S
C181   H218    1.111   .     S
C182   C203    1.423   .     A
C182   N270    1.377   .     A
C183   H219    1.109   .     S
C183   H221    1.110   .     S
C183   H220    1.107   .     S
C183   C33     1.522   1_655 S
C184   C185    1.531   .     S
C184   O279    1.423   .     S
C184   H223    1.107   .     S
C184   H222    1.109   .     S
C185   H225    1.110   .     S
C185   H224    1.110   .     S
C185   H226    1.110   .     S
C186   C187    1.526   .     S
C186   O280    1.416   .     S
C186   H229    1.115   .     S
C186   H228    1.106   .     S
C187   H232    1.109   .     S
C187   H230    1.106   .     S
C187   H231    1.111   .     S
C188   H234    1.107   .     S
C188   H233    1.116   .     S
C188   C189    1.523   .     S
C188   O281    1.419   .     S
C189   H237    1.110   .     S
C189   H235    1.111   .     S
C189   H236    1.110   .     S
C190   H239    1.115   .     S
C190   O283    1.411   .     S
C190   C191    1.520   .     S
C190   H240    1.112   .     S
C191   H242    1.105   .     S
C191   H241    1.111   .     S
C191   H243    1.110   .     S
C192   O284    1.408   .     S
C192   C194    1.524   .     S
C192   H245    1.112   .     S
C192   H540    1.108   1_545 S
C193   C204    1.423   .     A
C193   N269    1.374   .     A
C194   H1430   1.110   1_554 S
C194   H1727   1.108   1_544 S
C194   H544    1.110   1_545 S
C195   H251    1.114   .     S
C195   C196    1.518   .     S
C195   O285    1.415   .     S
C195   H546    1.111   .     S
C196   H252    1.108   .     S
C196   H549    1.111   .     S
C196   H550    1.107   .     S
C197   O286    1.408   .     S
C197   H256    1.110   .     S
C197   C494    1.523   1_545 S
C197   H551    1.109   1_545 S
C198   H259    1.110   .     S
C198   C493    1.523   .     S
C198   H1145   1.111   .     S
C198   H850    1.108   .     S
C199   H262    1.111   .     S
C199   O287    1.412   .     S
C199   C496    1.521   .     S
C199   H557    1.111   .     S
C200   H265    1.111   .     S
C200   H264    1.111   .     S
C200   C495    1.521   1_545 S
C200   H559    1.110   1_545 S
C201   N270    1.372   .     A
C202   O284    1.384   .     S
C203   O285    1.384   .     S
C204   O286    1.385   .     S
H244   C488    1.108   .     S
H246   C786    1.110   .     S
H247   C1082   1.108   .     S
H248   C490    1.110   .     S
H249   C27     1.109   1_655 S
H250   C491    1.111   1_545 S
H253   C492    1.111   1_545 S
H254   C492    1.107   1_545 S
H255   C493    1.109   .     S
H257   C1678   1.111   1_544 S
H258   C1382   1.108   1_554 S
H261   C495    1.111   1_545 S
H263   C496    1.110   .     S
H266   C620    1.111   .     S
H267   C768    1.106   .     S
N269   Zn296   2.026   .     S
N270   Zn295   2.026   .     S
O271   Zn295   2.027   .     S
O282   Zn296   2.027   .     S
O288   Zn295   1.998   .     S
O289   Zn296   1.998   .     S
O290   Zn295   1.965   .     S
O291   Zn296   1.965   .     S
O292   Zn295   1.962   .     S
O293   Zn296   1.962   .     S
C297   C314    1.453   .     S
C297   O419    1.298   .     A
C297   O437    1.298   .     A
C298   O435    1.382   .     S
C298   C302    1.417   .     A
C298   C349    1.417   .     A
C299   C303    1.377   .     S
C299   O438    1.286   .     A
C299   O441    1.285   .     A
C300   C304    1.377   .     S
C300   O439    1.286   .     A
C300   O440    1.285   .     A
C301   C352    1.422   .     A
C301   C350    1.420   .     A
C302   C351    1.419   .     A
C302   C5      1.531   1_565 S
C303   C1488   1.172   1_554 S
C304   C895    1.172   .     S
C305   O423    1.385   .     S
C305   C310    1.386   .     A
C305   C316    1.407   .     A
C306   O424    1.384   .     S
C306   C317    1.402   .     A
C306   C311    1.399   .     A
C307   O425    1.384   .     S
C307   C317    1.402   .     A
C307   C312    1.387   .     A
C308   O436    1.303   .     A
C308   O430    1.302   .     A
C308   C315    1.471   .     S
C309   O426    1.384   .     S
C309   C316    1.410   .     A
C309   C313    1.398   .     A
C310   C314    1.402   .     A
C310   O427    1.381   .     S
C311   C315    1.422   .     A
C311   O428    1.384   .     S
C312   O429    1.384   .     S
C312   C315    1.411   .     A
C313   O431    1.384   .     S
C313   C314    1.405   .     A
C316   C465    1.456   1_455 S
C317   C464    1.456   .     S
C318   H353    1.075   .     S
C318   O442    1.220   .     D
C318   C319    1.482   .     S
C319   N417    1.376   .     A
C319   C350    1.420   .     A
C320   O420    1.221   .     D
C320   C330    1.481   .     S
C320   H364    1.079   .     S
C321   O421    1.220   .     D
C321   C341    1.481   .     S
C321   H375    1.076   .     S
C322   O422    1.221   .     D
C322   C349    1.476   .     S
C322   H386    1.074   .     S
C323   O423    1.407   .     S
C323   H408    1.116   .     S
C323   C472    1.515   1_455 S
C323   H545    1.109   1_455 S
C324   H416    1.110   .     S
C324   C471    1.515   .     S
C324   H1746   1.111   1_554 S
C324   H1599   1.106   1_554 S
C325   H355    1.115   .     S
C325   C326    1.521   .     S
C325   O424    1.409   .     S
C325   H502    1.110   .     S
C326   H356    1.110   .     S
C326   H505    1.110   .     S
C326   H506    1.111   .     S
C327   H360    1.117   .     S
C327   C328    1.521   .     S
C327   O425    1.411   .     S
C327   H507    1.110   .     S
C328   H362    1.110   .     S
C328   H361    1.109   .     S
C328   H511    1.109   .     S
C329   O426    1.416   .     S
C329   H365    1.117   .     S
C329   H366    1.111   .     S
C329   C479    1.522   1_455 S
C330   C351    1.423   .     A
C330   N418    1.377   .     A
C331   H367    1.109   .     S
C331   H369    1.110   .     S
C331   H368    1.107   .     S
C331   C477    1.522   .     S
C332   C333    1.531   .     S
C332   O427    1.423   .     S
C332   H371    1.107   .     S
C332   H370    1.109   .     S
C333   H373    1.110   .     S
C333   H372    1.110   .     S
C333   H374    1.110   .     S
C334   C335    1.526   .     S
C334   O428    1.416   .     S
C334   H377    1.115   .     S
C334   H376    1.106   .     S
C335   H380    1.109   .     S
C335   H378    1.106   .     S
C335   H379    1.111   .     S
C336   H382    1.107   .     S
C336   H381    1.116   .     S
C336   C337    1.523   .     S
C336   O429    1.419   .     S
C337   H385    1.110   .     S
C337   H383    1.111   .     S
C337   H384    1.110   .     S
C338   H387    1.115   .     S
C338   O431    1.411   .     S
C338   C339    1.520   .     S
C338   H388    1.112   .     S
C339   H390    1.105   .     S
C339   H389    1.111   .     S
C339   H391    1.110   .     S
C340   O432    1.408   .     S
C340   C342    1.524   .     S
C340   H393    1.112   .     S
C341   C352    1.423   .     A
C341   N417    1.374   .     A
C342   H1578   1.110   1_554 S
C342   H1283   1.108   1_554 S
C343   H399    1.114   .     S
C343   C344    1.518   .     S
C343   O433    1.415   .     S
C343   H102    1.111   1_565 S
C344   H400    1.108   .     S
C344   H105    1.111   1_565 S
C344   H106    1.107   1_565 S
C345   O434    1.408   .     S
C345   H404    1.110   .     S
C346   H407    1.110   .     S
C346   C49     1.523   1_565 S
C346   H701    1.111   1_565 S
C346   H998    1.108   .     S
C347   H410    1.111   .     S
C347   O435    1.412   .     S
C347   C52     1.521   1_565 S
C347   H113    1.111   1_565 S
C348   H413    1.111   .     S
C348   H412    1.111   .     S
C349   N418    1.372   .     A
C350   O432    1.384   .     S
C351   O433    1.384   .     S
C352   O434    1.385   .     S
H354   C473    1.110   1_455 S
H357   C474    1.110   1_455 S
H358   C474    1.111   1_455 S
H359   C475    1.110   1_455 S
H363   C476    1.109   1_455 S
H392   C44     1.108   1_565 S
H394   C934    1.110   .     S
H395   C638    1.108   1_565 S
H396   C46     1.110   1_565 S
H397   C471    1.109   .     S
H403   C49     1.109   1_565 S
H405   C1234   1.111   1_554 S
H406   C1530   1.108   1_554 S
H411   C52     1.110   1_565 S
H414   C1064   1.111   1_455 S
H415   C916    1.106   .     S
N417   Zn444   2.026   .     S
N418   Zn443   2.026   .     S
O419   Zn443   2.027   .     S
O430   Zn444   2.027   .     S
O436   Zn443   1.998   .     S
O437   Zn444   1.998   .     S
O438   Zn443   1.965   .     S
O439   Zn444   1.965   .     S
O440   Zn443   1.962   .     S
O441   Zn444   1.962   .     S
C445   C462    1.453   .     S
C445   O567    1.298   .     A
C445   O585    1.298   .     A
C446   O583    1.382   .     S
C446   C450    1.417   .     A
C446   C497    1.417   .     A
C447   C451    1.377   .     S
C447   O586    1.286   .     A
C447   O589    1.285   .     A
C448   C452    1.377   .     S
C448   O587    1.286   .     A
C448   O588    1.285   .     A
C449   C500    1.422   .     A
C449   C498    1.420   .     A
C450   C499    1.419   .     A
C450   C153    1.531   1_565 S
C451   C1636   1.172   1_554 S
C452   C1043   1.172   .     S
C453   O571    1.385   .     S
C453   C458    1.386   .     A
C453   C464    1.407   .     A
C454   O572    1.384   .     S
C454   C465    1.402   .     A
C454   C459    1.399   .     A
C455   O573    1.384   .     S
C455   C465    1.402   .     A
C455   C460    1.387   .     A
C456   O584    1.303   .     A
C456   O578    1.302   .     A
C456   C463    1.471   .     S
C457   O574    1.384   .     S
C457   C464    1.410   .     A
C457   C461    1.398   .     A
C458   C462    1.402   .     A
C458   O575    1.381   .     S
C459   C463    1.422   .     A
C459   O576    1.384   .     S
C460   O577    1.384   .     S
C460   C463    1.411   .     A
C461   O579    1.384   .     S
C461   C462    1.405   .     A
C465   C316    1.456   1_655 S
C466   H501    1.075   .     S
C466   O590    1.220   .     D
C466   C467    1.482   .     S
C467   N565    1.376   .     A
C467   C498    1.420   .     A
C468   O568    1.221   .     D
C468   C478    1.481   .     S
C468   H512    1.079   .     S
C469   O569    1.220   .     D
C469   C489    1.481   .     S
C469   H523    1.076   .     S
C470   O570    1.221   .     D
C470   C497    1.476   .     S
C470   H534    1.074   .     S
C471   O571    1.407   .     S
C471   H556    1.116   .     S
C472   H564    1.110   .     S
C472   C323    1.515   1_655 S
C472   H1598   1.111   1_654 S
C472   H1747   1.106   1_554 S
C473   H503    1.115   .     S
C473   C474    1.521   .     S
C473   O572    1.409   .     S
C473   H354    1.110   1_655 S
C474   H504    1.110   .     S
C474   H357    1.110   1_655 S
C474   H358    1.111   1_655 S
C475   H508    1.117   .     S
C475   C476    1.521   .     S
C475   O573    1.411   .     S
C475   H359    1.110   1_655 S
C476   H510    1.110   .     S
C476   H509    1.109   .     S
C476   H363    1.109   1_655 S
C477   O574    1.416   .     S
C477   H513    1.117   .     S
C477   H514    1.111   .     S
C478   C499    1.423   .     A
C478   N566    1.377   .     A
C479   H515    1.109   .     S
C479   H517    1.110   .     S
C479   H516    1.107   .     S
C479   C329    1.522   1_655 S
C480   C481    1.531   .     S
C480   O575    1.423   .     S
C480   H519    1.107   .     S
C480   H518    1.109   .     S
C481   H521    1.110   .     S
C481   H520    1.110   .     S
C481   H522    1.110   .     S
C482   C483    1.526   .     S
C482   O576    1.416   .     S
C482   H525    1.115   .     S
C482   H524    1.106   .     S
C483   H528    1.109   .     S
C483   H526    1.106   .     S
C483   H527    1.111   .     S
C484   H530    1.107   .     S
C484   H529    1.116   .     S
C484   C485    1.523   .     S
C484   O577    1.419   .     S
C485   H533    1.110   .     S
C485   H531    1.111   .     S
C485   H532    1.110   .     S
C486   H535    1.115   .     S
C486   O579    1.411   .     S
C486   C487    1.520   .     S
C486   H536    1.112   .     S
C487   H538    1.105   .     S
C487   H537    1.111   .     S
C487   H539    1.110   .     S
C488   O580    1.408   .     S
C488   C490    1.524   .     S
C488   H541    1.112   .     S
C489   C500    1.423   .     A
C489   N565    1.374   .     A
C490   H1726   1.110   1_554 S
C490   H1431   1.108   1_554 S
C491   H547    1.114   .     S
C491   C492    1.518   .     S
C491   O581    1.415   .     S
C491   H250    1.111   1_565 S
C492   H548    1.108   .     S
C492   H253    1.111   1_565 S
C492   H254    1.107   1_565 S
C493   O582    1.408   .     S
C493   H552    1.110   .     S
C494   H555    1.110   .     S
C494   C197    1.523   1_565 S
C494   H849    1.111   1_565 S
C494   H1146   1.108   .     S
C495   H558    1.111   .     S
C495   O583    1.412   .     S
C495   C200    1.521   1_565 S
C495   H261    1.111   1_565 S
C496   H561    1.111   .     S
C496   H560    1.111   .     S
C497   N566    1.372   .     A
C498   O580    1.384   .     S
C499   O581    1.384   .     S
C500   O582    1.385   .     S
H540   C192    1.108   1_565 S
H542   C1082   1.110   .     S
H543   C786    1.108   1_565 S
H544   C194    1.110   1_565 S
H545   C323    1.109   1_655 S
H551   C197    1.109   1_565 S
H553   C1382   1.111   1_554 S
H554   C1678   1.108   1_554 S
H559   C200    1.110   1_565 S
H562   C916    1.111   .     S
H563   C1064   1.106   .     S
N565   Zn592   2.026   .     S
N566   Zn591   2.026   .     S
O567   Zn591   2.027   .     S
O578   Zn592   2.027   .     S
O584   Zn591   1.998   .     S
O585   Zn592   1.998   .     S
O586   Zn591   1.965   .     S
O587   Zn592   1.965   .     S
O588   Zn591   1.962   .     S
O589   Zn592   1.962   .     S
C593   C610    1.453   .     S
C593   O715    1.298   .     A
C593   O733    1.298   .     A
C594   O731    1.382   .     S
C594   C598    1.417   .     A
C594   C645    1.417   .     A
C595   C599    1.377   .     S
C595   O734    1.286   .     A
C595   O737    1.285   .     A
C596   C600    1.377   .     S
C596   O735    1.286   .     A
C596   O736    1.285   .     A
C597   C648    1.422   .     A
C597   C646    1.420   .     A
C597   C894    1.531   1_545 S
C598   C647    1.419   .     A
C598   C893    1.531   .     S
C600   C1191   1.172   .     S
C601   O719    1.385   .     S
C601   C606    1.386   .     A
C601   C612    1.407   .     A
C602   O720    1.384   .     S
C602   C613    1.402   .     A
C602   C607    1.399   .     A
C603   O721    1.384   .     S
C603   C613    1.402   .     A
C603   C608    1.387   .     A
C604   O732    1.303   .     A
C604   O726    1.302   .     A
C604   C611    1.471   .     S
C605   O722    1.384   .     S
C605   C612    1.410   .     A
C605   C609    1.398   .     A
C606   C610    1.402   .     A
C606   O723    1.381   .     S
C607   C611    1.422   .     A
C607   O724    1.384   .     S
C608   O725    1.384   .     S
C608   C611    1.411   .     A
C609   O727    1.384   .     S
C609   C610    1.405   .     A
C612   C761    1.456   1_455 S
C613   C760    1.456   .     S
C614   H649    1.075   .     S
C614   O738    1.220   .     D
C614   C615    1.482   .     S
C615   N713    1.376   .     A
C615   C646    1.420   .     A
C616   O716    1.221   .     D
C616   C626    1.481   .     S
C616   H660    1.079   .     S
C617   O717    1.220   .     D
C617   C637    1.481   .     S
C617   H671    1.076   .     S
C618   O718    1.221   .     D
C618   C645    1.476   .     S
C618   H682    1.074   .     S
C619   O719    1.407   .     S
C619   H704    1.116   .     S
C619   C768    1.515   1_455 S
C619   H841    1.109   1_455 S
C620   H712    1.110   .     S
C620   C767    1.515   .     S
C621   H651    1.115   .     S
C621   C622    1.521   .     S
C621   O720    1.409   .     S
C621   H798    1.110   .     S
C622   H652    1.110   .     S
C622   H801    1.110   .     S
C622   H802    1.111   .     S
C623   H656    1.117   .     S
C623   C624    1.521   .     S
C623   O721    1.411   .     S
C623   H803    1.110   .     S
C624   H658    1.110   .     S
C624   H657    1.109   .     S
C624   H807    1.109   .     S
C625   O722    1.416   .     S
C625   H661    1.117   .     S
C625   H662    1.111   .     S
C625   C775    1.522   1_455 S
C626   C647    1.423   .     A
C626   N714    1.377   .     A
C627   H663    1.109   .     S
C627   H665    1.110   .     S
C627   H664    1.107   .     S
C627   C773    1.522   .     S
C628   C629    1.531   .     S
C628   O723    1.423   .     S
C628   H667    1.107   .     S
C628   H666    1.109   .     S
C629   H669    1.110   .     S
C629   H668    1.110   .     S
C629   H670    1.110   .     S
C630   C631    1.526   .     S
C630   O724    1.416   .     S
C630   H673    1.115   .     S
C630   H672    1.106   .     S
C631   H676    1.109   .     S
C631   H674    1.106   .     S
C631   H675    1.111   .     S
C632   H678    1.107   .     S
C632   H677    1.116   .     S
C632   C633    1.523   .     S
C632   O725    1.419   .     S
C633   H681    1.110   .     S
C633   H679    1.111   .     S
C633   H680    1.110   .     S
C634   H683    1.115   .     S
C634   O727    1.411   .     S
C634   C635    1.520   .     S
C634   H684    1.112   .     S
C635   H686    1.105   .     S
C635   H685    1.111   .     S
C635   H687    1.110   .     S
C636   O728    1.408   .     S
C636   C638    1.524   .     S
C636   H689    1.112   .     S
C636   H984    1.108   1_545 S
C637   C648    1.423   .     A
C637   N713    1.374   .     A
C638   H395    1.108   1_545 S
C638   H988    1.110   1_545 S
C639   H695    1.114   .     S
C639   C640    1.518   .     S
C639   O729    1.415   .     S
C639   H990    1.111   .     S
C640   H696    1.108   .     S
C640   H993    1.111   .     S
C640   H994    1.107   .     S
C641   O730    1.408   .     S
C641   H700    1.110   .     S
C641   C938    1.523   1_545 S
C641   H995    1.109   1_545 S
C642   H703    1.110   .     S
C642   C937    1.523   .     S
C642   H1589   1.111   .     S
C642   H1294   1.108   .     S
C643   H706    1.111   .     S
C643   O731    1.412   .     S
C643   C940    1.521   .     S
C643   H1001   1.111   .     S
C644   H709    1.111   .     S
C644   H708    1.111   .     S
C644   C939    1.521   1_545 S
C644   H1003   1.110   1_545 S
C645   N714    1.372   .     A
C646   O728    1.384   .     S
C647   O729    1.384   .     S
C648   O730    1.385   .     S
H650   C769    1.110   1_455 S
H653   C770    1.110   1_455 S
H654   C770    1.111   1_455 S
H655   C771    1.110   1_455 S
H659   C772    1.109   1_455 S
H688   C932    1.108   .     S
H690   C1230   1.110   .     S
H691   C1526   1.108   .     S
H692   C934    1.110   .     S
H693   C767    1.109   .     S
H694   C935    1.111   1_545 S
H697   C936    1.111   1_545 S
H698   C936    1.107   1_545 S
H699   C937    1.109   .     S
H701   C346    1.111   1_545 S
H705   C939    1.111   1_545 S
H707   C940    1.110   .     S
H710   C1360   1.111   1_455 S
H711   C1212   1.106   .     S
N713   Zn740   2.026   .     S
N714   Zn739   2.026   .     S
O715   Zn739   2.027   .     S
O726   Zn740   2.027   .     S
O732   Zn739   1.998   .     S
O733   Zn740   1.998   .     S
O734   Zn739   1.965   .     S
O735   Zn740   1.965   .     S
O736   Zn739   1.962   .     S
O737   Zn740   1.962   .     S
C741   C758    1.453   .     S
C741   O863    1.298   .     A
C741   O881    1.298   .     A
C742   O879    1.382   .     S
C742   C746    1.417   .     A
C742   C793    1.417   .     A
C743   C747    1.377   .     S
C743   O882    1.286   .     A
C743   O885    1.285   .     A
C744   C748    1.377   .     S
C744   O883    1.286   .     A
C744   O884    1.285   .     A
C745   C796    1.422   .     A
C745   C794    1.420   .     A
C745   C1042   1.531   1_545 S
C746   C795    1.419   .     A
C746   C1041   1.531   .     S
C748   C1339   1.172   .     S
C749   O867    1.385   .     S
C749   C754    1.386   .     A
C749   C760    1.407   .     A
C750   O868    1.384   .     S
C750   C761    1.402   .     A
C750   C755    1.399   .     A
C751   O869    1.384   .     S
C751   C761    1.402   .     A
C751   C756    1.387   .     A
C752   O880    1.303   .     A
C752   O874    1.302   .     A
C752   C759    1.471   .     S
C753   O870    1.384   .     S
C753   C760    1.410   .     A
C753   C757    1.398   .     A
C754   C758    1.402   .     A
C754   O871    1.381   .     S
C755   C759    1.422   .     A
C755   O872    1.384   .     S
C756   O873    1.384   .     S
C756   C759    1.411   .     A
C757   O875    1.384   .     S
C757   C758    1.405   .     A
C761   C612    1.456   1_655 S
C762   H797    1.075   .     S
C762   O886    1.220   .     D
C762   C763    1.482   .     S
C763   N861    1.376   .     A
C763   C794    1.420   .     A
C764   O864    1.221   .     D
C764   C774    1.481   .     S
C764   H808    1.079   .     S
C765   O865    1.220   .     D
C765   C785    1.481   .     S
C765   H819    1.076   .     S
C766   O866    1.221   .     D
C766   C793    1.476   .     S
C766   H830    1.074   .     S
C767   O867    1.407   .     S
C767   H852    1.116   .     S
C768   H860    1.110   .     S
C768   C619    1.515   1_655 S
C768   H118    1.111   1_655 S
C769   H799    1.115   .     S
C769   C770    1.521   .     S
C769   O868    1.409   .     S
C769   H650    1.110   1_655 S
C770   H800    1.110   .     S
C770   H653    1.110   1_655 S
C770   H654    1.111   1_655 S
C771   H804    1.117   .     S
C771   C772    1.521   .     S
C771   O869    1.411   .     S
C771   H655    1.110   1_655 S
C772   H806    1.110   .     S
C772   H805    1.109   .     S
C772   H659    1.109   1_655 S
C773   O870    1.416   .     S
C773   H809    1.117   .     S
C773   H810    1.111   .     S
C774   C795    1.423   .     A
C774   N862    1.377   .     A
C775   H811    1.109   .     S
C775   H813    1.110   .     S
C775   H812    1.107   .     S
C775   C625    1.522   1_655 S
C776   C777    1.531   .     S
C776   O871    1.423   .     S
C776   H815    1.107   .     S
C776   H814    1.109   .     S
C777   H817    1.110   .     S
C777   H816    1.110   .     S
C777   H818    1.110   .     S
C778   C779    1.526   .     S
C778   O872    1.416   .     S
C778   H821    1.115   .     S
C778   H820    1.106   .     S
C779   H824    1.109   .     S
C779   H822    1.106   .     S
C779   H823    1.111   .     S
C780   H826    1.107   .     S
C780   H825    1.116   .     S
C780   C781    1.523   .     S
C780   O873    1.419   .     S
C781   H829    1.110   .     S
C781   H827    1.111   .     S
C781   H828    1.110   .     S
C782   H831    1.115   .     S
C782   O875    1.411   .     S
C782   C783    1.520   .     S
C782   H832    1.112   .     S
C783   H834    1.105   .     S
C783   H833    1.111   .     S
C783   H835    1.110   .     S
C784   O876    1.408   .     S
C784   C786    1.524   .     S
C784   H837    1.112   .     S
C784   H1132   1.108   1_545 S
C785   C796    1.423   .     A
C785   N861    1.374   .     A
C786   H543    1.108   1_545 S
C786   H1136   1.110   1_545 S
C787   H843    1.114   .     S
C787   C788    1.518   .     S
C787   O877    1.415   .     S
C787   H1138   1.111   .     S
C788   H844    1.108   .     S
C788   H1141   1.111   .     S
C788   H1142   1.107   .     S
C789   O878    1.408   .     S
C789   H848    1.110   .     S
C789   C1086   1.523   1_545 S
C789   H1143   1.109   1_545 S
C790   H851    1.110   .     S
C790   C1085   1.523   .     S
C790   H1737   1.111   .     S
C790   H1442   1.108   .     S
C791   H854    1.111   .     S
C791   O879    1.412   .     S
C791   C1088   1.521   .     S
C791   H1149   1.111   .     S
C792   H857    1.111   .     S
C792   H856    1.111   .     S
C792   C1087   1.521   1_545 S
C792   H1151   1.110   1_545 S
C793   N862    1.372   .     A
C794   O876    1.384   .     S
C795   O877    1.384   .     S
C796   O878    1.385   .     S
H836   C1080   1.108   .     S
H838   C1378   1.110   .     S
H839   C1674   1.108   .     S
H840   C1082   1.110   .     S
H841   C619    1.109   1_655 S
H842   C1083   1.111   1_545 S
H845   C1084   1.111   1_545 S
H846   C1084   1.107   1_545 S
H847   C1085   1.109   .     S
H849   C494    1.111   1_545 S
H853   C1087   1.111   1_545 S
H855   C1088   1.110   .     S
H858   C1212   1.111   .     S
H859   C1360   1.106   .     S
N861   Zn888   2.026   .     S
N862   Zn887   2.026   .     S
O863   Zn887   2.027   .     S
O874   Zn888   2.027   .     S
O880   Zn887   1.998   .     S
O881   Zn888   1.998   .     S
O882   Zn887   1.965   .     S
O883   Zn888   1.965   .     S
O884   Zn887   1.962   .     S
O885   Zn888   1.962   .     S
C889   C906    1.453   .     S
C889   O1011   1.298   .     A
C889   O1029   1.298   .     A
C890   O1027   1.382   .     S
C890   C894    1.417   .     A
C890   C941    1.417   .     A
C891   C895    1.377   .     S
C891   O1030   1.286   .     A
C891   O1033   1.285   .     A
C892   C896    1.377   .     S
C892   O1031   1.286   .     A
C892   O1032   1.285   .     A
C893   C944    1.422   .     A
C893   C942    1.420   .     A
C894   C943    1.419   .     A
C894   C597    1.531   1_565 S
C896   C1487   1.172   .     S
C897   O1015   1.385   .     S
C897   C902    1.386   .     A
C897   C908    1.407   .     A
C898   O1016   1.384   .     S
C898   C909    1.402   .     A
C898   C903    1.399   .     A
C899   O1017   1.384   .     S
C899   C909    1.402   .     A
C899   C904    1.387   .     A
C900   O1028   1.303   .     A
C900   O1022   1.302   .     A
C900   C907    1.471   .     S
C901   O1018   1.384   .     S
C901   C908    1.410   .     A
C901   C905    1.398   .     A
C902   C906    1.402   .     A
C902   O1019   1.381   .     S
C903   C907    1.422   .     A
C903   O1020   1.384   .     S
C904   O1021   1.384   .     S
C904   C907    1.411   .     A
C905   O1023   1.384   .     S
C905   C906    1.405   .     A
C908   C1057   1.456   1_455 S
C909   C1056   1.456   .     S
C910   H945    1.075   .     S
C910   O1034   1.220   .     D
C910   C911    1.482   .     S
C911   N1009   1.376   .     A
C911   C942    1.420   .     A
C912   O1012   1.221   .     D
C912   C922    1.481   .     S
C912   H956    1.079   .     S
C913   O1013   1.220   .     D
C913   C933    1.481   .     S
C913   H967    1.076   .     S
C914   O1014   1.221   .     D
C914   C941    1.476   .     S
C914   H978    1.074   .     S
C915   O1015   1.407   .     S
C915   H1000   1.116   .     S
C915   C1064   1.515   1_455 S
C915   H1137   1.109   1_455 S
C916   H1008   1.110   .     S
C916   C1063   1.515   .     S
C917   H947    1.115   .     S
C917   C918    1.521   .     S
C917   O1016   1.409   .     S
C917   H1094   1.110   .     S
C918   H948    1.110   .     S
C918   H1097   1.110   .     S
C918   H1098   1.111   .     S
C919   H952    1.117   .     S
C919   C920    1.521   .     S
C919   O1017   1.411   .     S
C919   H1099   1.110   .     S
C920   H954    1.110   .     S
C920   H953    1.109   .     S
C920   H1103   1.109   .     S
C921   O1018   1.416   .     S
C921   H957    1.117   .     S
C921   H958    1.111   .     S
C921   C1071   1.522   1_455 S
C922   C943    1.423   .     A
C922   N1010   1.377   .     A
C923   H959    1.109   .     S
C923   H961    1.110   .     S
C923   H960    1.107   .     S
C923   C1069   1.522   .     S
C924   C925    1.531   .     S
C924   O1019   1.423   .     S
C924   H963    1.107   .     S
C924   H962    1.109   .     S
C925   H965    1.110   .     S
C925   H964    1.110   .     S
C925   H966    1.110   .     S
C926   C927    1.526   .     S
C926   O1020   1.416   .     S
C926   H969    1.115   .     S
C926   H968    1.106   .     S
C927   H972    1.109   .     S
C927   H970    1.106   .     S
C927   H971    1.111   .     S
C928   H974    1.107   .     S
C928   H973    1.116   .     S
C928   C929    1.523   .     S
C928   O1021   1.419   .     S
C929   H977    1.110   .     S
C929   H975    1.111   .     S
C929   H976    1.110   .     S
C930   H979    1.115   .     S
C930   O1023   1.411   .     S
C930   C931    1.520   .     S
C930   H980    1.112   .     S
C931   H982    1.105   .     S
C931   H981    1.111   .     S
C931   H983    1.110   .     S
C932   O1024   1.408   .     S
C932   C934    1.524   .     S
C932   H985    1.112   .     S
C933   C944    1.423   .     A
C933   N1009   1.374   .     A
C935   H991    1.114   .     S
C935   C936    1.518   .     S
C935   O1025   1.415   .     S
C935   H694    1.111   1_565 S
C936   H992    1.108   .     S
C936   H697    1.111   1_565 S
C936   H698    1.107   1_565 S
C937   O1026   1.408   .     S
C937   H996    1.110   .     S
C938   H999    1.110   .     S
C938   C641    1.523   1_565 S
C938   H1293   1.111   1_565 S
C938   H1590   1.108   .     S
C939   H1002   1.111   .     S
C939   O1027   1.412   .     S
C939   C644    1.521   1_565 S
C939   H705    1.111   1_565 S
C940   H1005   1.111   .     S
C940   H1004   1.111   .     S
C941   N1010   1.372   .     A
C942   O1024   1.384   .     S
C943   O1025   1.384   .     S
C944   O1026   1.385   .     S
H946   C1065   1.110   1_455 S
H949   C1066   1.110   1_455 S
H950   C1066   1.111   1_455 S
H951   C1067   1.110   1_455 S
H955   C1068   1.109   1_455 S
H984   C636    1.108   1_565 S
H986   C1526   1.110   .     S
H987   C1230   1.108   1_565 S
H988   C638    1.110   1_565 S
H989   C1063   1.109   .     S
H995   C641    1.109   1_565 S
H1003  C644    1.110   1_565 S
H1006  C1656   1.111   1_455 S
H1007  C1508   1.106   .     S
N1009  Zn1036  2.026   .     S
N1010  Zn1035  2.026   .     S
O1011  Zn1035  2.027   .     S
O1022  Zn1036  2.027   .     S
O1028  Zn1035  1.998   .     S
O1029  Zn1036  1.998   .     S
O1030  Zn1035  1.965   .     S
O1031  Zn1036  1.965   .     S
O1032  Zn1035  1.962   .     S
O1033  Zn1036  1.962   .     S
C1037  C1054   1.453   .     S
C1037  O1159   1.298   .     A
C1037  O1177   1.298   .     A
C1038  O1175   1.382   .     S
C1038  C1042   1.417   .     A
C1038  C1089   1.417   .     A
C1039  C1043   1.377   .     S
C1039  O1178   1.286   .     A
C1039  O1181   1.285   .     A
C1040  C1044   1.377   .     S
C1040  O1179   1.286   .     A
C1040  O1180   1.285   .     A
C1041  C1092   1.422   .     A
C1041  C1090   1.420   .     A
C1042  C1091   1.419   .     A
C1042  C745    1.531   1_565 S
C1044  C1635   1.172   .     S
C1045  O1163   1.385   .     S
C1045  C1050   1.386   .     A
C1045  C1056   1.407   .     A
C1046  O1164   1.384   .     S
C1046  C1057   1.402   .     A
C1046  C1051   1.399   .     A
C1047  O1165   1.384   .     S
C1047  C1057   1.402   .     A
C1047  C1052   1.387   .     A
C1048  O1176   1.303   .     A
C1048  O1170   1.302   .     A
C1048  C1055   1.471   .     S
C1049  O1166   1.384   .     S
C1049  C1056   1.410   .     A
C1049  C1053   1.398   .     A
C1050  C1054   1.402   .     A
C1050  O1167   1.381   .     S
C1051  C1055   1.422   .     A
C1051  O1168   1.384   .     S
C1052  O1169   1.384   .     S
C1052  C1055   1.411   .     A
C1053  O1171   1.384   .     S
C1053  C1054   1.405   .     A
C1057  C908    1.456   1_655 S
C1058  H1093   1.075   .     S
C1058  O1182   1.220   .     D
C1058  C1059   1.482   .     S
C1059  N1157   1.376   .     A
C1059  C1090   1.420   .     A
C1060  O1160   1.221   .     D
C1060  C1070   1.481   .     S
C1060  H1104   1.079   .     S
C1061  O1161   1.220   .     D
C1061  C1081   1.481   .     S
C1061  H1115   1.076   .     S
C1062  O1162   1.221   .     D
C1062  C1089   1.476   .     S
C1062  H1126   1.074   .     S
C1063  O1163   1.407   .     S
C1063  H1148   1.116   .     S
C1064  H1156   1.110   .     S
C1064  C915    1.515   1_655 S
C1064  H414    1.111   1_655 S
C1065  H1095   1.115   .     S
C1065  C1066   1.521   .     S
C1065  O1164   1.409   .     S
C1065  H946    1.110   1_655 S
C1066  H1096   1.110   .     S
C1066  H949    1.110   1_655 S
C1066  H950    1.111   1_655 S
C1067  H1100   1.117   .     S
C1067  C1068   1.521   .     S
C1067  O1165   1.411   .     S
C1067  H951    1.110   1_655 S
C1068  H1102   1.110   .     S
C1068  H1101   1.109   .     S
C1068  H955    1.109   1_655 S
C1069  O1166   1.416   .     S
C1069  H1105   1.117   .     S
C1069  H1106   1.111   .     S
C1070  C1091   1.423   .     A
C1070  N1158   1.377   .     A
C1071  H1107   1.109   .     S
C1071  H1109   1.110   .     S
C1071  H1108   1.107   .     S
C1071  C921    1.522   1_655 S
C1072  C1073   1.531   .     S
C1072  O1167   1.423   .     S
C1072  H1111   1.107   .     S
C1072  H1110   1.109   .     S
C1073  H1113   1.110   .     S
C1073  H1112   1.110   .     S
C1073  H1114   1.110   .     S
C1074  C1075   1.526   .     S
C1074  O1168   1.416   .     S
C1074  H1117   1.115   .     S
C1074  H1116   1.106   .     S
C1075  H1120   1.109   .     S
C1075  H1118   1.106   .     S
C1075  H1119   1.111   .     S
C1076  H1122   1.107   .     S
C1076  H1121   1.116   .     S
C1076  C1077   1.523   .     S
C1076  O1169   1.419   .     S
C1077  H1125   1.110   .     S
C1077  H1123   1.111   .     S
C1077  H1124   1.110   .     S
C1078  H1127   1.115   .     S
C1078  O1171   1.411   .     S
C1078  C1079   1.520   .     S
C1078  H1128   1.112   .     S
C1079  H1130   1.105   .     S
C1079  H1129   1.111   .     S
C1079  H1131   1.110   .     S
C1080  O1172   1.408   .     S
C1080  C1082   1.524   .     S
C1080  H1133   1.112   .     S
C1081  C1092   1.423   .     A
C1081  N1157   1.374   .     A
C1083  H1139   1.114   .     S
C1083  C1084   1.518   .     S
C1083  O1173   1.415   .     S
C1083  H842    1.111   1_565 S
C1084  H1140   1.108   .     S
C1084  H845    1.111   1_565 S
C1084  H846    1.107   1_565 S
C1085  O1174   1.408   .     S
C1085  H1144   1.110   .     S
C1086  H1147   1.110   .     S
C1086  C789    1.523   1_565 S
C1086  H1441   1.111   1_565 S
C1086  H1738   1.108   .     S
C1087  H1150   1.111   .     S
C1087  O1175   1.412   .     S
C1087  C792    1.521   1_565 S
C1087  H853    1.111   1_565 S
C1088  H1153   1.111   .     S
C1088  H1152   1.111   .     S
C1089  N1158   1.372   .     A
C1090  O1172   1.384   .     S
C1091  O1173   1.384   .     S
C1092  O1174   1.385   .     S
H1132  C784    1.108   1_565 S
H1134  C1674   1.110   .     S
H1135  C1378   1.108   1_565 S
H1136  C786    1.110   1_565 S
H1137  C915    1.109   1_655 S
H1143  C789    1.109   1_565 S
H1151  C792    1.110   1_565 S
H1154  C1508   1.111   .     S
H1155  C1656   1.106   .     S
N1157  Zn1184  2.026   .     S
N1158  Zn1183  2.026   .     S
O1159  Zn1183  2.027   .     S
O1170  Zn1184  2.027   .     S
O1176  Zn1183  1.998   .     S
O1177  Zn1184  1.998   .     S
O1178  Zn1183  1.965   .     S
O1179  Zn1184  1.965   .     S
O1180  Zn1183  1.962   .     S
O1181  Zn1184  1.962   .     S
C1185  C1202   1.453   .     S
C1185  O1307   1.298   .     A
C1185  O1325   1.298   .     A
C1186  O1323   1.382   .     S
C1186  C1190   1.417   .     A
C1186  C1237   1.417   .     A
C1187  C1191   1.377   .     S
C1187  O1326   1.286   .     A
C1187  O1329   1.285   .     A
C1188  C1192   1.377   .     S
C1188  O1327   1.286   .     A
C1188  O1328   1.285   .     A
C1189  C1240   1.422   .     A
C1189  C1238   1.420   .     A
C1189  C1486   1.531   1_545 S
C1190  C1239   1.419   .     A
C1190  C1485   1.531   .     S
C1192  C7      1.172   1_556 S
C1193  O1311   1.385   .     S
C1193  C1198   1.386   .     A
C1193  C1204   1.407   .     A
C1194  O1312   1.384   .     S
C1194  C1205   1.402   .     A
C1194  C1199   1.399   .     A
C1195  O1313   1.384   .     S
C1195  C1205   1.402   .     A
C1195  C1200   1.387   .     A
C1196  O1324   1.303   .     A
C1196  O1318   1.302   .     A
C1196  C1203   1.471   .     S
C1197  O1314   1.384   .     S
C1197  C1204   1.410   .     A
C1197  C1201   1.398   .     A
C1198  C1202   1.402   .     A
C1198  O1315   1.381   .     S
C1199  C1203   1.422   .     A
C1199  O1316   1.384   .     S
C1200  O1317   1.384   .     S
C1200  C1203   1.411   .     A
C1201  O1319   1.384   .     S
C1201  C1202   1.405   .     A
C1204  C1353   1.456   1_455 S
C1205  C1352   1.456   .     S
C1206  H1241   1.075   .     S
C1206  O1330   1.220   .     D
C1206  C1207   1.482   .     S
C1207  N1305   1.376   .     A
C1207  C1238   1.420   .     A
C1208  O1308   1.221   .     D
C1208  C1218   1.481   .     S
C1208  H1252   1.079   .     S
C1209  O1309   1.220   .     D
C1209  C1229   1.481   .     S
C1209  H1263   1.076   .     S
C1210  O1310   1.221   .     D
C1210  C1237   1.476   .     S
C1210  H1274   1.074   .     S
C1211  O1311   1.407   .     S
C1211  H1296   1.116   .     S
C1211  C1360   1.515   1_455 S
C1211  H1433   1.109   1_455 S
C1212  H1304   1.110   .     S
C1212  C1359   1.515   .     S
C1213  H1243   1.115   .     S
C1213  C1214   1.521   .     S
C1213  O1312   1.409   .     S
C1213  H1390   1.110   .     S
C1214  H1244   1.110   .     S
C1214  H1393   1.110   .     S
C1214  H1394   1.111   .     S
C1215  H1248   1.117   .     S
C1215  C1216   1.521   .     S
C1215  O1313   1.411   .     S
C1215  H1395   1.110   .     S
C1216  H1250   1.110   .     S
C1216  H1249   1.109   .     S
C1216  H1399   1.109   .     S
C1217  O1314   1.416   .     S
C1217  H1253   1.117   .     S
C1217  H1254   1.111   .     S
C1217  C1367   1.522   1_455 S
C1218  C1239   1.423   .     A
C1218  N1306   1.377   .     A
C1219  H1255   1.109   .     S
C1219  H1257   1.110   .     S
C1219  H1256   1.107   .     S
C1219  C1365   1.522   .     S
C1220  C1221   1.531   .     S
C1220  O1315   1.423   .     S
C1220  H1259   1.107   .     S
C1220  H1258   1.109   .     S
C1221  H1261   1.110   .     S
C1221  H1260   1.110   .     S
C1221  H1262   1.110   .     S
C1222  C1223   1.526   .     S
C1222  O1316   1.416   .     S
C1222  H1265   1.115   .     S
C1222  H1264   1.106   .     S
C1223  H1268   1.109   .     S
C1223  H1266   1.106   .     S
C1223  H1267   1.111   .     S
C1224  H1270   1.107   .     S
C1224  H1269   1.116   .     S
C1224  C1225   1.523   .     S
C1224  O1317   1.419   .     S
C1225  H1273   1.110   .     S
C1225  H1271   1.111   .     S
C1225  H1272   1.110   .     S
C1226  H1275   1.115   .     S
C1226  O1319   1.411   .     S
C1226  C1227   1.520   .     S
C1226  H1276   1.112   .     S
C1227  H1278   1.105   .     S
C1227  H1277   1.111   .     S
C1227  H1279   1.110   .     S
C1228  O1320   1.408   .     S
C1228  C1230   1.524   .     S
C1228  H1281   1.112   .     S
C1228  H1576   1.108   1_545 S
C1229  C1240   1.423   .     A
C1229  N1305   1.374   .     A
C1230  H987    1.108   1_545 S
C1230  H1580   1.110   1_545 S
C1231  H1287   1.114   .     S
C1231  C1232   1.518   .     S
C1231  O1321   1.415   .     S
C1231  H1582   1.111   .     S
C1232  H1288   1.108   .     S
C1232  H1585   1.111   .     S
C1232  H1586   1.107   .     S
C1233  O1322   1.408   .     S
C1233  H1292   1.110   .     S
C1233  C1530   1.523   1_545 S
C1233  H1587   1.109   1_545 S
C1234  H1295   1.110   .     S
C1234  C1529   1.523   .     S
C1234  H405    1.111   1_556 S
C1234  H110    1.108   1_556 S
C1235  H1298   1.111   .     S
C1235  O1323   1.412   .     S
C1235  C1532   1.521   .     S
C1235  H1593   1.111   .     S
C1236  H1301   1.111   .     S
C1236  H1300   1.111   .     S
C1236  C1531   1.521   1_545 S
C1236  H1595   1.110   1_545 S
C1237  N1306   1.372   .     A
C1238  O1320   1.384   .     S
C1239  O1321   1.384   .     S
C1240  O1322   1.385   .     S
H1242  C1361   1.110   1_455 S
H1245  C1362   1.110   1_455 S
H1246  C1362   1.111   1_455 S
H1247  C1363   1.110   1_455 S
H1251  C1364   1.109   1_455 S
H1280  C1524   1.108   .     S
H1282  C46     1.110   1_556 S
H1283  C342    1.108   1_556 S
H1284  C1526   1.110   .     S
H1285  C1359   1.109   .     S
H1286  C1527   1.111   1_545 S
H1289  C1528   1.111   1_545 S
H1290  C1528   1.107   1_545 S
H1291  C1529   1.109   .     S
H1293  C938    1.111   1_545 S
H1297  C1531   1.111   1_545 S
H1299  C1532   1.110   .     S
H1302  C176    1.111   1_456 S
H1303  C28     1.106   1_556 S
N1305  Zn1332  2.026   .     S
N1306  Zn1331  2.026   .     S
O1307  Zn1331  2.027   .     S
O1318  Zn1332  2.027   .     S
O1324  Zn1331  1.998   .     S
O1325  Zn1332  1.998   .     S
O1326  Zn1331  1.965   .     S
O1327  Zn1332  1.965   .     S
O1328  Zn1331  1.962   .     S
O1329  Zn1332  1.962   .     S
C1333  C1350   1.453   .     S
C1333  O1455   1.298   .     A
C1333  O1473   1.298   .     A
C1334  O1471   1.382   .     S
C1334  C1338   1.417   .     A
C1334  C1385   1.417   .     A
C1335  C1339   1.377   .     S
C1335  O1474   1.286   .     A
C1335  O1477   1.285   .     A
C1336  C1340   1.377   .     S
C1336  O1475   1.286   .     A
C1336  O1476   1.285   .     A
C1337  C1388   1.422   .     A
C1337  C1386   1.420   .     A
C1337  C1634   1.531   1_545 S
C1338  C1387   1.419   .     A
C1338  C1633   1.531   .     S
C1340  C155    1.172   1_556 S
C1341  O1459   1.385   .     S
C1341  C1346   1.386   .     A
C1341  C1352   1.407   .     A
C1342  O1460   1.384   .     S
C1342  C1353   1.402   .     A
C1342  C1347   1.399   .     A
C1343  O1461   1.384   .     S
C1343  C1353   1.402   .     A
C1343  C1348   1.387   .     A
C1344  O1472   1.303   .     A
C1344  O1466   1.302   .     A
C1344  C1351   1.471   .     S
C1345  O1462   1.384   .     S
C1345  C1352   1.410   .     A
C1345  C1349   1.398   .     A
C1346  C1350   1.402   .     A
C1346  O1463   1.381   .     S
C1347  C1351   1.422   .     A
C1347  O1464   1.384   .     S
C1348  O1465   1.384   .     S
C1348  C1351   1.411   .     A
C1349  O1467   1.384   .     S
C1349  C1350   1.405   .     A
C1353  C1204   1.456   1_655 S
C1354  H1389   1.075   .     S
C1354  O1478   1.220   .     D
C1354  C1355   1.482   .     S
C1355  N1453   1.376   .     A
C1355  C1386   1.420   .     A
C1356  O1456   1.221   .     D
C1356  C1366   1.481   .     S
C1356  H1400   1.079   .     S
C1357  O1457   1.220   .     D
C1357  C1377   1.481   .     S
C1357  H1411   1.076   .     S
C1358  O1458   1.221   .     D
C1358  C1385   1.476   .     S
C1358  H1422   1.074   .     S
C1359  O1459   1.407   .     S
C1359  H1444   1.116   .     S
C1360  H1452   1.110   .     S
C1360  C1211   1.515   1_655 S
C1360  H710    1.111   1_655 S
C1361  H1391   1.115   .     S
C1361  C1362   1.521   .     S
C1361  O1460   1.409   .     S
C1361  H1242   1.110   1_655 S
C1362  H1392   1.110   .     S
C1362  H1245   1.110   1_655 S
C1362  H1246   1.111   1_655 S
C1363  H1396   1.117   .     S
C1363  C1364   1.521   .     S
C1363  O1461   1.411   .     S
C1363  H1247   1.110   1_655 S
C1364  H1398   1.110   .     S
C1364  H1397   1.109   .     S
C1364  H1251   1.109   1_655 S
C1365  O1462   1.416   .     S
C1365  H1401   1.117   .     S
C1365  H1402   1.111   .     S
C1366  C1387   1.423   .     A
C1366  N1454   1.377   .     A
C1367  H1403   1.109   .     S
C1367  H1405   1.110   .     S
C1367  H1404   1.107   .     S
C1367  C1217   1.522   1_655 S
C1368  C1369   1.531   .     S
C1368  O1463   1.423   .     S
C1368  H1407   1.107   .     S
C1368  H1406   1.109   .     S
C1369  H1409   1.110   .     S
C1369  H1408   1.110   .     S
C1369  H1410   1.110   .     S
C1370  C1371   1.526   .     S
C1370  O1464   1.416   .     S
C1370  H1413   1.115   .     S
C1370  H1412   1.106   .     S
C1371  H1416   1.109   .     S
C1371  H1414   1.106   .     S
C1371  H1415   1.111   .     S
C1372  H1418   1.107   .     S
C1372  H1417   1.116   .     S
C1372  C1373   1.523   .     S
C1372  O1465   1.419   .     S
C1373  H1421   1.110   .     S
C1373  H1419   1.111   .     S
C1373  H1420   1.110   .     S
C1374  H1423   1.115   .     S
C1374  O1467   1.411   .     S
C1374  C1375   1.520   .     S
C1374  H1424   1.112   .     S
C1375  H1426   1.105   .     S
C1375  H1425   1.111   .     S
C1375  H1427   1.110   .     S
C1376  O1468   1.408   .     S
C1376  C1378   1.524   .     S
C1376  H1429   1.112   .     S
C1376  H1724   1.108   1_545 S
C1377  C1388   1.423   .     A
C1377  N1453   1.374   .     A
C1378  H1135   1.108   1_545 S
C1378  H1728   1.110   1_545 S
C1379  H1435   1.114   .     S
C1379  C1380   1.518   .     S
C1379  O1469   1.415   .     S
C1379  H1730   1.111   .     S
C1380  H1436   1.108   .     S
C1380  H1733   1.111   .     S
C1380  H1734   1.107   .     S
C1381  O1470   1.408   .     S
C1381  H1440   1.110   .     S
C1381  C1678   1.523   1_545 S
C1381  H1735   1.109   1_545 S
C1382  H1443   1.110   .     S
C1382  C1677   1.523   .     S
C1382  H553    1.111   1_556 S
C1382  H258    1.108   1_556 S
C1383  H1446   1.111   .     S
C1383  O1471   1.412   .     S
C1383  C1680   1.521   .     S
C1383  H1741   1.111   .     S
C1384  H1449   1.111   .     S
C1384  H1448   1.111   .     S
C1384  C1679   1.521   1_545 S
C1384  H1743   1.110   1_545 S
C1385  N1454   1.372   .     A
C1386  O1468   1.384   .     S
C1387  O1469   1.384   .     S
C1388  O1470   1.385   .     S
H1428  C1672   1.108   .     S
H1430  C194    1.110   1_556 S
H1431  C490    1.108   1_556 S
H1432  C1674   1.110   .     S
H1433  C1211   1.109   1_655 S
H1434  C1675   1.111   1_545 S
H1437  C1676   1.111   1_545 S
H1438  C1676   1.107   1_545 S
H1439  C1677   1.109   .     S
H1441  C1086   1.111   1_545 S
H1445  C1679   1.111   1_545 S
H1447  C1680   1.110   .     S
H1450  C28     1.111   1_556 S
H1451  C176    1.106   1_556 S
N1453  Zn1480  2.026   .     S
N1454  Zn1479  2.026   .     S
O1455  Zn1479  2.027   .     S
O1466  Zn1480  2.027   .     S
O1472  Zn1479  1.998   .     S
O1473  Zn1480  1.998   .     S
O1474  Zn1479  1.965   .     S
O1475  Zn1480  1.965   .     S
O1476  Zn1479  1.962   .     S
O1477  Zn1480  1.962   .     S
C1481  C1498   1.453   .     S
C1481  O1603   1.298   .     A
C1481  O1621   1.298   .     A
C1482  O1619   1.382   .     S
C1482  C1486   1.417   .     A
C1482  C1533   1.417   .     A
C1483  C1487   1.377   .     S
C1483  O1622   1.286   .     A
C1483  O1625   1.285   .     A
C1484  C1488   1.377   .     S
C1484  O1623   1.286   .     A
C1484  O1624   1.285   .     A
C1485  C1536   1.422   .     A
C1485  C1534   1.420   .     A
C1486  C1535   1.419   .     A
C1486  C1189   1.531   1_565 S
C1488  C303    1.172   1_556 S
C1489  O1607   1.385   .     S
C1489  C1494   1.386   .     A
C1489  C1500   1.407   .     A
C1490  O1608   1.384   .     S
C1490  C1501   1.402   .     A
C1490  C1495   1.399   .     A
C1491  O1609   1.384   .     S
C1491  C1501   1.402   .     A
C1491  C1496   1.387   .     A
C1492  O1620   1.303   .     A
C1492  O1614   1.302   .     A
C1492  C1499   1.471   .     S
C1493  O1610   1.384   .     S
C1493  C1500   1.410   .     A
C1493  C1497   1.398   .     A
C1494  C1498   1.402   .     A
C1494  O1611   1.381   .     S
C1495  C1499   1.422   .     A
C1495  O1612   1.384   .     S
C1496  O1613   1.384   .     S
C1496  C1499   1.411   .     A
C1497  O1615   1.384   .     S
C1497  C1498   1.405   .     A
C1500  C1649   1.456   1_455 S
C1501  C1648   1.456   .     S
C1502  H1537   1.075   .     S
C1502  O1626   1.220   .     D
C1502  C1503   1.482   .     S
C1503  N1601   1.376   .     A
C1503  C1534   1.420   .     A
C1504  O1604   1.221   .     D
C1504  C1514   1.481   .     S
C1504  H1548   1.079   .     S
C1505  O1605   1.220   .     D
C1505  C1525   1.481   .     S
C1505  H1559   1.076   .     S
C1506  O1606   1.221   .     D
C1506  C1533   1.476   .     S
C1506  H1570   1.074   .     S
C1507  O1607   1.407   .     S
C1507  H1592   1.116   .     S
C1507  C1656   1.515   1_455 S
C1507  H1729   1.109   1_455 S
C1508  H1600   1.110   .     S
C1508  C1655   1.515   .     S
C1509  H1539   1.115   .     S
C1509  C1510   1.521   .     S
C1509  O1608   1.409   .     S
C1509  H1686   1.110   .     S
C1510  H1540   1.110   .     S
C1510  H1689   1.110   .     S
C1510  H1690   1.111   .     S
C1511  H1544   1.117   .     S
C1511  C1512   1.521   .     S
C1511  O1609   1.411   .     S
C1511  H1691   1.110   .     S
C1512  H1546   1.110   .     S
C1512  H1545   1.109   .     S
C1512  H1695   1.109   .     S
C1513  O1610   1.416   .     S
C1513  H1549   1.117   .     S
C1513  H1550   1.111   .     S
C1513  C1663   1.522   1_455 S
C1514  C1535   1.423   .     A
C1514  N1602   1.377   .     A
C1515  H1551   1.109   .     S
C1515  H1553   1.110   .     S
C1515  H1552   1.107   .     S
C1515  C1661   1.522   .     S
C1516  C1517   1.531   .     S
C1516  O1611   1.423   .     S
C1516  H1555   1.107   .     S
C1516  H1554   1.109   .     S
C1517  H1557   1.110   .     S
C1517  H1556   1.110   .     S
C1517  H1558   1.110   .     S
C1518  C1519   1.526   .     S
C1518  O1612   1.416   .     S
C1518  H1561   1.115   .     S
C1518  H1560   1.106   .     S
C1519  H1564   1.109   .     S
C1519  H1562   1.106   .     S
C1519  H1563   1.111   .     S
C1520  H1566   1.107   .     S
C1520  H1565   1.116   .     S
C1520  C1521   1.523   .     S
C1520  O1613   1.419   .     S
C1521  H1569   1.110   .     S
C1521  H1567   1.111   .     S
C1521  H1568   1.110   .     S
C1522  H1571   1.115   .     S
C1522  O1615   1.411   .     S
C1522  C1523   1.520   .     S
C1522  H1572   1.112   .     S
C1523  H1574   1.105   .     S
C1523  H1573   1.111   .     S
C1523  H1575   1.110   .     S
C1524  O1616   1.408   .     S
C1524  C1526   1.524   .     S
C1524  H1577   1.112   .     S
C1525  C1536   1.423   .     A
C1525  N1601   1.374   .     A
C1527  H1583   1.114   .     S
C1527  C1528   1.518   .     S
C1527  O1617   1.415   .     S
C1527  H1286   1.111   1_565 S
C1528  H1584   1.108   .     S
C1528  H1289   1.111   1_565 S
C1528  H1290   1.107   1_565 S
C1529  O1618   1.408   .     S
C1529  H1588   1.110   .     S
C1530  H1591   1.110   .     S
C1530  C1233   1.523   1_565 S
C1530  H109    1.111   1_566 S
C1530  H406    1.108   1_556 S
C1531  H1594   1.111   .     S
C1531  O1619   1.412   .     S
C1531  C1236   1.521   1_565 S
C1531  H1297   1.111   1_565 S
C1532  H1597   1.111   .     S
C1532  H1596   1.111   .     S
C1533  N1602   1.372   .     A
C1534  O1616   1.384   .     S
C1535  O1617   1.384   .     S
C1536  O1618   1.385   .     S
H1538  C1657   1.110   1_455 S
H1541  C1658   1.110   1_455 S
H1542  C1658   1.111   1_455 S
H1543  C1659   1.110   1_455 S
H1547  C1660   1.109   1_455 S
H1576  C1228   1.108   1_565 S
H1578  C342    1.110   1_556 S
H1579  C46     1.108   1_566 S
H1580  C1230   1.110   1_565 S
H1581  C1655   1.109   .     S
H1587  C1233   1.109   1_565 S
H1595  C1236   1.110   1_565 S
H1598  C472    1.111   1_456 S
H1599  C324    1.106   1_556 S
N1601  Zn1628  2.026   .     S
N1602  Zn1627  2.026   .     S
O1603  Zn1627  2.027   .     S
O1614  Zn1628  2.027   .     S
O1620  Zn1627  1.998   .     S
O1621  Zn1628  1.998   .     S
O1622  Zn1627  1.965   .     S
O1623  Zn1628  1.965   .     S
O1624  Zn1627  1.962   .     S
O1625  Zn1628  1.962   .     S
C1629  C1646   1.453   .     S
C1629  O1751   1.298   .     A
C1629  O1769   1.298   .     A
C1630  O1767   1.382   .     S
C1630  C1634   1.417   .     A
C1630  C1681   1.417   .     A
C1631  C1635   1.377   .     S
C1631  O1770   1.286   .     A
C1631  O1773   1.285   .     A
C1632  C1636   1.377   .     S
C1632  O1771   1.286   .     A
C1632  O1772   1.285   .     A
C1633  C1684   1.422   .     A
C1633  C1682   1.420   .     A
C1634  C1683   1.419   .     A
C1634  C1337   1.531   1_565 S
C1636  C451    1.172   1_556 S
C1637  O1755   1.385   .     S
C1637  C1642   1.386   .     A
C1637  C1648   1.407   .     A
C1638  O1756   1.384   .     S
C1638  C1649   1.402   .     A
C1638  C1643   1.399   .     A
C1639  O1757   1.384   .     S
C1639  C1649   1.402   .     A
C1639  C1644   1.387   .     A
C1640  O1768   1.303   .     A
C1640  O1762   1.302   .     A
C1640  C1647   1.471   .     S
C1641  O1758   1.384   .     S
C1641  C1648   1.410   .     A
C1641  C1645   1.398   .     A
C1642  C1646   1.402   .     A
C1642  O1759   1.381   .     S
C1643  C1647   1.422   .     A
C1643  O1760   1.384   .     S
C1644  O1761   1.384   .     S
C1644  C1647   1.411   .     A
C1645  O1763   1.384   .     S
C1645  C1646   1.405   .     A
C1649  C1500   1.456   1_655 S
C1650  H1685   1.075   .     S
C1650  O1774   1.220   .     D
C1650  C1651   1.482   .     S
C1651  N1749   1.376   .     A
C1651  C1682   1.420   .     A
C1652  O1752   1.221   .     D
C1652  C1662   1.481   .     S
C1652  H1696   1.079   .     S
C1653  O1753   1.220   .     D
C1653  C1673   1.481   .     S
C1653  H1707   1.076   .     S
C1654  O1754   1.221   .     D
C1654  C1681   1.476   .     S
C1654  H1718   1.074   .     S
C1655  O1755   1.407   .     S
C1655  H1740   1.116   .     S
C1656  H1748   1.110   .     S
C1656  C1507   1.515   1_655 S
C1656  H1006   1.111   1_655 S
C1657  H1687   1.115   .     S
C1657  C1658   1.521   .     S
C1657  O1756   1.409   .     S
C1657  H1538   1.110   1_655 S
C1658  H1688   1.110   .     S
C1658  H1541   1.110   1_655 S
C1658  H1542   1.111   1_655 S
C1659  H1692   1.117   .     S
C1659  C1660   1.521   .     S
C1659  O1757   1.411   .     S
C1659  H1543   1.110   1_655 S
C1660  H1694   1.110   .     S
C1660  H1693   1.109   .     S
C1660  H1547   1.109   1_655 S
C1661  O1758   1.416   .     S
C1661  H1697   1.117   .     S
C1661  H1698   1.111   .     S
C1662  C1683   1.423   .     A
C1662  N1750   1.377   .     A
C1663  H1699   1.109   .     S
C1663  H1701   1.110   .     S
C1663  H1700   1.107   .     S
C1663  C1513   1.522   1_655 S
C1664  C1665   1.531   .     S
C1664  O1759   1.423   .     S
C1664  H1703   1.107   .     S
C1664  H1702   1.109   .     S
C1665  H1705   1.110   .     S
C1665  H1704   1.110   .     S
C1665  H1706   1.110   .     S
C1666  C1667   1.526   .     S
C1666  O1760   1.416   .     S
C1666  H1709   1.115   .     S
C1666  H1708   1.106   .     S
C1667  H1712   1.109   .     S
C1667  H1710   1.106   .     S
C1667  H1711   1.111   .     S
C1668  H1714   1.107   .     S
C1668  H1713   1.116   .     S
C1668  C1669   1.523   .     S
C1668  O1761   1.419   .     S
C1669  H1717   1.110   .     S
C1669  H1715   1.111   .     S
C1669  H1716   1.110   .     S
C1670  H1719   1.115   .     S
C1670  O1763   1.411   .     S
C1670  C1671   1.520   .     S
C1670  H1720   1.112   .     S
C1671  H1722   1.105   .     S
C1671  H1721   1.111   .     S
C1671  H1723   1.110   .     S
C1672  O1764   1.408   .     S
C1672  C1674   1.524   .     S
C1672  H1725   1.112   .     S
C1673  C1684   1.423   .     A
C1673  N1749   1.374   .     A
C1675  H1731   1.114   .     S
C1675  C1676   1.518   .     S
C1675  O1765   1.415   .     S
C1675  H1434   1.111   1_565 S
C1676  H1732   1.108   .     S
C1676  H1437   1.111   1_565 S
C1676  H1438   1.107   1_565 S
C1677  O1766   1.408   .     S
C1677  H1736   1.110   .     S
C1678  H1739   1.110   .     S
C1678  C1381   1.523   1_565 S
C1678  H257    1.111   1_566 S
C1678  H554    1.108   1_556 S
C1679  H1742   1.111   .     S
C1679  O1767   1.412   .     S
C1679  C1384   1.521   1_565 S
C1679  H1445   1.111   1_565 S
C1680  H1745   1.111   .     S
C1680  H1744   1.111   .     S
C1681  N1750   1.372   .     A
C1682  O1764   1.384   .     S
C1683  O1765   1.384   .     S
C1684  O1766   1.385   .     S
H1724  C1376   1.108   1_565 S
H1726  C490    1.110   1_556 S
H1727  C194    1.108   1_566 S
H1728  C1378   1.110   1_565 S
H1729  C1507   1.109   1_655 S
H1735  C1381   1.109   1_565 S
H1743  C1384   1.110   1_565 S
H1746  C324    1.111   1_556 S
H1747  C472    1.106   1_556 S
N1749  Zn1776  2.026   .     S
N1750  Zn1775  2.026   .     S
O1751  Zn1775  2.027   .     S
O1762  Zn1776  2.027   .     S
O1768  Zn1775  1.998   .     S
O1769  Zn1776  1.998   .     S
O1770  Zn1775  1.965   .     S
O1771  Zn1776  1.965   .     S
O1772  Zn1775  1.962   .     S
O1773  Zn1776  1.962   .     S
