data_str_m2_o1_o16_pcu_sym.81
_audit_creation_date              2020-01-03
_audit_creation_method            'Materials Studio'
_symmetry_space_group_name_H-M    'P1'
_symmetry_Int_Tables_number       1
_symmetry_cell_setting            triclinic
loop_
_symmetry_equiv_pos_as_xyz
  x,y,z
_cell_length_a                    28.7005
_cell_length_b                    32.3969
_cell_length_c                    27.0138
_cell_angle_alpha                 90.9392
_cell_angle_beta                  73.4782
_cell_angle_gamma                 90.3916
loop_
_atom_site_label
_atom_site_type_symbol
_atom_site_fract_x
_atom_site_fract_y
_atom_site_fract_z
_atom_site_U_iso_or_equiv
_atom_site_adp_type
_atom_site_occupancy
C1     C     0.16697   0.24592   0.24943   0.00000  Uiso   1.00
C2     C     0.12790   0.15274   0.40519   0.00000  Uiso   1.00
C3     C     0.20836   0.31239   0.22002   0.00000  Uiso   1.00
C4     C     0.14132   0.16205   0.34932   0.00000  Uiso   1.00
C5     C     0.20794   0.02184   0.22109   0.00000  Uiso   1.00
C6     C     0.16659   0.04307   0.24947   0.00000  Uiso   1.00
C7     C     0.12540   0.02188   0.27760   0.00000  Uiso   1.00
C8     C     0.12556   0.31235   0.27839   0.00000  Uiso   1.00
C9     C     0.16714   0.29069   0.24929   0.00000  Uiso   1.00
C10    C     0.30156   0.19450   0.27989   0.00000  Uiso   1.00
C11    C     0.01761   0.19438   0.27937   0.00000  Uiso   1.00
C12    C     0.14833   0.14881   0.48743   0.00000  Uiso   1.00
C13    C     0.03214   0.13846   0.22111   0.00000  Uiso   1.00
C14    C     0.31610   0.13870   0.22073   0.00000  Uiso   1.00
C15    C     0.16660   0.08752   0.24979   0.00000  Uiso   1.00
C16    C     0.19233   0.16541   0.15033   0.00000  Uiso   1.00
C17    C     0.26546   0.17617   0.01199   0.00000  Uiso   1.00
C18    C     0.20636   0.16339   0.09389   0.00000  Uiso   1.00
C19    C     0.07852   0.15129   0.43243   0.00000  Uiso   1.00
C20    C     0.06395   0.14918   0.48586   0.00000  Uiso   1.00
C21    C     0.09812   0.15055   0.01317   0.00000  Uiso   1.00
C22    C     0.16324   0.14758   0.43270   0.00000  Uiso   1.00
C23    C     0.18436   0.15193   0.01420   0.00000  Uiso   1.00
C24    C     0.23287   0.16105   0.48599   0.00000  Uiso   1.00
C25    C     0.24799   0.15289   0.43277   0.00000  Uiso   1.00
C26    C     0.21323   0.14220   0.40779   0.00000  Uiso   1.00
C27    C     0.17407   0.14672   0.06780   0.00000  Uiso   1.00
C28    C     0.25156   0.17888   0.06557   0.00000  Uiso   1.00
Cu29   Cu    0.11978   0.16666   0.25000   0.00000  Uiso   1.00
Cu30   Cu    0.21355   0.16667   0.25000   0.00000  Uiso   1.00
H31    H     0.27668   0.19195   0.08487   0.00000  Uiso   1.00
H32    H     0.02588   0.14845   0.00673   0.00000  Uiso   1.00
H33    H     0.22632   0.13023   0.36889   0.00000  Uiso   1.00
H34    H     0.05380   0.29903   0.29742   0.00000  Uiso   1.00
H35    H     0.07767   0.30132   0.34790   0.00000  Uiso   1.00
H36    H     0.30440   0.13983   0.36818   0.00000  Uiso   1.00
H37    H     0.30919   0.18436   0.39900   0.00000  Uiso   1.00
H38    H     0.15130   0.09622   0.11231   0.00000  Uiso   1.00
H39    H     0.10854   0.13366   0.11941   0.00000  Uiso   1.00
H40    H     0.23949   0.03858   0.19857   0.00000  Uiso   1.00
H41    H     0.09357   0.03860   0.30000   0.00000  Uiso   1.00
H42    H     0.03046   0.21627   0.30318   0.00000  Uiso   1.00
H43    H     0.05640   0.11536   0.19857   0.00000  Uiso   1.00
H44    H     0.30365   0.11623   0.19726   0.00000  Uiso   1.00
H45    H     0.30107   0.18717   0.49086   0.00000  Uiso   1.00
H46    H     0.05108   0.15310   0.41241   0.00000  Uiso   1.00
H47    H     0.08411   0.15493   0.05425   0.00000  Uiso   1.00
I48    I     0.25863   0.23926   0.33090   0.00000  Uiso   1.00
I49    I     0.27128   0.28398   0.16971   0.00000  Uiso   1.00
N50    N     0.04931   0.16666   0.24998   0.00000  Uiso   1.00
N51    N     0.28402   0.16669   0.25000   0.00000  Uiso   1.00
N52    N     0.08392   0.29097   0.30969   0.00000  Uiso   1.00
N53    N     0.29865   0.15345   0.40477   0.00000  Uiso   1.00
N54    N     0.13665   0.11805   0.09290   0.00000  Uiso   1.00
O55    O     0.12708   0.22678   0.25000   0.00000  Uiso   1.00
O56    O     0.20627   0.22679   0.25001   0.00000  Uiso   1.00
O57    O     0.10775   0.16665   0.32549   0.00000  Uiso   1.00
O58    O     0.18694   0.16666   0.32549   0.00000  Uiso   1.00
O59    O     0.12706   0.10654   0.24999   0.00000  Uiso   1.00
O60    O     0.20625   0.10655   0.25000   0.00000  Uiso   1.00
O61    O     0.14640   0.16667   0.17451   0.00000  Uiso   1.00
O62    O     0.22559   0.16668   0.17451   0.00000  Uiso   1.00
C63    C     0.50030   0.24592   0.24943   0.00000  Uiso   1.00
C64    C     0.46123   0.15274   0.40519   0.00000  Uiso   1.00
C65    C     0.54169   0.31239   0.22002   0.00000  Uiso   1.00
C66    C     0.47465   0.16205   0.34932   0.00000  Uiso   1.00
C67    C     0.54128   0.02184   0.22109   0.00000  Uiso   1.00
C68    C     0.49992   0.04307   0.24947   0.00000  Uiso   1.00
C69    C     0.45874   0.02188   0.27760   0.00000  Uiso   1.00
C70    C     0.45889   0.31235   0.27839   0.00000  Uiso   1.00
C71    C     0.50047   0.29069   0.24929   0.00000  Uiso   1.00
C72    C     0.63489   0.19450   0.27989   0.00000  Uiso   1.00
C73    C     0.35094   0.19438   0.27937   0.00000  Uiso   1.00
C74    C     0.48166   0.14881   0.48743   0.00000  Uiso   1.00
C75    C     0.36548   0.13846   0.22111   0.00000  Uiso   1.00
C76    C     0.64944   0.13870   0.22073   0.00000  Uiso   1.00
C77    C     0.49994   0.08752   0.24979   0.00000  Uiso   1.00
C78    C     0.52566   0.16541   0.15033   0.00000  Uiso   1.00
C79    C     0.59879   0.17617   0.01199   0.00000  Uiso   1.00
C80    C     0.53969   0.16339   0.09389   0.00000  Uiso   1.00
C81    C     0.41185   0.15129   0.43243   0.00000  Uiso   1.00
C82    C     0.39728   0.14918   0.48586   0.00000  Uiso   1.00
C83    C     0.43146   0.15055   0.01317   0.00000  Uiso   1.00
C84    C     0.49657   0.14758   0.43270   0.00000  Uiso   1.00
C85    C     0.51769   0.15193   0.01420   0.00000  Uiso   1.00
C86    C     0.56620   0.16105   0.48599   0.00000  Uiso   1.00
C87    C     0.58132   0.15289   0.43277   0.00000  Uiso   1.00
C88    C     0.54657   0.14220   0.40779   0.00000  Uiso   1.00
C89    C     0.50740   0.14672   0.06780   0.00000  Uiso   1.00
C90    C     0.58489   0.17888   0.06557   0.00000  Uiso   1.00
Cu91   Cu    0.45311   0.16666   0.25000   0.00000  Uiso   1.00
Cu92   Cu    0.54689   0.16667   0.25000   0.00000  Uiso   1.00
H93    H     0.61001   0.19195   0.08487   0.00000  Uiso   1.00
H94    H     0.35922   0.14845   0.00673   0.00000  Uiso   1.00
H95    H     0.55965   0.13023   0.36889   0.00000  Uiso   1.00
H96    H     0.38713   0.29903   0.29742   0.00000  Uiso   1.00
H97    H     0.41101   0.30132   0.34790   0.00000  Uiso   1.00
H98    H     0.63774   0.13983   0.36818   0.00000  Uiso   1.00
H99    H     0.64253   0.18436   0.39900   0.00000  Uiso   1.00
H100   H     0.48463   0.09622   0.11231   0.00000  Uiso   1.00
H101   H     0.44187   0.13366   0.11941   0.00000  Uiso   1.00
H102   H     0.57282   0.03858   0.19857   0.00000  Uiso   1.00
H103   H     0.42690   0.03860   0.30000   0.00000  Uiso   1.00
H104   H     0.36379   0.21627   0.30318   0.00000  Uiso   1.00
H105   H     0.38974   0.11536   0.19857   0.00000  Uiso   1.00
H106   H     0.63699   0.11623   0.19726   0.00000  Uiso   1.00
H107   H     0.63440   0.18717   0.49086   0.00000  Uiso   1.00
H108   H     0.38441   0.15310   0.41241   0.00000  Uiso   1.00
H109   H     0.41745   0.15493   0.05425   0.00000  Uiso   1.00
I110   I     0.59196   0.23926   0.33090   0.00000  Uiso   1.00
I111   I     0.60461   0.28398   0.16971   0.00000  Uiso   1.00
N112   N     0.38265   0.16666   0.24998   0.00000  Uiso   1.00
N113   N     0.61735   0.16669   0.25000   0.00000  Uiso   1.00
N114   N     0.41725   0.29097   0.30969   0.00000  Uiso   1.00
N115   N     0.63198   0.15345   0.40477   0.00000  Uiso   1.00
N116   N     0.46998   0.11805   0.09290   0.00000  Uiso   1.00
O117   O     0.46042   0.22678   0.25000   0.00000  Uiso   1.00
O118   O     0.53961   0.22679   0.25001   0.00000  Uiso   1.00
O119   O     0.44108   0.16665   0.32549   0.00000  Uiso   1.00
O120   O     0.52027   0.16666   0.32549   0.00000  Uiso   1.00
O121   O     0.46039   0.10654   0.24999   0.00000  Uiso   1.00
O122   O     0.53958   0.10655   0.25000   0.00000  Uiso   1.00
O123   O     0.47973   0.16667   0.17451   0.00000  Uiso   1.00
O124   O     0.55892   0.16668   0.17451   0.00000  Uiso   1.00
C125   C     0.83363   0.24592   0.24943   0.00000  Uiso   1.00
C126   C     0.79456   0.15274   0.40519   0.00000  Uiso   1.00
C127   C     0.87503   0.31239   0.22002   0.00000  Uiso   1.00
C128   C     0.80799   0.16205   0.34932   0.00000  Uiso   1.00
C129   C     0.87461   0.02184   0.22109   0.00000  Uiso   1.00
C130   C     0.83326   0.04307   0.24947   0.00000  Uiso   1.00
C131   C     0.79207   0.02188   0.27760   0.00000  Uiso   1.00
C132   C     0.79223   0.31235   0.27839   0.00000  Uiso   1.00
C133   C     0.83381   0.29069   0.24929   0.00000  Uiso   1.00
C134   C     0.96822   0.19450   0.27989   0.00000  Uiso   1.00
C135   C     0.68427   0.19438   0.27937   0.00000  Uiso   1.00
C136   C     0.81499   0.14881   0.48743   0.00000  Uiso   1.00
C137   C     0.69881   0.13846   0.22111   0.00000  Uiso   1.00
C138   C     0.98277   0.13870   0.22073   0.00000  Uiso   1.00
C139   C     0.83327   0.08752   0.24979   0.00000  Uiso   1.00
C140   C     0.85899   0.16541   0.15033   0.00000  Uiso   1.00
C141   C     0.93213   0.17617   0.01199   0.00000  Uiso   1.00
C142   C     0.87303   0.16339   0.09389   0.00000  Uiso   1.00
C143   C     0.74519   0.15129   0.43243   0.00000  Uiso   1.00
C144   C     0.73062   0.14918   0.48586   0.00000  Uiso   1.00
C145   C     0.76479   0.15055   0.01317   0.00000  Uiso   1.00
C146   C     0.82991   0.14758   0.43270   0.00000  Uiso   1.00
C147   C     0.85102   0.15193   0.01420   0.00000  Uiso   1.00
C148   C     0.89954   0.16105   0.48599   0.00000  Uiso   1.00
C149   C     0.91466   0.15289   0.43277   0.00000  Uiso   1.00
C150   C     0.87990   0.14220   0.40779   0.00000  Uiso   1.00
C151   C     0.84074   0.14672   0.06780   0.00000  Uiso   1.00
C152   C     0.91822   0.17888   0.06557   0.00000  Uiso   1.00
Cu153  Cu    0.78645   0.16666   0.25000   0.00000  Uiso   1.00
Cu154  Cu    0.88022   0.16667   0.25000   0.00000  Uiso   1.00
H155   H     0.94335   0.19195   0.08487   0.00000  Uiso   1.00
H156   H     0.69255   0.14845   0.00673   0.00000  Uiso   1.00
H157   H     0.89299   0.13023   0.36889   0.00000  Uiso   1.00
H158   H     0.72047   0.29903   0.29742   0.00000  Uiso   1.00
H159   H     0.74434   0.30132   0.34790   0.00000  Uiso   1.00
H160   H     0.97107   0.13983   0.36818   0.00000  Uiso   1.00
H161   H     0.97586   0.18436   0.39900   0.00000  Uiso   1.00
H162   H     0.81797   0.09622   0.11231   0.00000  Uiso   1.00
H163   H     0.77520   0.13366   0.11941   0.00000  Uiso   1.00
H164   H     0.90615   0.03858   0.19857   0.00000  Uiso   1.00
H165   H     0.76023   0.03860   0.30000   0.00000  Uiso   1.00
H166   H     0.69713   0.21627   0.30318   0.00000  Uiso   1.00
H167   H     0.72307   0.11536   0.19857   0.00000  Uiso   1.00
H168   H     0.97032   0.11623   0.19726   0.00000  Uiso   1.00
H169   H     0.96773   0.18717   0.49086   0.00000  Uiso   1.00
H170   H     0.71775   0.15310   0.41241   0.00000  Uiso   1.00
H171   H     0.75078   0.15493   0.05425   0.00000  Uiso   1.00
I172   I     0.92530   0.23926   0.33090   0.00000  Uiso   1.00
I173   I     0.93795   0.28398   0.16971   0.00000  Uiso   1.00
N174   N     0.71598   0.16666   0.24998   0.00000  Uiso   1.00
N175   N     0.95069   0.16669   0.25000   0.00000  Uiso   1.00
N176   N     0.75059   0.29097   0.30969   0.00000  Uiso   1.00
N177   N     0.96532   0.15345   0.40477   0.00000  Uiso   1.00
N178   N     0.80331   0.11805   0.09290   0.00000  Uiso   1.00
O179   O     0.79375   0.22678   0.25000   0.00000  Uiso   1.00
O180   O     0.87294   0.22679   0.25001   0.00000  Uiso   1.00
O181   O     0.77441   0.16665   0.32549   0.00000  Uiso   1.00
O182   O     0.85360   0.16666   0.32549   0.00000  Uiso   1.00
O183   O     0.79373   0.10654   0.24999   0.00000  Uiso   1.00
O184   O     0.87292   0.10655   0.25000   0.00000  Uiso   1.00
O185   O     0.81306   0.16667   0.17451   0.00000  Uiso   1.00
O186   O     0.89225   0.16668   0.17451   0.00000  Uiso   1.00
C187   C     0.16697   0.57925   0.24943   0.00000  Uiso   1.00
C188   C     0.12790   0.48608   0.40519   0.00000  Uiso   1.00
C189   C     0.20836   0.64573   0.22002   0.00000  Uiso   1.00
C190   C     0.14132   0.49539   0.34932   0.00000  Uiso   1.00
C191   C     0.20794   0.35517   0.22109   0.00000  Uiso   1.00
C192   C     0.16659   0.37640   0.24947   0.00000  Uiso   1.00
C193   C     0.12540   0.35522   0.27760   0.00000  Uiso   1.00
C194   C     0.12556   0.64568   0.27839   0.00000  Uiso   1.00
C195   C     0.16714   0.62402   0.24929   0.00000  Uiso   1.00
C196   C     0.30156   0.52783   0.27989   0.00000  Uiso   1.00
C197   C     0.01761   0.52771   0.27937   0.00000  Uiso   1.00
C198   C     0.14833   0.48215   0.48743   0.00000  Uiso   1.00
C199   C     0.03214   0.47179   0.22111   0.00000  Uiso   1.00
C200   C     0.31610   0.47203   0.22073   0.00000  Uiso   1.00
C201   C     0.16660   0.42086   0.24979   0.00000  Uiso   1.00
C202   C     0.19233   0.49874   0.15033   0.00000  Uiso   1.00
C203   C     0.26546   0.50950   0.01199   0.00000  Uiso   1.00
C204   C     0.20636   0.49672   0.09389   0.00000  Uiso   1.00
C205   C     0.07852   0.48463   0.43243   0.00000  Uiso   1.00
C206   C     0.06395   0.48251   0.48586   0.00000  Uiso   1.00
C207   C     0.09812   0.48389   0.01317   0.00000  Uiso   1.00
C208   C     0.16324   0.48092   0.43270   0.00000  Uiso   1.00
C209   C     0.18436   0.48526   0.01420   0.00000  Uiso   1.00
C210   C     0.23287   0.49438   0.48599   0.00000  Uiso   1.00
C211   C     0.24799   0.48622   0.43277   0.00000  Uiso   1.00
C212   C     0.21323   0.47553   0.40779   0.00000  Uiso   1.00
C213   C     0.17407   0.48005   0.06780   0.00000  Uiso   1.00
C214   C     0.25156   0.51221   0.06557   0.00000  Uiso   1.00
Cu215  Cu    0.11978   0.49999   0.25000   0.00000  Uiso   1.00
Cu216  Cu    0.21355   0.50001   0.25000   0.00000  Uiso   1.00
H217   H     0.27668   0.52529   0.08487   0.00000  Uiso   1.00
H218   H     0.02588   0.48179   0.00673   0.00000  Uiso   1.00
H219   H     0.22632   0.46357   0.36889   0.00000  Uiso   1.00
H220   H     0.05380   0.63236   0.29742   0.00000  Uiso   1.00
H221   H     0.07767   0.63465   0.34790   0.00000  Uiso   1.00
H222   H     0.30440   0.47316   0.36818   0.00000  Uiso   1.00
H223   H     0.30919   0.51769   0.39900   0.00000  Uiso   1.00
H224   H     0.15130   0.42955   0.11231   0.00000  Uiso   1.00
H225   H     0.10854   0.46700   0.11941   0.00000  Uiso   1.00
H226   H     0.23949   0.37192   0.19857   0.00000  Uiso   1.00
H227   H     0.09357   0.37194   0.30000   0.00000  Uiso   1.00
H228   H     0.03046   0.54961   0.30318   0.00000  Uiso   1.00
H229   H     0.05640   0.44869   0.19857   0.00000  Uiso   1.00
H230   H     0.30365   0.44956   0.19726   0.00000  Uiso   1.00
H231   H     0.30107   0.52051   0.49086   0.00000  Uiso   1.00
H232   H     0.05108   0.48643   0.41241   0.00000  Uiso   1.00
H233   H     0.08411   0.48826   0.05425   0.00000  Uiso   1.00
I234   I     0.25863   0.57259   0.33090   0.00000  Uiso   1.00
I235   I     0.27128   0.61731   0.16971   0.00000  Uiso   1.00
N236   N     0.04931   0.49999   0.24998   0.00000  Uiso   1.00
N237   N     0.28402   0.50002   0.25000   0.00000  Uiso   1.00
N238   N     0.08392   0.62431   0.30969   0.00000  Uiso   1.00
N239   N     0.29865   0.48679   0.40477   0.00000  Uiso   1.00
N240   N     0.13665   0.45139   0.09290   0.00000  Uiso   1.00
O241   O     0.12708   0.56011   0.25000   0.00000  Uiso   1.00
O242   O     0.20627   0.56012   0.25001   0.00000  Uiso   1.00
O243   O     0.10775   0.49998   0.32549   0.00000  Uiso   1.00
O244   O     0.18694   0.49999   0.32549   0.00000  Uiso   1.00
O245   O     0.12706   0.43988   0.24999   0.00000  Uiso   1.00
O246   O     0.20625   0.43989   0.25000   0.00000  Uiso   1.00
O247   O     0.14640   0.50001   0.17451   0.00000  Uiso   1.00
O248   O     0.22559   0.50002   0.17451   0.00000  Uiso   1.00
C249   C     0.50030   0.57925   0.24943   0.00000  Uiso   1.00
C250   C     0.46123   0.48608   0.40519   0.00000  Uiso   1.00
C251   C     0.54169   0.64573   0.22002   0.00000  Uiso   1.00
C252   C     0.47465   0.49539   0.34932   0.00000  Uiso   1.00
C253   C     0.54128   0.35517   0.22109   0.00000  Uiso   1.00
C254   C     0.49992   0.37640   0.24947   0.00000  Uiso   1.00
C255   C     0.45874   0.35522   0.27760   0.00000  Uiso   1.00
C256   C     0.45889   0.64568   0.27839   0.00000  Uiso   1.00
C257   C     0.50047   0.62402   0.24929   0.00000  Uiso   1.00
C258   C     0.63489   0.52783   0.27989   0.00000  Uiso   1.00
C259   C     0.35094   0.52771   0.27937   0.00000  Uiso   1.00
C260   C     0.48166   0.48215   0.48743   0.00000  Uiso   1.00
C261   C     0.36548   0.47179   0.22111   0.00000  Uiso   1.00
C262   C     0.64944   0.47203   0.22073   0.00000  Uiso   1.00
C263   C     0.49994   0.42086   0.24979   0.00000  Uiso   1.00
C264   C     0.52566   0.49874   0.15033   0.00000  Uiso   1.00
C265   C     0.59879   0.50950   0.01199   0.00000  Uiso   1.00
C266   C     0.53969   0.49672   0.09389   0.00000  Uiso   1.00
C267   C     0.41185   0.48463   0.43243   0.00000  Uiso   1.00
C268   C     0.39728   0.48251   0.48586   0.00000  Uiso   1.00
C269   C     0.43146   0.48389   0.01317   0.00000  Uiso   1.00
C270   C     0.49657   0.48092   0.43270   0.00000  Uiso   1.00
C271   C     0.51769   0.48526   0.01420   0.00000  Uiso   1.00
C272   C     0.56620   0.49438   0.48599   0.00000  Uiso   1.00
C273   C     0.58132   0.48622   0.43277   0.00000  Uiso   1.00
C274   C     0.54657   0.47553   0.40779   0.00000  Uiso   1.00
C275   C     0.50740   0.48005   0.06780   0.00000  Uiso   1.00
C276   C     0.58489   0.51221   0.06557   0.00000  Uiso   1.00
Cu277  Cu    0.45311   0.49999   0.25000   0.00000  Uiso   1.00
Cu278  Cu    0.54689   0.50001   0.25000   0.00000  Uiso   1.00
H279   H     0.61001   0.52529   0.08487   0.00000  Uiso   1.00
H280   H     0.35922   0.48179   0.00673   0.00000  Uiso   1.00
H281   H     0.55965   0.46357   0.36889   0.00000  Uiso   1.00
H282   H     0.38713   0.63236   0.29742   0.00000  Uiso   1.00
H283   H     0.41101   0.63465   0.34790   0.00000  Uiso   1.00
H284   H     0.63774   0.47316   0.36818   0.00000  Uiso   1.00
H285   H     0.64253   0.51769   0.39900   0.00000  Uiso   1.00
H286   H     0.48463   0.42955   0.11231   0.00000  Uiso   1.00
H287   H     0.44187   0.46700   0.11941   0.00000  Uiso   1.00
H288   H     0.57282   0.37192   0.19857   0.00000  Uiso   1.00
H289   H     0.42690   0.37194   0.30000   0.00000  Uiso   1.00
H290   H     0.36379   0.54961   0.30318   0.00000  Uiso   1.00
H291   H     0.38974   0.44869   0.19857   0.00000  Uiso   1.00
H292   H     0.63699   0.44956   0.19726   0.00000  Uiso   1.00
H293   H     0.63440   0.52051   0.49086   0.00000  Uiso   1.00
H294   H     0.38441   0.48643   0.41241   0.00000  Uiso   1.00
H295   H     0.41745   0.48826   0.05425   0.00000  Uiso   1.00
I296   I     0.59196   0.57259   0.33090   0.00000  Uiso   1.00
I297   I     0.60461   0.61731   0.16971   0.00000  Uiso   1.00
N298   N     0.38265   0.49999   0.24998   0.00000  Uiso   1.00
N299   N     0.61735   0.50002   0.25000   0.00000  Uiso   1.00
N300   N     0.41725   0.62431   0.30969   0.00000  Uiso   1.00
N301   N     0.63198   0.48679   0.40477   0.00000  Uiso   1.00
N302   N     0.46998   0.45139   0.09290   0.00000  Uiso   1.00
O303   O     0.46042   0.56011   0.25000   0.00000  Uiso   1.00
O304   O     0.53961   0.56012   0.25001   0.00000  Uiso   1.00
O305   O     0.44108   0.49998   0.32549   0.00000  Uiso   1.00
O306   O     0.52027   0.49999   0.32549   0.00000  Uiso   1.00
O307   O     0.46039   0.43988   0.24999   0.00000  Uiso   1.00
O308   O     0.53958   0.43989   0.25000   0.00000  Uiso   1.00
O309   O     0.47973   0.50001   0.17451   0.00000  Uiso   1.00
O310   O     0.55892   0.50002   0.17451   0.00000  Uiso   1.00
C311   C     0.83363   0.57925   0.24943   0.00000  Uiso   1.00
C312   C     0.79456   0.48608   0.40519   0.00000  Uiso   1.00
C313   C     0.87503   0.64573   0.22002   0.00000  Uiso   1.00
C314   C     0.80799   0.49539   0.34932   0.00000  Uiso   1.00
C315   C     0.87461   0.35517   0.22109   0.00000  Uiso   1.00
C316   C     0.83326   0.37640   0.24947   0.00000  Uiso   1.00
C317   C     0.79207   0.35522   0.27760   0.00000  Uiso   1.00
C318   C     0.79223   0.64568   0.27839   0.00000  Uiso   1.00
C319   C     0.83381   0.62402   0.24929   0.00000  Uiso   1.00
C320   C     0.96822   0.52783   0.27989   0.00000  Uiso   1.00
C321   C     0.68427   0.52771   0.27937   0.00000  Uiso   1.00
C322   C     0.81499   0.48215   0.48743   0.00000  Uiso   1.00
C323   C     0.69881   0.47179   0.22111   0.00000  Uiso   1.00
C324   C     0.98277   0.47203   0.22073   0.00000  Uiso   1.00
C325   C     0.83327   0.42086   0.24979   0.00000  Uiso   1.00
C326   C     0.85899   0.49874   0.15033   0.00000  Uiso   1.00
C327   C     0.93213   0.50950   0.01199   0.00000  Uiso   1.00
C328   C     0.87303   0.49672   0.09389   0.00000  Uiso   1.00
C329   C     0.74519   0.48463   0.43243   0.00000  Uiso   1.00
C330   C     0.73062   0.48251   0.48586   0.00000  Uiso   1.00
C331   C     0.76479   0.48389   0.01317   0.00000  Uiso   1.00
C332   C     0.82991   0.48092   0.43270   0.00000  Uiso   1.00
C333   C     0.85102   0.48526   0.01420   0.00000  Uiso   1.00
C334   C     0.89954   0.49438   0.48599   0.00000  Uiso   1.00
C335   C     0.91466   0.48622   0.43277   0.00000  Uiso   1.00
C336   C     0.87990   0.47553   0.40779   0.00000  Uiso   1.00
C337   C     0.84074   0.48005   0.06780   0.00000  Uiso   1.00
C338   C     0.91822   0.51221   0.06557   0.00000  Uiso   1.00
Cu339  Cu    0.78645   0.49999   0.25000   0.00000  Uiso   1.00
Cu340  Cu    0.88022   0.50001   0.25000   0.00000  Uiso   1.00
H341   H     0.94335   0.52529   0.08487   0.00000  Uiso   1.00
H342   H     0.69255   0.48179   0.00673   0.00000  Uiso   1.00
H343   H     0.89299   0.46357   0.36889   0.00000  Uiso   1.00
H344   H     0.72047   0.63236   0.29742   0.00000  Uiso   1.00
H345   H     0.74434   0.63465   0.34790   0.00000  Uiso   1.00
H346   H     0.97107   0.47316   0.36818   0.00000  Uiso   1.00
H347   H     0.97586   0.51769   0.39900   0.00000  Uiso   1.00
H348   H     0.81797   0.42955   0.11231   0.00000  Uiso   1.00
H349   H     0.77520   0.46700   0.11941   0.00000  Uiso   1.00
H350   H     0.90615   0.37192   0.19857   0.00000  Uiso   1.00
H351   H     0.76023   0.37194   0.30000   0.00000  Uiso   1.00
H352   H     0.69713   0.54961   0.30318   0.00000  Uiso   1.00
H353   H     0.72307   0.44869   0.19857   0.00000  Uiso   1.00
H354   H     0.97032   0.44956   0.19726   0.00000  Uiso   1.00
H355   H     0.96773   0.52051   0.49086   0.00000  Uiso   1.00
H356   H     0.71775   0.48643   0.41241   0.00000  Uiso   1.00
H357   H     0.75078   0.48826   0.05425   0.00000  Uiso   1.00
I358   I     0.92530   0.57259   0.33090   0.00000  Uiso   1.00
I359   I     0.93795   0.61731   0.16971   0.00000  Uiso   1.00
N360   N     0.71598   0.49999   0.24998   0.00000  Uiso   1.00
N361   N     0.95069   0.50002   0.25000   0.00000  Uiso   1.00
N362   N     0.75059   0.62431   0.30969   0.00000  Uiso   1.00
N363   N     0.96532   0.48679   0.40477   0.00000  Uiso   1.00
N364   N     0.80331   0.45139   0.09290   0.00000  Uiso   1.00
O365   O     0.79375   0.56011   0.25000   0.00000  Uiso   1.00
O366   O     0.87294   0.56012   0.25001   0.00000  Uiso   1.00
O367   O     0.77441   0.49998   0.32549   0.00000  Uiso   1.00
O368   O     0.85360   0.49999   0.32549   0.00000  Uiso   1.00
O369   O     0.79373   0.43988   0.24999   0.00000  Uiso   1.00
O370   O     0.87292   0.43989   0.25000   0.00000  Uiso   1.00
O371   O     0.81306   0.50001   0.17451   0.00000  Uiso   1.00
O372   O     0.89225   0.50002   0.17451   0.00000  Uiso   1.00
C373   C     0.16697   0.91259   0.24943   0.00000  Uiso   1.00
C374   C     0.12790   0.81941   0.40519   0.00000  Uiso   1.00
C375   C     0.20836   0.97906   0.22002   0.00000  Uiso   1.00
C376   C     0.14132   0.82872   0.34932   0.00000  Uiso   1.00
C377   C     0.20794   0.68850   0.22109   0.00000  Uiso   1.00
C378   C     0.16659   0.70974   0.24947   0.00000  Uiso   1.00
C379   C     0.12540   0.68855   0.27760   0.00000  Uiso   1.00
C380   C     0.12556   0.97902   0.27839   0.00000  Uiso   1.00
C381   C     0.16714   0.95736   0.24929   0.00000  Uiso   1.00
C382   C     0.30156   0.86117   0.27989   0.00000  Uiso   1.00
C383   C     0.01761   0.86105   0.27937   0.00000  Uiso   1.00
C384   C     0.14833   0.81548   0.48743   0.00000  Uiso   1.00
C385   C     0.03214   0.80512   0.22111   0.00000  Uiso   1.00
C386   C     0.31610   0.80537   0.22073   0.00000  Uiso   1.00
C387   C     0.16660   0.75419   0.24979   0.00000  Uiso   1.00
C388   C     0.19233   0.83207   0.15033   0.00000  Uiso   1.00
C389   C     0.26546   0.84283   0.01199   0.00000  Uiso   1.00
C390   C     0.20636   0.83006   0.09389   0.00000  Uiso   1.00
C391   C     0.07852   0.81796   0.43243   0.00000  Uiso   1.00
C392   C     0.06395   0.81584   0.48586   0.00000  Uiso   1.00
C393   C     0.09812   0.81722   0.01317   0.00000  Uiso   1.00
C394   C     0.16324   0.81425   0.43270   0.00000  Uiso   1.00
C395   C     0.18436   0.81860   0.01420   0.00000  Uiso   1.00
C396   C     0.23287   0.82772   0.48599   0.00000  Uiso   1.00
C397   C     0.24799   0.81956   0.43277   0.00000  Uiso   1.00
C398   C     0.21323   0.80887   0.40779   0.00000  Uiso   1.00
C399   C     0.17407   0.81339   0.06780   0.00000  Uiso   1.00
C400   C     0.25156   0.84554   0.06557   0.00000  Uiso   1.00
Cu401  Cu    0.11978   0.83333   0.25000   0.00000  Uiso   1.00
Cu402  Cu    0.21355   0.83334   0.25000   0.00000  Uiso   1.00
H403   H     0.27668   0.85862   0.08487   0.00000  Uiso   1.00
H404   H     0.02588   0.81512   0.00673   0.00000  Uiso   1.00
H405   H     0.22632   0.79690   0.36889   0.00000  Uiso   1.00
H406   H     0.05380   0.96570   0.29742   0.00000  Uiso   1.00
H407   H     0.07767   0.96798   0.34790   0.00000  Uiso   1.00
H408   H     0.30440   0.80649   0.36818   0.00000  Uiso   1.00
H409   H     0.30919   0.85102   0.39900   0.00000  Uiso   1.00
H410   H     0.15130   0.76288   0.11231   0.00000  Uiso   1.00
H411   H     0.10854   0.80033   0.11941   0.00000  Uiso   1.00
H412   H     0.23949   0.70525   0.19857   0.00000  Uiso   1.00
H413   H     0.09357   0.70527   0.30000   0.00000  Uiso   1.00
H414   H     0.03046   0.88294   0.30318   0.00000  Uiso   1.00
H415   H     0.05640   0.78202   0.19857   0.00000  Uiso   1.00
H416   H     0.30365   0.78289   0.19726   0.00000  Uiso   1.00
H417   H     0.30107   0.85384   0.49086   0.00000  Uiso   1.00
H418   H     0.05108   0.81977   0.41241   0.00000  Uiso   1.00
H419   H     0.08411   0.82160   0.05425   0.00000  Uiso   1.00
I420   I     0.25863   0.90592   0.33090   0.00000  Uiso   1.00
I421   I     0.27128   0.95065   0.16971   0.00000  Uiso   1.00
N422   N     0.04931   0.83332   0.24998   0.00000  Uiso   1.00
N423   N     0.28402   0.83335   0.25000   0.00000  Uiso   1.00
N424   N     0.08392   0.95764   0.30969   0.00000  Uiso   1.00
N425   N     0.29865   0.82012   0.40477   0.00000  Uiso   1.00
N426   N     0.13665   0.78472   0.09290   0.00000  Uiso   1.00
O427   O     0.12708   0.89345   0.25000   0.00000  Uiso   1.00
O428   O     0.20627   0.89346   0.25001   0.00000  Uiso   1.00
O429   O     0.10775   0.83332   0.32549   0.00000  Uiso   1.00
O430   O     0.18694   0.83333   0.32549   0.00000  Uiso   1.00
O431   O     0.12706   0.77321   0.24999   0.00000  Uiso   1.00
O432   O     0.20625   0.77322   0.25000   0.00000  Uiso   1.00
O433   O     0.14640   0.83334   0.17451   0.00000  Uiso   1.00
O434   O     0.22559   0.83335   0.17451   0.00000  Uiso   1.00
C435   C     0.50030   0.91259   0.24943   0.00000  Uiso   1.00
C436   C     0.46123   0.81941   0.40519   0.00000  Uiso   1.00
C437   C     0.54169   0.97906   0.22002   0.00000  Uiso   1.00
C438   C     0.47465   0.82872   0.34932   0.00000  Uiso   1.00
C439   C     0.54128   0.68850   0.22109   0.00000  Uiso   1.00
C440   C     0.49992   0.70974   0.24947   0.00000  Uiso   1.00
C441   C     0.45874   0.68855   0.27760   0.00000  Uiso   1.00
C442   C     0.45889   0.97902   0.27839   0.00000  Uiso   1.00
C443   C     0.50047   0.95736   0.24929   0.00000  Uiso   1.00
C444   C     0.63489   0.86117   0.27989   0.00000  Uiso   1.00
C445   C     0.35094   0.86105   0.27937   0.00000  Uiso   1.00
C446   C     0.48166   0.81548   0.48743   0.00000  Uiso   1.00
C447   C     0.36548   0.80512   0.22111   0.00000  Uiso   1.00
C448   C     0.64944   0.80537   0.22073   0.00000  Uiso   1.00
C449   C     0.49994   0.75419   0.24979   0.00000  Uiso   1.00
C450   C     0.52566   0.83207   0.15033   0.00000  Uiso   1.00
C451   C     0.59879   0.84283   0.01199   0.00000  Uiso   1.00
C452   C     0.53969   0.83006   0.09389   0.00000  Uiso   1.00
C453   C     0.41185   0.81796   0.43243   0.00000  Uiso   1.00
C454   C     0.39728   0.81584   0.48586   0.00000  Uiso   1.00
C455   C     0.43146   0.81722   0.01317   0.00000  Uiso   1.00
C456   C     0.49657   0.81425   0.43270   0.00000  Uiso   1.00
C457   C     0.51769   0.81860   0.01420   0.00000  Uiso   1.00
C458   C     0.56620   0.82772   0.48599   0.00000  Uiso   1.00
C459   C     0.58132   0.81956   0.43277   0.00000  Uiso   1.00
C460   C     0.54657   0.80887   0.40779   0.00000  Uiso   1.00
C461   C     0.50740   0.81339   0.06780   0.00000  Uiso   1.00
C462   C     0.58489   0.84554   0.06557   0.00000  Uiso   1.00
Cu463  Cu    0.45311   0.83333   0.25000   0.00000  Uiso   1.00
Cu464  Cu    0.54689   0.83334   0.25000   0.00000  Uiso   1.00
H465   H     0.61001   0.85862   0.08487   0.00000  Uiso   1.00
H466   H     0.35922   0.81512   0.00673   0.00000  Uiso   1.00
H467   H     0.55965   0.79690   0.36889   0.00000  Uiso   1.00
H468   H     0.38713   0.96570   0.29742   0.00000  Uiso   1.00
H469   H     0.41101   0.96798   0.34790   0.00000  Uiso   1.00
H470   H     0.63774   0.80649   0.36818   0.00000  Uiso   1.00
H471   H     0.64253   0.85102   0.39900   0.00000  Uiso   1.00
H472   H     0.48463   0.76288   0.11231   0.00000  Uiso   1.00
H473   H     0.44187   0.80033   0.11941   0.00000  Uiso   1.00
H474   H     0.57282   0.70525   0.19857   0.00000  Uiso   1.00
H475   H     0.42690   0.70527   0.30000   0.00000  Uiso   1.00
H476   H     0.36379   0.88294   0.30318   0.00000  Uiso   1.00
H477   H     0.38974   0.78202   0.19857   0.00000  Uiso   1.00
H478   H     0.63699   0.78289   0.19726   0.00000  Uiso   1.00
H479   H     0.63440   0.85384   0.49086   0.00000  Uiso   1.00
H480   H     0.38441   0.81977   0.41241   0.00000  Uiso   1.00
H481   H     0.41745   0.82160   0.05425   0.00000  Uiso   1.00
I482   I     0.59196   0.90592   0.33090   0.00000  Uiso   1.00
I483   I     0.60461   0.95065   0.16971   0.00000  Uiso   1.00
N484   N     0.38265   0.83332   0.24998   0.00000  Uiso   1.00
N485   N     0.61735   0.83335   0.25000   0.00000  Uiso   1.00
N486   N     0.41725   0.95764   0.30969   0.00000  Uiso   1.00
N487   N     0.63198   0.82012   0.40477   0.00000  Uiso   1.00
N488   N     0.46998   0.78472   0.09290   0.00000  Uiso   1.00
O489   O     0.46042   0.89345   0.25000   0.00000  Uiso   1.00
O490   O     0.53961   0.89346   0.25001   0.00000  Uiso   1.00
O491   O     0.44108   0.83332   0.32549   0.00000  Uiso   1.00
O492   O     0.52027   0.83333   0.32549   0.00000  Uiso   1.00
O493   O     0.46039   0.77321   0.24999   0.00000  Uiso   1.00
O494   O     0.53958   0.77322   0.25000   0.00000  Uiso   1.00
O495   O     0.47973   0.83334   0.17451   0.00000  Uiso   1.00
O496   O     0.55892   0.83335   0.17451   0.00000  Uiso   1.00
C497   C     0.83363   0.91259   0.24943   0.00000  Uiso   1.00
C498   C     0.79456   0.81941   0.40519   0.00000  Uiso   1.00
C499   C     0.87503   0.97906   0.22002   0.00000  Uiso   1.00
C500   C     0.80799   0.82872   0.34932   0.00000  Uiso   1.00
C501   C     0.87461   0.68850   0.22109   0.00000  Uiso   1.00
C502   C     0.83326   0.70974   0.24947   0.00000  Uiso   1.00
C503   C     0.79207   0.68855   0.27760   0.00000  Uiso   1.00
C504   C     0.79223   0.97902   0.27839   0.00000  Uiso   1.00
C505   C     0.83381   0.95736   0.24929   0.00000  Uiso   1.00
C506   C     0.96822   0.86117   0.27989   0.00000  Uiso   1.00
C507   C     0.68427   0.86105   0.27937   0.00000  Uiso   1.00
C508   C     0.81499   0.81548   0.48743   0.00000  Uiso   1.00
C509   C     0.69881   0.80512   0.22111   0.00000  Uiso   1.00
C510   C     0.98277   0.80537   0.22073   0.00000  Uiso   1.00
C511   C     0.83327   0.75419   0.24979   0.00000  Uiso   1.00
C512   C     0.85899   0.83207   0.15033   0.00000  Uiso   1.00
C513   C     0.93213   0.84283   0.01199   0.00000  Uiso   1.00
C514   C     0.87303   0.83006   0.09389   0.00000  Uiso   1.00
C515   C     0.74519   0.81796   0.43243   0.00000  Uiso   1.00
C516   C     0.73062   0.81584   0.48586   0.00000  Uiso   1.00
C517   C     0.76479   0.81722   0.01317   0.00000  Uiso   1.00
C518   C     0.82991   0.81425   0.43270   0.00000  Uiso   1.00
C519   C     0.85102   0.81860   0.01420   0.00000  Uiso   1.00
C520   C     0.89954   0.82772   0.48599   0.00000  Uiso   1.00
C521   C     0.91466   0.81956   0.43277   0.00000  Uiso   1.00
C522   C     0.87990   0.80887   0.40779   0.00000  Uiso   1.00
C523   C     0.84074   0.81339   0.06780   0.00000  Uiso   1.00
C524   C     0.91822   0.84554   0.06557   0.00000  Uiso   1.00
Cu525  Cu    0.78645   0.83333   0.25000   0.00000  Uiso   1.00
Cu526  Cu    0.88022   0.83334   0.25000   0.00000  Uiso   1.00
H527   H     0.94335   0.85862   0.08487   0.00000  Uiso   1.00
H528   H     0.69255   0.81512   0.00673   0.00000  Uiso   1.00
H529   H     0.89299   0.79690   0.36889   0.00000  Uiso   1.00
H530   H     0.72047   0.96570   0.29742   0.00000  Uiso   1.00
H531   H     0.74434   0.96798   0.34790   0.00000  Uiso   1.00
H532   H     0.97107   0.80649   0.36818   0.00000  Uiso   1.00
H533   H     0.97586   0.85102   0.39900   0.00000  Uiso   1.00
H534   H     0.81797   0.76288   0.11231   0.00000  Uiso   1.00
H535   H     0.77520   0.80033   0.11941   0.00000  Uiso   1.00
H536   H     0.90615   0.70525   0.19857   0.00000  Uiso   1.00
H537   H     0.76023   0.70527   0.30000   0.00000  Uiso   1.00
H538   H     0.69713   0.88294   0.30318   0.00000  Uiso   1.00
H539   H     0.72307   0.78202   0.19857   0.00000  Uiso   1.00
H540   H     0.97032   0.78289   0.19726   0.00000  Uiso   1.00
H541   H     0.96773   0.85384   0.49086   0.00000  Uiso   1.00
H542   H     0.71775   0.81977   0.41241   0.00000  Uiso   1.00
H543   H     0.75078   0.82160   0.05425   0.00000  Uiso   1.00
I544   I     0.92530   0.90592   0.33090   0.00000  Uiso   1.00
I545   I     0.93795   0.95065   0.16971   0.00000  Uiso   1.00
N546   N     0.71598   0.83332   0.24998   0.00000  Uiso   1.00
N547   N     0.95069   0.83335   0.25000   0.00000  Uiso   1.00
N548   N     0.75059   0.95764   0.30969   0.00000  Uiso   1.00
N549   N     0.96532   0.82012   0.40477   0.00000  Uiso   1.00
N550   N     0.80331   0.78472   0.09290   0.00000  Uiso   1.00
O551   O     0.79375   0.89345   0.25000   0.00000  Uiso   1.00
O552   O     0.87294   0.89346   0.25001   0.00000  Uiso   1.00
O553   O     0.77441   0.83332   0.32549   0.00000  Uiso   1.00
O554   O     0.85360   0.83333   0.32549   0.00000  Uiso   1.00
O555   O     0.79373   0.77321   0.24999   0.00000  Uiso   1.00
O556   O     0.87292   0.77322   0.25000   0.00000  Uiso   1.00
O557   O     0.81306   0.83334   0.17451   0.00000  Uiso   1.00
O558   O     0.89225   0.83335   0.17451   0.00000  Uiso   1.00
C559   C     0.16697   0.24592   0.74943   0.00000  Uiso   1.00
C560   C     0.12790   0.15274   0.90519   0.00000  Uiso   1.00
C561   C     0.20836   0.31239   0.72002   0.00000  Uiso   1.00
C562   C     0.14132   0.16205   0.84932   0.00000  Uiso   1.00
C563   C     0.20794   0.02184   0.72109   0.00000  Uiso   1.00
C564   C     0.16659   0.04307   0.74947   0.00000  Uiso   1.00
C565   C     0.12540   0.02188   0.77760   0.00000  Uiso   1.00
C566   C     0.12556   0.31235   0.77839   0.00000  Uiso   1.00
C567   C     0.16714   0.29069   0.74929   0.00000  Uiso   1.00
C568   C     0.30156   0.19450   0.77989   0.00000  Uiso   1.00
C569   C     0.01761   0.19438   0.77937   0.00000  Uiso   1.00
C570   C     0.14833   0.14881   0.98743   0.00000  Uiso   1.00
C571   C     0.03214   0.13846   0.72111   0.00000  Uiso   1.00
C572   C     0.31610   0.13870   0.72073   0.00000  Uiso   1.00
C573   C     0.16660   0.08752   0.74979   0.00000  Uiso   1.00
C574   C     0.19233   0.16541   0.65033   0.00000  Uiso   1.00
C575   C     0.26546   0.17617   0.51199   0.00000  Uiso   1.00
C576   C     0.20636   0.16339   0.59389   0.00000  Uiso   1.00
C577   C     0.07852   0.15129   0.93243   0.00000  Uiso   1.00
C578   C     0.06395   0.14918   0.98586   0.00000  Uiso   1.00
C579   C     0.09812   0.15055   0.51317   0.00000  Uiso   1.00
C580   C     0.16324   0.14758   0.93270   0.00000  Uiso   1.00
C581   C     0.18436   0.15193   0.51420   0.00000  Uiso   1.00
C582   C     0.23287   0.16105   0.98599   0.00000  Uiso   1.00
C583   C     0.24799   0.15289   0.93277   0.00000  Uiso   1.00
C584   C     0.21323   0.14220   0.90779   0.00000  Uiso   1.00
C585   C     0.17407   0.14672   0.56780   0.00000  Uiso   1.00
C586   C     0.25156   0.17888   0.56557   0.00000  Uiso   1.00
Cu587  Cu    0.11978   0.16666   0.75000   0.00000  Uiso   1.00
Cu588  Cu    0.21355   0.16667   0.75000   0.00000  Uiso   1.00
H589   H     0.27668   0.19195   0.58487   0.00000  Uiso   1.00
H590   H     0.02588   0.14845   0.50673   0.00000  Uiso   1.00
H591   H     0.22632   0.13023   0.86889   0.00000  Uiso   1.00
H592   H     0.05380   0.29903   0.79742   0.00000  Uiso   1.00
H593   H     0.07767   0.30132   0.84790   0.00000  Uiso   1.00
H594   H     0.30440   0.13983   0.86818   0.00000  Uiso   1.00
H595   H     0.30919   0.18436   0.89900   0.00000  Uiso   1.00
H596   H     0.15130   0.09622   0.61231   0.00000  Uiso   1.00
H597   H     0.10854   0.13366   0.61941   0.00000  Uiso   1.00
H598   H     0.23949   0.03858   0.69857   0.00000  Uiso   1.00
H599   H     0.09357   0.03860   0.80000   0.00000  Uiso   1.00
H600   H     0.03046   0.21627   0.80318   0.00000  Uiso   1.00
H601   H     0.05640   0.11536   0.69857   0.00000  Uiso   1.00
H602   H     0.30365   0.11623   0.69726   0.00000  Uiso   1.00
H603   H     0.30107   0.18717   0.99086   0.00000  Uiso   1.00
H604   H     0.05108   0.15310   0.91241   0.00000  Uiso   1.00
H605   H     0.08411   0.15493   0.55425   0.00000  Uiso   1.00
I606   I     0.25863   0.23926   0.83090   0.00000  Uiso   1.00
I607   I     0.27128   0.28398   0.66971   0.00000  Uiso   1.00
N608   N     0.04931   0.16666   0.74998   0.00000  Uiso   1.00
N609   N     0.28402   0.16669   0.75000   0.00000  Uiso   1.00
N610   N     0.08392   0.29097   0.80969   0.00000  Uiso   1.00
N611   N     0.29865   0.15345   0.90477   0.00000  Uiso   1.00
N612   N     0.13665   0.11805   0.59290   0.00000  Uiso   1.00
O613   O     0.12708   0.22678   0.75000   0.00000  Uiso   1.00
O614   O     0.20627   0.22679   0.75001   0.00000  Uiso   1.00
O615   O     0.10775   0.16665   0.82549   0.00000  Uiso   1.00
O616   O     0.18694   0.16666   0.82549   0.00000  Uiso   1.00
O617   O     0.12706   0.10654   0.74999   0.00000  Uiso   1.00
O618   O     0.20625   0.10655   0.75000   0.00000  Uiso   1.00
O619   O     0.14640   0.16667   0.67451   0.00000  Uiso   1.00
O620   O     0.22559   0.16668   0.67451   0.00000  Uiso   1.00
C621   C     0.50030   0.24592   0.74943   0.00000  Uiso   1.00
C622   C     0.46123   0.15274   0.90519   0.00000  Uiso   1.00
C623   C     0.54169   0.31239   0.72002   0.00000  Uiso   1.00
C624   C     0.47465   0.16205   0.84932   0.00000  Uiso   1.00
C625   C     0.54128   0.02184   0.72109   0.00000  Uiso   1.00
C626   C     0.49992   0.04307   0.74947   0.00000  Uiso   1.00
C627   C     0.45874   0.02188   0.77760   0.00000  Uiso   1.00
C628   C     0.45889   0.31235   0.77839   0.00000  Uiso   1.00
C629   C     0.50047   0.29069   0.74929   0.00000  Uiso   1.00
C630   C     0.63489   0.19450   0.77989   0.00000  Uiso   1.00
C631   C     0.35094   0.19438   0.77937   0.00000  Uiso   1.00
C632   C     0.48166   0.14881   0.98743   0.00000  Uiso   1.00
C633   C     0.36548   0.13846   0.72111   0.00000  Uiso   1.00
C634   C     0.64944   0.13870   0.72073   0.00000  Uiso   1.00
C635   C     0.49994   0.08752   0.74979   0.00000  Uiso   1.00
C636   C     0.52566   0.16541   0.65033   0.00000  Uiso   1.00
C637   C     0.59879   0.17617   0.51199   0.00000  Uiso   1.00
C638   C     0.53969   0.16339   0.59389   0.00000  Uiso   1.00
C639   C     0.41185   0.15129   0.93243   0.00000  Uiso   1.00
C640   C     0.39728   0.14918   0.98586   0.00000  Uiso   1.00
C641   C     0.43146   0.15055   0.51317   0.00000  Uiso   1.00
C642   C     0.49657   0.14758   0.93270   0.00000  Uiso   1.00
C643   C     0.51769   0.15193   0.51420   0.00000  Uiso   1.00
C644   C     0.56620   0.16105   0.98599   0.00000  Uiso   1.00
C645   C     0.58132   0.15289   0.93277   0.00000  Uiso   1.00
C646   C     0.54657   0.14220   0.90779   0.00000  Uiso   1.00
C647   C     0.50740   0.14672   0.56780   0.00000  Uiso   1.00
C648   C     0.58489   0.17888   0.56557   0.00000  Uiso   1.00
Cu649  Cu    0.45311   0.16666   0.75000   0.00000  Uiso   1.00
Cu650  Cu    0.54689   0.16667   0.75000   0.00000  Uiso   1.00
H651   H     0.61001   0.19195   0.58487   0.00000  Uiso   1.00
H652   H     0.35922   0.14845   0.50673   0.00000  Uiso   1.00
H653   H     0.55965   0.13023   0.86889   0.00000  Uiso   1.00
H654   H     0.38713   0.29903   0.79742   0.00000  Uiso   1.00
H655   H     0.41101   0.30132   0.84790   0.00000  Uiso   1.00
H656   H     0.63774   0.13983   0.86818   0.00000  Uiso   1.00
H657   H     0.64253   0.18436   0.89900   0.00000  Uiso   1.00
H658   H     0.48463   0.09622   0.61231   0.00000  Uiso   1.00
H659   H     0.44187   0.13366   0.61941   0.00000  Uiso   1.00
H660   H     0.57282   0.03858   0.69857   0.00000  Uiso   1.00
H661   H     0.42690   0.03860   0.80000   0.00000  Uiso   1.00
H662   H     0.36379   0.21627   0.80318   0.00000  Uiso   1.00
H663   H     0.38974   0.11536   0.69857   0.00000  Uiso   1.00
H664   H     0.63699   0.11623   0.69726   0.00000  Uiso   1.00
H665   H     0.63440   0.18717   0.99086   0.00000  Uiso   1.00
H666   H     0.38441   0.15310   0.91241   0.00000  Uiso   1.00
H667   H     0.41745   0.15493   0.55425   0.00000  Uiso   1.00
I668   I     0.59196   0.23926   0.83090   0.00000  Uiso   1.00
I669   I     0.60461   0.28398   0.66971   0.00000  Uiso   1.00
N670   N     0.38265   0.16666   0.74998   0.00000  Uiso   1.00
N671   N     0.61735   0.16669   0.75000   0.00000  Uiso   1.00
N672   N     0.41725   0.29097   0.80969   0.00000  Uiso   1.00
N673   N     0.63198   0.15345   0.90477   0.00000  Uiso   1.00
N674   N     0.46998   0.11805   0.59290   0.00000  Uiso   1.00
O675   O     0.46042   0.22678   0.75000   0.00000  Uiso   1.00
O676   O     0.53961   0.22679   0.75001   0.00000  Uiso   1.00
O677   O     0.44108   0.16665   0.82549   0.00000  Uiso   1.00
O678   O     0.52027   0.16666   0.82549   0.00000  Uiso   1.00
O679   O     0.46039   0.10654   0.74999   0.00000  Uiso   1.00
O680   O     0.53958   0.10655   0.75000   0.00000  Uiso   1.00
O681   O     0.47973   0.16667   0.67451   0.00000  Uiso   1.00
O682   O     0.55892   0.16668   0.67451   0.00000  Uiso   1.00
C683   C     0.83363   0.24592   0.74943   0.00000  Uiso   1.00
C684   C     0.79456   0.15274   0.90519   0.00000  Uiso   1.00
C685   C     0.87503   0.31239   0.72002   0.00000  Uiso   1.00
C686   C     0.80799   0.16205   0.84932   0.00000  Uiso   1.00
C687   C     0.87461   0.02184   0.72109   0.00000  Uiso   1.00
C688   C     0.83326   0.04307   0.74947   0.00000  Uiso   1.00
C689   C     0.79207   0.02188   0.77760   0.00000  Uiso   1.00
C690   C     0.79223   0.31235   0.77839   0.00000  Uiso   1.00
C691   C     0.83381   0.29069   0.74929   0.00000  Uiso   1.00
C692   C     0.96822   0.19450   0.77989   0.00000  Uiso   1.00
C693   C     0.68427   0.19438   0.77937   0.00000  Uiso   1.00
C694   C     0.81499   0.14881   0.98743   0.00000  Uiso   1.00
C695   C     0.69881   0.13846   0.72111   0.00000  Uiso   1.00
C696   C     0.98277   0.13870   0.72073   0.00000  Uiso   1.00
C697   C     0.83327   0.08752   0.74979   0.00000  Uiso   1.00
C698   C     0.85899   0.16541   0.65033   0.00000  Uiso   1.00
C699   C     0.93213   0.17617   0.51199   0.00000  Uiso   1.00
C700   C     0.87303   0.16339   0.59389   0.00000  Uiso   1.00
C701   C     0.74519   0.15129   0.93243   0.00000  Uiso   1.00
C702   C     0.73062   0.14918   0.98586   0.00000  Uiso   1.00
C703   C     0.76479   0.15055   0.51317   0.00000  Uiso   1.00
C704   C     0.82991   0.14758   0.93270   0.00000  Uiso   1.00
C705   C     0.85102   0.15193   0.51420   0.00000  Uiso   1.00
C706   C     0.89954   0.16105   0.98599   0.00000  Uiso   1.00
C707   C     0.91466   0.15289   0.93277   0.00000  Uiso   1.00
C708   C     0.87990   0.14220   0.90779   0.00000  Uiso   1.00
C709   C     0.84074   0.14672   0.56780   0.00000  Uiso   1.00
C710   C     0.91822   0.17888   0.56557   0.00000  Uiso   1.00
Cu711  Cu    0.78645   0.16666   0.75000   0.00000  Uiso   1.00
Cu712  Cu    0.88022   0.16667   0.75000   0.00000  Uiso   1.00
H713   H     0.94335   0.19195   0.58487   0.00000  Uiso   1.00
H714   H     0.69255   0.14845   0.50673   0.00000  Uiso   1.00
H715   H     0.89299   0.13023   0.86889   0.00000  Uiso   1.00
H716   H     0.72047   0.29903   0.79742   0.00000  Uiso   1.00
H717   H     0.74434   0.30132   0.84790   0.00000  Uiso   1.00
H718   H     0.97107   0.13983   0.86818   0.00000  Uiso   1.00
H719   H     0.97586   0.18436   0.89900   0.00000  Uiso   1.00
H720   H     0.81797   0.09622   0.61231   0.00000  Uiso   1.00
H721   H     0.77520   0.13366   0.61941   0.00000  Uiso   1.00
H722   H     0.90615   0.03858   0.69857   0.00000  Uiso   1.00
H723   H     0.76023   0.03860   0.80000   0.00000  Uiso   1.00
H724   H     0.69713   0.21627   0.80318   0.00000  Uiso   1.00
H725   H     0.72307   0.11536   0.69857   0.00000  Uiso   1.00
H726   H     0.97032   0.11623   0.69726   0.00000  Uiso   1.00
H727   H     0.96773   0.18717   0.99086   0.00000  Uiso   1.00
H728   H     0.71775   0.15310   0.91241   0.00000  Uiso   1.00
H729   H     0.75078   0.15493   0.55425   0.00000  Uiso   1.00
I730   I     0.92530   0.23926   0.83090   0.00000  Uiso   1.00
I731   I     0.93795   0.28398   0.66971   0.00000  Uiso   1.00
N732   N     0.71598   0.16666   0.74998   0.00000  Uiso   1.00
N733   N     0.95069   0.16669   0.75000   0.00000  Uiso   1.00
N734   N     0.75059   0.29097   0.80969   0.00000  Uiso   1.00
N735   N     0.96532   0.15345   0.90477   0.00000  Uiso   1.00
N736   N     0.80331   0.11805   0.59290   0.00000  Uiso   1.00
O737   O     0.79375   0.22678   0.75000   0.00000  Uiso   1.00
O738   O     0.87294   0.22679   0.75001   0.00000  Uiso   1.00
O739   O     0.77441   0.16665   0.82549   0.00000  Uiso   1.00
O740   O     0.85360   0.16666   0.82549   0.00000  Uiso   1.00
O741   O     0.79373   0.10654   0.74999   0.00000  Uiso   1.00
O742   O     0.87292   0.10655   0.75000   0.00000  Uiso   1.00
O743   O     0.81306   0.16667   0.67451   0.00000  Uiso   1.00
O744   O     0.89225   0.16668   0.67451   0.00000  Uiso   1.00
C745   C     0.16697   0.57925   0.74943   0.00000  Uiso   1.00
C746   C     0.12790   0.48608   0.90519   0.00000  Uiso   1.00
C747   C     0.20836   0.64573   0.72002   0.00000  Uiso   1.00
C748   C     0.14132   0.49539   0.84932   0.00000  Uiso   1.00
C749   C     0.20794   0.35517   0.72109   0.00000  Uiso   1.00
C750   C     0.16659   0.37640   0.74947   0.00000  Uiso   1.00
C751   C     0.12540   0.35522   0.77760   0.00000  Uiso   1.00
C752   C     0.12556   0.64568   0.77839   0.00000  Uiso   1.00
C753   C     0.16714   0.62402   0.74929   0.00000  Uiso   1.00
C754   C     0.30156   0.52783   0.77989   0.00000  Uiso   1.00
C755   C     0.01761   0.52771   0.77937   0.00000  Uiso   1.00
C756   C     0.14833   0.48215   0.98743   0.00000  Uiso   1.00
C757   C     0.03214   0.47179   0.72111   0.00000  Uiso   1.00
C758   C     0.31610   0.47203   0.72073   0.00000  Uiso   1.00
C759   C     0.16660   0.42086   0.74979   0.00000  Uiso   1.00
C760   C     0.19233   0.49874   0.65033   0.00000  Uiso   1.00
C761   C     0.26546   0.50950   0.51199   0.00000  Uiso   1.00
C762   C     0.20636   0.49672   0.59389   0.00000  Uiso   1.00
C763   C     0.07852   0.48463   0.93243   0.00000  Uiso   1.00
C764   C     0.06395   0.48251   0.98586   0.00000  Uiso   1.00
C765   C     0.09812   0.48389   0.51317   0.00000  Uiso   1.00
C766   C     0.16324   0.48092   0.93270   0.00000  Uiso   1.00
C767   C     0.18436   0.48526   0.51420   0.00000  Uiso   1.00
C768   C     0.23287   0.49438   0.98599   0.00000  Uiso   1.00
C769   C     0.24799   0.48622   0.93277   0.00000  Uiso   1.00
C770   C     0.21323   0.47553   0.90779   0.00000  Uiso   1.00
C771   C     0.17407   0.48005   0.56780   0.00000  Uiso   1.00
C772   C     0.25156   0.51221   0.56557   0.00000  Uiso   1.00
Cu773  Cu    0.11978   0.49999   0.75000   0.00000  Uiso   1.00
Cu774  Cu    0.21355   0.50001   0.75000   0.00000  Uiso   1.00
H775   H     0.27668   0.52529   0.58487   0.00000  Uiso   1.00
H776   H     0.02588   0.48179   0.50673   0.00000  Uiso   1.00
H777   H     0.22632   0.46357   0.86889   0.00000  Uiso   1.00
H778   H     0.05380   0.63236   0.79742   0.00000  Uiso   1.00
H779   H     0.07767   0.63465   0.84790   0.00000  Uiso   1.00
H780   H     0.30440   0.47316   0.86818   0.00000  Uiso   1.00
H781   H     0.30919   0.51769   0.89900   0.00000  Uiso   1.00
H782   H     0.15130   0.42955   0.61231   0.00000  Uiso   1.00
H783   H     0.10854   0.46700   0.61941   0.00000  Uiso   1.00
H784   H     0.23949   0.37192   0.69857   0.00000  Uiso   1.00
H785   H     0.09357   0.37194   0.80000   0.00000  Uiso   1.00
H786   H     0.03046   0.54961   0.80318   0.00000  Uiso   1.00
H787   H     0.05640   0.44869   0.69857   0.00000  Uiso   1.00
H788   H     0.30365   0.44956   0.69726   0.00000  Uiso   1.00
H789   H     0.30107   0.52051   0.99086   0.00000  Uiso   1.00
H790   H     0.05108   0.48643   0.91241   0.00000  Uiso   1.00
H791   H     0.08411   0.48826   0.55425   0.00000  Uiso   1.00
I792   I     0.25863   0.57259   0.83090   0.00000  Uiso   1.00
I793   I     0.27128   0.61731   0.66971   0.00000  Uiso   1.00
N794   N     0.04931   0.49999   0.74998   0.00000  Uiso   1.00
N795   N     0.28402   0.50002   0.75000   0.00000  Uiso   1.00
N796   N     0.08392   0.62431   0.80969   0.00000  Uiso   1.00
N797   N     0.29865   0.48679   0.90477   0.00000  Uiso   1.00
N798   N     0.13665   0.45139   0.59290   0.00000  Uiso   1.00
O799   O     0.12708   0.56011   0.75000   0.00000  Uiso   1.00
O800   O     0.20627   0.56012   0.75001   0.00000  Uiso   1.00
O801   O     0.10775   0.49998   0.82549   0.00000  Uiso   1.00
O802   O     0.18694   0.49999   0.82549   0.00000  Uiso   1.00
O803   O     0.12706   0.43988   0.74999   0.00000  Uiso   1.00
O804   O     0.20625   0.43989   0.75000   0.00000  Uiso   1.00
O805   O     0.14640   0.50001   0.67451   0.00000  Uiso   1.00
O806   O     0.22559   0.50002   0.67451   0.00000  Uiso   1.00
C807   C     0.50030   0.57925   0.74943   0.00000  Uiso   1.00
C808   C     0.46123   0.48608   0.90519   0.00000  Uiso   1.00
C809   C     0.54169   0.64573   0.72002   0.00000  Uiso   1.00
C810   C     0.47465   0.49539   0.84932   0.00000  Uiso   1.00
C811   C     0.54128   0.35517   0.72109   0.00000  Uiso   1.00
C812   C     0.49992   0.37640   0.74947   0.00000  Uiso   1.00
C813   C     0.45874   0.35522   0.77760   0.00000  Uiso   1.00
C814   C     0.45889   0.64568   0.77839   0.00000  Uiso   1.00
C815   C     0.50047   0.62402   0.74929   0.00000  Uiso   1.00
C816   C     0.63489   0.52783   0.77989   0.00000  Uiso   1.00
C817   C     0.35094   0.52771   0.77937   0.00000  Uiso   1.00
C818   C     0.48166   0.48215   0.98743   0.00000  Uiso   1.00
C819   C     0.36548   0.47179   0.72111   0.00000  Uiso   1.00
C820   C     0.64944   0.47203   0.72073   0.00000  Uiso   1.00
C821   C     0.49994   0.42086   0.74979   0.00000  Uiso   1.00
C822   C     0.52566   0.49874   0.65033   0.00000  Uiso   1.00
C823   C     0.59879   0.50950   0.51199   0.00000  Uiso   1.00
C824   C     0.53969   0.49672   0.59389   0.00000  Uiso   1.00
C825   C     0.41185   0.48463   0.93243   0.00000  Uiso   1.00
C826   C     0.39728   0.48251   0.98586   0.00000  Uiso   1.00
C827   C     0.43146   0.48389   0.51317   0.00000  Uiso   1.00
C828   C     0.49657   0.48092   0.93270   0.00000  Uiso   1.00
C829   C     0.51769   0.48526   0.51420   0.00000  Uiso   1.00
C830   C     0.56620   0.49438   0.98599   0.00000  Uiso   1.00
C831   C     0.58132   0.48622   0.93277   0.00000  Uiso   1.00
C832   C     0.54657   0.47553   0.90779   0.00000  Uiso   1.00
C833   C     0.50740   0.48005   0.56780   0.00000  Uiso   1.00
C834   C     0.58489   0.51221   0.56557   0.00000  Uiso   1.00
Cu835  Cu    0.45311   0.49999   0.75000   0.00000  Uiso   1.00
Cu836  Cu    0.54689   0.50001   0.75000   0.00000  Uiso   1.00
H837   H     0.61001   0.52529   0.58487   0.00000  Uiso   1.00
H838   H     0.35922   0.48179   0.50673   0.00000  Uiso   1.00
H839   H     0.55965   0.46357   0.86889   0.00000  Uiso   1.00
H840   H     0.38713   0.63236   0.79742   0.00000  Uiso   1.00
H841   H     0.41101   0.63465   0.84790   0.00000  Uiso   1.00
H842   H     0.63774   0.47316   0.86818   0.00000  Uiso   1.00
H843   H     0.64253   0.51769   0.89900   0.00000  Uiso   1.00
H844   H     0.48463   0.42955   0.61231   0.00000  Uiso   1.00
H845   H     0.44187   0.46700   0.61941   0.00000  Uiso   1.00
H846   H     0.57282   0.37192   0.69857   0.00000  Uiso   1.00
H847   H     0.42690   0.37194   0.80000   0.00000  Uiso   1.00
H848   H     0.36379   0.54961   0.80318   0.00000  Uiso   1.00
H849   H     0.38974   0.44869   0.69857   0.00000  Uiso   1.00
H850   H     0.63699   0.44956   0.69726   0.00000  Uiso   1.00
H851   H     0.63440   0.52051   0.99086   0.00000  Uiso   1.00
H852   H     0.38441   0.48643   0.91241   0.00000  Uiso   1.00
H853   H     0.41745   0.48826   0.55425   0.00000  Uiso   1.00
I854   I     0.59196   0.57259   0.83090   0.00000  Uiso   1.00
I855   I     0.60461   0.61731   0.66971   0.00000  Uiso   1.00
N856   N     0.38265   0.49999   0.74998   0.00000  Uiso   1.00
N857   N     0.61735   0.50002   0.75000   0.00000  Uiso   1.00
N858   N     0.41725   0.62431   0.80969   0.00000  Uiso   1.00
N859   N     0.63198   0.48679   0.90477   0.00000  Uiso   1.00
N860   N     0.46998   0.45139   0.59290   0.00000  Uiso   1.00
O861   O     0.46042   0.56011   0.75000   0.00000  Uiso   1.00
O862   O     0.53961   0.56012   0.75001   0.00000  Uiso   1.00
O863   O     0.44108   0.49998   0.82549   0.00000  Uiso   1.00
O864   O     0.52027   0.49999   0.82549   0.00000  Uiso   1.00
O865   O     0.46039   0.43988   0.74999   0.00000  Uiso   1.00
O866   O     0.53958   0.43989   0.75000   0.00000  Uiso   1.00
O867   O     0.47973   0.50001   0.67451   0.00000  Uiso   1.00
O868   O     0.55892   0.50002   0.67451   0.00000  Uiso   1.00
C869   C     0.83363   0.57925   0.74943   0.00000  Uiso   1.00
C870   C     0.79456   0.48608   0.90519   0.00000  Uiso   1.00
C871   C     0.87503   0.64573   0.72002   0.00000  Uiso   1.00
C872   C     0.80799   0.49539   0.84932   0.00000  Uiso   1.00
C873   C     0.87461   0.35517   0.72109   0.00000  Uiso   1.00
C874   C     0.83326   0.37640   0.74947   0.00000  Uiso   1.00
C875   C     0.79207   0.35522   0.77760   0.00000  Uiso   1.00
C876   C     0.79223   0.64568   0.77839   0.00000  Uiso   1.00
C877   C     0.83381   0.62402   0.74929   0.00000  Uiso   1.00
C878   C     0.96822   0.52783   0.77989   0.00000  Uiso   1.00
C879   C     0.68427   0.52771   0.77937   0.00000  Uiso   1.00
C880   C     0.81499   0.48215   0.98743   0.00000  Uiso   1.00
C881   C     0.69881   0.47179   0.72111   0.00000  Uiso   1.00
C882   C     0.98277   0.47203   0.72073   0.00000  Uiso   1.00
C883   C     0.83327   0.42086   0.74979   0.00000  Uiso   1.00
C884   C     0.85899   0.49874   0.65033   0.00000  Uiso   1.00
C885   C     0.93213   0.50950   0.51199   0.00000  Uiso   1.00
C886   C     0.87303   0.49672   0.59389   0.00000  Uiso   1.00
C887   C     0.74519   0.48463   0.93243   0.00000  Uiso   1.00
C888   C     0.73062   0.48251   0.98586   0.00000  Uiso   1.00
C889   C     0.76479   0.48389   0.51317   0.00000  Uiso   1.00
C890   C     0.82991   0.48092   0.93270   0.00000  Uiso   1.00
C891   C     0.85102   0.48526   0.51420   0.00000  Uiso   1.00
C892   C     0.89954   0.49438   0.98599   0.00000  Uiso   1.00
C893   C     0.91466   0.48622   0.93277   0.00000  Uiso   1.00
C894   C     0.87990   0.47553   0.90779   0.00000  Uiso   1.00
C895   C     0.84074   0.48005   0.56780   0.00000  Uiso   1.00
C896   C     0.91822   0.51221   0.56557   0.00000  Uiso   1.00
Cu897  Cu    0.78645   0.49999   0.75000   0.00000  Uiso   1.00
Cu898  Cu    0.88022   0.50001   0.75000   0.00000  Uiso   1.00
H899   H     0.94335   0.52529   0.58487   0.00000  Uiso   1.00
H900   H     0.69255   0.48179   0.50673   0.00000  Uiso   1.00
H901   H     0.89299   0.46357   0.86889   0.00000  Uiso   1.00
H902   H     0.72047   0.63236   0.79742   0.00000  Uiso   1.00
H903   H     0.74434   0.63465   0.84790   0.00000  Uiso   1.00
H904   H     0.97107   0.47316   0.86818   0.00000  Uiso   1.00
H905   H     0.97586   0.51769   0.89900   0.00000  Uiso   1.00
H906   H     0.81797   0.42955   0.61231   0.00000  Uiso   1.00
H907   H     0.77520   0.46700   0.61941   0.00000  Uiso   1.00
H908   H     0.90615   0.37192   0.69857   0.00000  Uiso   1.00
H909   H     0.76023   0.37194   0.80000   0.00000  Uiso   1.00
H910   H     0.69713   0.54961   0.80318   0.00000  Uiso   1.00
H911   H     0.72307   0.44869   0.69857   0.00000  Uiso   1.00
H912   H     0.97032   0.44956   0.69726   0.00000  Uiso   1.00
H913   H     0.96773   0.52051   0.99086   0.00000  Uiso   1.00
H914   H     0.71775   0.48643   0.91241   0.00000  Uiso   1.00
H915   H     0.75078   0.48826   0.55425   0.00000  Uiso   1.00
I916   I     0.92530   0.57259   0.83090   0.00000  Uiso   1.00
I917   I     0.93795   0.61731   0.66971   0.00000  Uiso   1.00
N918   N     0.71598   0.49999   0.74998   0.00000  Uiso   1.00
N919   N     0.95069   0.50002   0.75000   0.00000  Uiso   1.00
N920   N     0.75059   0.62431   0.80969   0.00000  Uiso   1.00
N921   N     0.96532   0.48679   0.90477   0.00000  Uiso   1.00
N922   N     0.80331   0.45139   0.59290   0.00000  Uiso   1.00
O923   O     0.79375   0.56011   0.75000   0.00000  Uiso   1.00
O924   O     0.87294   0.56012   0.75001   0.00000  Uiso   1.00
O925   O     0.77441   0.49998   0.82549   0.00000  Uiso   1.00
O926   O     0.85360   0.49999   0.82549   0.00000  Uiso   1.00
O927   O     0.79373   0.43988   0.74999   0.00000  Uiso   1.00
O928   O     0.87292   0.43989   0.75000   0.00000  Uiso   1.00
O929   O     0.81306   0.50001   0.67451   0.00000  Uiso   1.00
O930   O     0.89225   0.50002   0.67451   0.00000  Uiso   1.00
C931   C     0.16697   0.91259   0.74943   0.00000  Uiso   1.00
C932   C     0.12790   0.81941   0.90519   0.00000  Uiso   1.00
C933   C     0.20836   0.97906   0.72002   0.00000  Uiso   1.00
C934   C     0.14132   0.82872   0.84932   0.00000  Uiso   1.00
C935   C     0.20794   0.68850   0.72109   0.00000  Uiso   1.00
C936   C     0.16659   0.70974   0.74947   0.00000  Uiso   1.00
C937   C     0.12540   0.68855   0.77760   0.00000  Uiso   1.00
C938   C     0.12556   0.97902   0.77839   0.00000  Uiso   1.00
C939   C     0.16714   0.95736   0.74929   0.00000  Uiso   1.00
C940   C     0.30156   0.86117   0.77989   0.00000  Uiso   1.00
C941   C     0.01761   0.86105   0.77937   0.00000  Uiso   1.00
C942   C     0.14833   0.81548   0.98743   0.00000  Uiso   1.00
C943   C     0.03214   0.80512   0.72111   0.00000  Uiso   1.00
C944   C     0.31610   0.80537   0.72073   0.00000  Uiso   1.00
C945   C     0.16660   0.75419   0.74979   0.00000  Uiso   1.00
C946   C     0.19233   0.83207   0.65033   0.00000  Uiso   1.00
C947   C     0.26546   0.84283   0.51199   0.00000  Uiso   1.00
C948   C     0.20636   0.83006   0.59389   0.00000  Uiso   1.00
C949   C     0.07852   0.81796   0.93243   0.00000  Uiso   1.00
C950   C     0.06395   0.81584   0.98586   0.00000  Uiso   1.00
C951   C     0.09812   0.81722   0.51317   0.00000  Uiso   1.00
C952   C     0.16324   0.81425   0.93270   0.00000  Uiso   1.00
C953   C     0.18436   0.81860   0.51420   0.00000  Uiso   1.00
C954   C     0.23287   0.82772   0.98599   0.00000  Uiso   1.00
C955   C     0.24799   0.81956   0.93277   0.00000  Uiso   1.00
C956   C     0.21323   0.80887   0.90779   0.00000  Uiso   1.00
C957   C     0.17407   0.81339   0.56780   0.00000  Uiso   1.00
C958   C     0.25156   0.84554   0.56557   0.00000  Uiso   1.00
Cu959  Cu    0.11978   0.83333   0.75000   0.00000  Uiso   1.00
Cu960  Cu    0.21355   0.83334   0.75000   0.00000  Uiso   1.00
H961   H     0.27668   0.85862   0.58487   0.00000  Uiso   1.00
H962   H     0.02588   0.81512   0.50673   0.00000  Uiso   1.00
H963   H     0.22632   0.79690   0.86889   0.00000  Uiso   1.00
H964   H     0.05380   0.96570   0.79742   0.00000  Uiso   1.00
H965   H     0.07767   0.96798   0.84790   0.00000  Uiso   1.00
H966   H     0.30440   0.80649   0.86818   0.00000  Uiso   1.00
H967   H     0.30919   0.85102   0.89900   0.00000  Uiso   1.00
H968   H     0.15130   0.76288   0.61231   0.00000  Uiso   1.00
H969   H     0.10854   0.80033   0.61941   0.00000  Uiso   1.00
H970   H     0.23949   0.70525   0.69857   0.00000  Uiso   1.00
H971   H     0.09357   0.70527   0.80000   0.00000  Uiso   1.00
H972   H     0.03046   0.88294   0.80318   0.00000  Uiso   1.00
H973   H     0.05640   0.78202   0.69857   0.00000  Uiso   1.00
H974   H     0.30365   0.78289   0.69726   0.00000  Uiso   1.00
H975   H     0.30107   0.85384   0.99086   0.00000  Uiso   1.00
H976   H     0.05108   0.81977   0.91241   0.00000  Uiso   1.00
H977   H     0.08411   0.82160   0.55425   0.00000  Uiso   1.00
I978   I     0.25863   0.90592   0.83090   0.00000  Uiso   1.00
I979   I     0.27128   0.95065   0.66971   0.00000  Uiso   1.00
N980   N     0.04931   0.83332   0.74998   0.00000  Uiso   1.00
N981   N     0.28402   0.83335   0.75000   0.00000  Uiso   1.00
N982   N     0.08392   0.95764   0.80969   0.00000  Uiso   1.00
N983   N     0.29865   0.82012   0.90477   0.00000  Uiso   1.00
N984   N     0.13665   0.78472   0.59290   0.00000  Uiso   1.00
O985   O     0.12708   0.89345   0.75000   0.00000  Uiso   1.00
O986   O     0.20627   0.89346   0.75001   0.00000  Uiso   1.00
O987   O     0.10775   0.83332   0.82549   0.00000  Uiso   1.00
O988   O     0.18694   0.83333   0.82549   0.00000  Uiso   1.00
O989   O     0.12706   0.77321   0.74999   0.00000  Uiso   1.00
O990   O     0.20625   0.77322   0.75000   0.00000  Uiso   1.00
O991   O     0.14640   0.83334   0.67451   0.00000  Uiso   1.00
O992   O     0.22559   0.83335   0.67451   0.00000  Uiso   1.00
C993   C     0.50030   0.91259   0.74943   0.00000  Uiso   1.00
C994   C     0.46123   0.81941   0.90519   0.00000  Uiso   1.00
C995   C     0.54169   0.97906   0.72002   0.00000  Uiso   1.00
C996   C     0.47465   0.82872   0.84932   0.00000  Uiso   1.00
C997   C     0.54128   0.68850   0.72109   0.00000  Uiso   1.00
C998   C     0.49992   0.70974   0.74947   0.00000  Uiso   1.00
C999   C     0.45874   0.68855   0.77760   0.00000  Uiso   1.00
C1000  C     0.45889   0.97902   0.77839   0.00000  Uiso   1.00
C1001  C     0.50047   0.95736   0.74929   0.00000  Uiso   1.00
C1002  C     0.63489   0.86117   0.77989   0.00000  Uiso   1.00
C1003  C     0.35094   0.86105   0.77937   0.00000  Uiso   1.00
C1004  C     0.48166   0.81548   0.98743   0.00000  Uiso   1.00
C1005  C     0.36548   0.80512   0.72111   0.00000  Uiso   1.00
C1006  C     0.64944   0.80537   0.72073   0.00000  Uiso   1.00
C1007  C     0.49994   0.75419   0.74979   0.00000  Uiso   1.00
C1008  C     0.52566   0.83207   0.65033   0.00000  Uiso   1.00
C1009  C     0.59879   0.84283   0.51199   0.00000  Uiso   1.00
C1010  C     0.53969   0.83006   0.59389   0.00000  Uiso   1.00
C1011  C     0.41185   0.81796   0.93243   0.00000  Uiso   1.00
C1012  C     0.39728   0.81584   0.98586   0.00000  Uiso   1.00
C1013  C     0.43146   0.81722   0.51317   0.00000  Uiso   1.00
C1014  C     0.49657   0.81425   0.93270   0.00000  Uiso   1.00
C1015  C     0.51769   0.81860   0.51420   0.00000  Uiso   1.00
C1016  C     0.56620   0.82772   0.98599   0.00000  Uiso   1.00
C1017  C     0.58132   0.81956   0.93277   0.00000  Uiso   1.00
C1018  C     0.54657   0.80887   0.90779   0.00000  Uiso   1.00
C1019  C     0.50740   0.81339   0.56780   0.00000  Uiso   1.00
C1020  C     0.58489   0.84554   0.56557   0.00000  Uiso   1.00
Cu1021 Cu    0.45311   0.83333   0.75000   0.00000  Uiso   1.00
Cu1022 Cu    0.54689   0.83334   0.75000   0.00000  Uiso   1.00
H1023  H     0.61001   0.85862   0.58487   0.00000  Uiso   1.00
H1024  H     0.35922   0.81512   0.50673   0.00000  Uiso   1.00
H1025  H     0.55965   0.79690   0.86889   0.00000  Uiso   1.00
H1026  H     0.38713   0.96570   0.79742   0.00000  Uiso   1.00
H1027  H     0.41101   0.96798   0.84790   0.00000  Uiso   1.00
H1028  H     0.63774   0.80649   0.86818   0.00000  Uiso   1.00
H1029  H     0.64253   0.85102   0.89900   0.00000  Uiso   1.00
H1030  H     0.48463   0.76288   0.61231   0.00000  Uiso   1.00
H1031  H     0.44187   0.80033   0.61941   0.00000  Uiso   1.00
H1032  H     0.57282   0.70525   0.69857   0.00000  Uiso   1.00
H1033  H     0.42690   0.70527   0.80000   0.00000  Uiso   1.00
H1034  H     0.36379   0.88294   0.80318   0.00000  Uiso   1.00
H1035  H     0.38974   0.78202   0.69857   0.00000  Uiso   1.00
H1036  H     0.63699   0.78289   0.69726   0.00000  Uiso   1.00
H1037  H     0.63440   0.85384   0.99086   0.00000  Uiso   1.00
H1038  H     0.38441   0.81977   0.91241   0.00000  Uiso   1.00
H1039  H     0.41745   0.82160   0.55425   0.00000  Uiso   1.00
I1040  I     0.59196   0.90592   0.83090   0.00000  Uiso   1.00
I1041  I     0.60461   0.95065   0.66971   0.00000  Uiso   1.00
N1042  N     0.38265   0.83332   0.74998   0.00000  Uiso   1.00
N1043  N     0.61735   0.83335   0.75000   0.00000  Uiso   1.00
N1044  N     0.41725   0.95764   0.80969   0.00000  Uiso   1.00
N1045  N     0.63198   0.82012   0.90477   0.00000  Uiso   1.00
N1046  N     0.46998   0.78472   0.59290   0.00000  Uiso   1.00
O1047  O     0.46042   0.89345   0.75000   0.00000  Uiso   1.00
O1048  O     0.53961   0.89346   0.75001   0.00000  Uiso   1.00
O1049  O     0.44108   0.83332   0.82549   0.00000  Uiso   1.00
O1050  O     0.52027   0.83333   0.82549   0.00000  Uiso   1.00
O1051  O     0.46039   0.77321   0.74999   0.00000  Uiso   1.00
O1052  O     0.53958   0.77322   0.75000   0.00000  Uiso   1.00
O1053  O     0.47973   0.83334   0.67451   0.00000  Uiso   1.00
O1054  O     0.55892   0.83335   0.67451   0.00000  Uiso   1.00
C1055  C     0.83363   0.91259   0.74943   0.00000  Uiso   1.00
C1056  C     0.79456   0.81941   0.90519   0.00000  Uiso   1.00
C1057  C     0.87503   0.97906   0.72002   0.00000  Uiso   1.00
C1058  C     0.80799   0.82872   0.84932   0.00000  Uiso   1.00
C1059  C     0.87461   0.68850   0.72109   0.00000  Uiso   1.00
C1060  C     0.83326   0.70974   0.74947   0.00000  Uiso   1.00
C1061  C     0.79207   0.68855   0.77760   0.00000  Uiso   1.00
C1062  C     0.79223   0.97902   0.77839   0.00000  Uiso   1.00
C1063  C     0.83381   0.95736   0.74929   0.00000  Uiso   1.00
C1064  C     0.96822   0.86117   0.77989   0.00000  Uiso   1.00
C1065  C     0.68427   0.86105   0.77937   0.00000  Uiso   1.00
C1066  C     0.81499   0.81548   0.98743   0.00000  Uiso   1.00
C1067  C     0.69881   0.80512   0.72111   0.00000  Uiso   1.00
C1068  C     0.98277   0.80537   0.72073   0.00000  Uiso   1.00
C1069  C     0.83327   0.75419   0.74979   0.00000  Uiso   1.00
C1070  C     0.85899   0.83207   0.65033   0.00000  Uiso   1.00
C1071  C     0.93213   0.84283   0.51199   0.00000  Uiso   1.00
C1072  C     0.87303   0.83006   0.59389   0.00000  Uiso   1.00
C1073  C     0.74519   0.81796   0.93243   0.00000  Uiso   1.00
C1074  C     0.73062   0.81584   0.98586   0.00000  Uiso   1.00
C1075  C     0.76479   0.81722   0.51317   0.00000  Uiso   1.00
C1076  C     0.82991   0.81425   0.93270   0.00000  Uiso   1.00
C1077  C     0.85102   0.81860   0.51420   0.00000  Uiso   1.00
C1078  C     0.89954   0.82772   0.98599   0.00000  Uiso   1.00
C1079  C     0.91466   0.81956   0.93277   0.00000  Uiso   1.00
C1080  C     0.87990   0.80887   0.90779   0.00000  Uiso   1.00
C1081  C     0.84074   0.81339   0.56780   0.00000  Uiso   1.00
C1082  C     0.91822   0.84554   0.56557   0.00000  Uiso   1.00
Cu1083 Cu    0.78645   0.83333   0.75000   0.00000  Uiso   1.00
Cu1084 Cu    0.88022   0.83334   0.75000   0.00000  Uiso   1.00
H1085  H     0.94335   0.85862   0.58487   0.00000  Uiso   1.00
H1086  H     0.69255   0.81512   0.50673   0.00000  Uiso   1.00
H1087  H     0.89299   0.79690   0.86889   0.00000  Uiso   1.00
H1088  H     0.72047   0.96570   0.79742   0.00000  Uiso   1.00
H1089  H     0.74434   0.96798   0.84790   0.00000  Uiso   1.00
H1090  H     0.97107   0.80649   0.86818   0.00000  Uiso   1.00
H1091  H     0.97586   0.85102   0.89900   0.00000  Uiso   1.00
H1092  H     0.81797   0.76288   0.61231   0.00000  Uiso   1.00
H1093  H     0.77520   0.80033   0.61941   0.00000  Uiso   1.00
H1094  H     0.90615   0.70525   0.69857   0.00000  Uiso   1.00
H1095  H     0.76023   0.70527   0.80000   0.00000  Uiso   1.00
H1096  H     0.69713   0.88294   0.80318   0.00000  Uiso   1.00
H1097  H     0.72307   0.78202   0.69857   0.00000  Uiso   1.00
H1098  H     0.97032   0.78289   0.69726   0.00000  Uiso   1.00
H1099  H     0.96773   0.85384   0.99086   0.00000  Uiso   1.00
H1100  H     0.71775   0.81977   0.91241   0.00000  Uiso   1.00
H1101  H     0.75078   0.82160   0.55425   0.00000  Uiso   1.00
I1102  I     0.92530   0.90592   0.83090   0.00000  Uiso   1.00
I1103  I     0.93795   0.95065   0.66971   0.00000  Uiso   1.00
N1104  N     0.71598   0.83332   0.74998   0.00000  Uiso   1.00
N1105  N     0.95069   0.83335   0.75000   0.00000  Uiso   1.00
N1106  N     0.75059   0.95764   0.80969   0.00000  Uiso   1.00
N1107  N     0.96532   0.82012   0.90477   0.00000  Uiso   1.00
N1108  N     0.80331   0.78472   0.59290   0.00000  Uiso   1.00
O1109  O     0.79375   0.89345   0.75000   0.00000  Uiso   1.00
O1110  O     0.87294   0.89346   0.75001   0.00000  Uiso   1.00
O1111  O     0.77441   0.83332   0.82549   0.00000  Uiso   1.00
O1112  O     0.85360   0.83333   0.82549   0.00000  Uiso   1.00
O1113  O     0.79373   0.77321   0.74999   0.00000  Uiso   1.00
O1114  O     0.87292   0.77322   0.75000   0.00000  Uiso   1.00
O1115  O     0.81306   0.83334   0.67451   0.00000  Uiso   1.00
O1116  O     0.89225   0.83335   0.67451   0.00000  Uiso   1.00
loop_
_geom_bond_atom_site_label_1
_geom_bond_atom_site_label_2
_geom_bond_distance
_geom_bond_site_symmetry_2
_ccdc_geom_bond_type
C1     C9      1.450   .     S
C1     O56     1.295   .     A
C1     O55     1.294   .     A
C2     C22     1.430   .     A
C2     C4      1.483   .     S
C2     C19     1.400   .     A
C3     C9      1.412   .     A
C3     I49     2.131   .     S
C3     C191    1.386   .     S
C4     O57     1.313   .     A
C4     O58     1.293   .     A
C5     C6      1.395   .     A
C5     H40     1.084   .     S
C5     C375    1.386   1_545 S
C6     C7      1.393   .     A
C6     C15     1.440   .     S
C7     H41     1.084   .     S
C7     C380    1.389   1_545 S
C8     N52     1.434   .     S
C8     C9      1.412   .     A
C8     C193    1.389   .     S
C10    I48     2.124   .     S
C10    N51     1.385   .     A
C10    C73     1.413   .     S
C11    N50     1.357   .     A
C11    H42     1.081   .     S
C11    C134    1.413   1_455 S
C12    C22     1.417   .     A
C12    C579    1.412   .     S
C12    C581    1.423   .     S
C13    N50     1.369   .     A
C13    H43     1.080   .     S
C13    C138    1.420   1_455 S
C14    H44     1.082   .     S
C14    N51     1.367   .     A
C14    C75     1.420   .     S
C15    O60     1.292   .     A
C15    O59     1.294   .     A
C16    O62     1.301   .     A
C16    O61     1.295   .     A
C16    C18     1.463   .     S
C17    C28     1.389   .     A
C17    C582    1.401   1_554 S
C17    H603    1.080   1_554 S
C18    C28     1.400   .     A
C18    C27     1.414   .     A
C19    C20     1.386   .     A
C19    H46     1.077   .     S
C20    C579    1.385   .     S
C20    H590    1.078   .     S
C21    H47     1.075   .     S
C21    C578    1.385   1_554 S
C21    C570    1.412   1_554 S
C22    C26     1.412   .     A
C23    C27     1.406   .     A
C23    C570    1.423   1_554 S
C23    C582    1.416   1_554 S
C24    C25     1.400   .     A
C24    C575    1.401   .     S
C24    C581    1.416   .     S
C25    C26     1.393   .     A
C25    N53     1.436   .     S
C26    H33     1.077   .     S
C27    N54     1.438   .     S
C28    H31     1.083   .     S
Cu29   Cu30    2.691   .     S
Cu29   N50     2.023   .     S
Cu29   O61     1.964   .     S
Cu29   O59     1.960   .     S
Cu29   O55     1.958   .     S
Cu29   O57     1.969   .     S
Cu30   N51     2.022   .     S
Cu30   O58     1.964   .     S
Cu30   O62     1.969   .     S
Cu30   O56     1.960   .     S
Cu30   O60     1.958   .     S
H32    C578    1.078   1_554 S
H34    N52     1.046   .     S
H35    N52     1.046   .     S
H36    N53     1.045   .     S
H37    N53     1.045   .     S
H38    N54     1.046   .     S
H39    N54     1.041   .     S
H45    C575    1.080   .     S
C63    C71     1.450   .     S
C63    O118    1.295   .     A
C63    O117    1.294   .     A
C64    C84     1.430   .     A
C64    C66     1.483   .     S
C64    C81     1.400   .     A
C65    C71     1.412   .     A
C65    I111    2.131   .     S
C65    C253    1.386   .     S
C66    O119    1.313   .     A
C66    O120    1.293   .     A
C67    C68     1.395   .     A
C67    H102    1.084   .     S
C67    C437    1.386   1_545 S
C68    C69     1.393   .     A
C68    C77     1.440   .     S
C69    H103    1.084   .     S
C69    C442    1.389   1_545 S
C70    N114    1.434   .     S
C70    C71     1.412   .     A
C70    C255    1.389   .     S
C72    I110    2.124   .     S
C72    N113    1.385   .     A
C72    C135    1.413   .     S
C73    N112    1.357   .     A
C73    H104    1.081   .     S
C74    C84     1.417   .     A
C74    C641    1.412   .     S
C74    C643    1.423   .     S
C75    N112    1.369   .     A
C75    H105    1.080   .     S
C76    H106    1.082   .     S
C76    N113    1.367   .     A
C76    C137    1.420   .     S
C77    O122    1.292   .     A
C77    O121    1.294   .     A
C78    O124    1.301   .     A
C78    O123    1.295   .     A
C78    C80     1.463   .     S
C79    C90     1.389   .     A
C79    C644    1.401   1_554 S
C79    H665    1.080   1_554 S
C80    C90     1.400   .     A
C80    C89     1.414   .     A
C81    C82     1.386   .     A
C81    H108    1.077   .     S
C82    C641    1.385   .     S
C82    H652    1.078   .     S
C83    H109    1.075   .     S
C83    C640    1.385   1_554 S
C83    C632    1.412   1_554 S
C84    C88     1.412   .     A
C85    C89     1.406   .     A
C85    C632    1.423   1_554 S
C85    C644    1.416   1_554 S
C86    C87     1.400   .     A
C86    C637    1.401   .     S
C86    C643    1.416   .     S
C87    C88     1.393   .     A
C87    N115    1.436   .     S
C88    H95     1.077   .     S
C89    N116    1.438   .     S
C90    H93     1.083   .     S
Cu91   Cu92    2.691   .     S
Cu91   N112    2.023   .     S
Cu91   O123    1.964   .     S
Cu91   O121    1.960   .     S
Cu91   O117    1.958   .     S
Cu91   O119    1.969   .     S
Cu92   N113    2.022   .     S
Cu92   O120    1.964   .     S
Cu92   O124    1.969   .     S
Cu92   O118    1.960   .     S
Cu92   O122    1.958   .     S
H94    C640    1.078   1_554 S
H96    N114    1.046   .     S
H97    N114    1.046   .     S
H98    N115    1.045   .     S
H99    N115    1.045   .     S
H100   N116    1.046   .     S
H101   N116    1.041   .     S
H107   C637    1.080   .     S
C125   C133    1.450   .     S
C125   O180    1.295   .     A
C125   O179    1.294   .     A
C126   C146    1.430   .     A
C126   C128    1.483   .     S
C126   C143    1.400   .     A
C127   C133    1.412   .     A
C127   I173    2.131   .     S
C127   C315    1.386   .     S
C128   O181    1.313   .     A
C128   O182    1.293   .     A
C129   C130    1.395   .     A
C129   H164    1.084   .     S
C129   C499    1.386   1_545 S
C130   C131    1.393   .     A
C130   C139    1.440   .     S
C131   H165    1.084   .     S
C131   C504    1.389   1_545 S
C132   N176    1.434   .     S
C132   C133    1.412   .     A
C132   C317    1.389   .     S
C134   I172    2.124   .     S
C134   N175    1.385   .     A
C134   C11     1.413   1_655 S
C135   N174    1.357   .     A
C135   H166    1.081   .     S
C136   C146    1.417   .     A
C136   C703    1.412   .     S
C136   C705    1.423   .     S
C137   N174    1.369   .     A
C137   H167    1.080   .     S
C138   H168    1.082   .     S
C138   N175    1.367   .     A
C138   C13     1.420   1_655 S
C139   O184    1.292   .     A
C139   O183    1.294   .     A
C140   O186    1.301   .     A
C140   O185    1.295   .     A
C140   C142    1.463   .     S
C141   C152    1.389   .     A
C141   C706    1.401   1_554 S
C141   H727    1.080   1_554 S
C142   C152    1.400   .     A
C142   C151    1.414   .     A
C143   C144    1.386   .     A
C143   H170    1.077   .     S
C144   C703    1.385   .     S
C144   H714    1.078   .     S
C145   H171    1.075   .     S
C145   C702    1.385   1_554 S
C145   C694    1.412   1_554 S
C146   C150    1.412   .     A
C147   C151    1.406   .     A
C147   C694    1.423   1_554 S
C147   C706    1.416   1_554 S
C148   C149    1.400   .     A
C148   C699    1.401   .     S
C148   C705    1.416   .     S
C149   C150    1.393   .     A
C149   N177    1.436   .     S
C150   H157    1.077   .     S
C151   N178    1.438   .     S
C152   H155    1.083   .     S
Cu153  Cu154   2.691   .     S
Cu153  N174    2.023   .     S
Cu153  O185    1.964   .     S
Cu153  O183    1.960   .     S
Cu153  O179    1.958   .     S
Cu153  O181    1.969   .     S
Cu154  N175    2.022   .     S
Cu154  O182    1.964   .     S
Cu154  O186    1.969   .     S
Cu154  O180    1.960   .     S
Cu154  O184    1.958   .     S
H156   C702    1.078   1_554 S
H158   N176    1.046   .     S
H159   N176    1.046   .     S
H160   N177    1.045   .     S
H161   N177    1.045   .     S
H162   N178    1.046   .     S
H163   N178    1.041   .     S
H169   C699    1.080   .     S
C187   C195    1.450   .     S
C187   O242    1.295   .     A
C187   O241    1.294   .     A
C188   C208    1.430   .     A
C188   C190    1.483   .     S
C188   C205    1.400   .     A
C189   C195    1.412   .     A
C189   I235    2.131   .     S
C189   C377    1.386   .     S
C190   O243    1.313   .     A
C190   O244    1.293   .     A
C191   C192    1.395   .     A
C191   H226    1.084   .     S
C192   C193    1.393   .     A
C192   C201    1.440   .     S
C193   H227    1.084   .     S
C194   N238    1.434   .     S
C194   C195    1.412   .     A
C194   C379    1.389   .     S
C196   I234    2.124   .     S
C196   N237    1.385   .     A
C196   C259    1.413   .     S
C197   N236    1.357   .     A
C197   H228    1.081   .     S
C197   C320    1.413   1_455 S
C198   C208    1.417   .     A
C198   C765    1.412   .     S
C198   C767    1.423   .     S
C199   N236    1.369   .     A
C199   H229    1.080   .     S
C199   C324    1.420   1_455 S
C200   H230    1.082   .     S
C200   N237    1.367   .     A
C200   C261    1.420   .     S
C201   O246    1.292   .     A
C201   O245    1.294   .     A
C202   O248    1.301   .     A
C202   O247    1.295   .     A
C202   C204    1.463   .     S
C203   C214    1.389   .     A
C203   C768    1.401   1_554 S
C203   H789    1.080   1_554 S
C204   C214    1.400   .     A
C204   C213    1.414   .     A
C205   C206    1.386   .     A
C205   H232    1.077   .     S
C206   C765    1.385   .     S
C206   H776    1.078   .     S
C207   H233    1.075   .     S
C207   C764    1.385   1_554 S
C207   C756    1.412   1_554 S
C208   C212    1.412   .     A
C209   C213    1.406   .     A
C209   C756    1.423   1_554 S
C209   C768    1.416   1_554 S
C210   C211    1.400   .     A
C210   C761    1.401   .     S
C210   C767    1.416   .     S
C211   C212    1.393   .     A
C211   N239    1.436   .     S
C212   H219    1.077   .     S
C213   N240    1.438   .     S
C214   H217    1.083   .     S
Cu215  Cu216   2.691   .     S
Cu215  N236    2.023   .     S
Cu215  O247    1.964   .     S
Cu215  O245    1.960   .     S
Cu215  O241    1.958   .     S
Cu215  O243    1.969   .     S
Cu216  N237    2.022   .     S
Cu216  O244    1.964   .     S
Cu216  O248    1.969   .     S
Cu216  O242    1.960   .     S
Cu216  O246    1.958   .     S
H218   C764    1.078   1_554 S
H220   N238    1.046   .     S
H221   N238    1.046   .     S
H222   N239    1.045   .     S
H223   N239    1.045   .     S
H224   N240    1.046   .     S
H225   N240    1.041   .     S
H231   C761    1.080   .     S
C249   C257    1.450   .     S
C249   O304    1.295   .     A
C249   O303    1.294   .     A
C250   C270    1.430   .     A
C250   C252    1.483   .     S
C250   C267    1.400   .     A
C251   C257    1.412   .     A
C251   I297    2.131   .     S
C251   C439    1.386   .     S
C252   O305    1.313   .     A
C252   O306    1.293   .     A
C253   C254    1.395   .     A
C253   H288    1.084   .     S
C254   C255    1.393   .     A
C254   C263    1.440   .     S
C255   H289    1.084   .     S
C256   N300    1.434   .     S
C256   C257    1.412   .     A
C256   C441    1.389   .     S
C258   I296    2.124   .     S
C258   N299    1.385   .     A
C258   C321    1.413   .     S
C259   N298    1.357   .     A
C259   H290    1.081   .     S
C260   C270    1.417   .     A
C260   C827    1.412   .     S
C260   C829    1.423   .     S
C261   N298    1.369   .     A
C261   H291    1.080   .     S
C262   H292    1.082   .     S
C262   N299    1.367   .     A
C262   C323    1.420   .     S
C263   O308    1.292   .     A
C263   O307    1.294   .     A
C264   O310    1.301   .     A
C264   O309    1.295   .     A
C264   C266    1.463   .     S
C265   C276    1.389   .     A
C265   C830    1.401   1_554 S
C265   H851    1.080   1_554 S
C266   C276    1.400   .     A
C266   C275    1.414   .     A
C267   C268    1.386   .     A
C267   H294    1.077   .     S
C268   C827    1.385   .     S
C268   H838    1.078   .     S
C269   H295    1.075   .     S
C269   C826    1.385   1_554 S
C269   C818    1.412   1_554 S
C270   C274    1.412   .     A
C271   C275    1.406   .     A
C271   C818    1.423   1_554 S
C271   C830    1.416   1_554 S
C272   C273    1.400   .     A
C272   C823    1.401   .     S
C272   C829    1.416   .     S
C273   C274    1.393   .     A
C273   N301    1.436   .     S
C274   H281    1.077   .     S
C275   N302    1.438   .     S
C276   H279    1.083   .     S
Cu277  Cu278   2.691   .     S
Cu277  N298    2.023   .     S
Cu277  O309    1.964   .     S
Cu277  O307    1.960   .     S
Cu277  O303    1.958   .     S
Cu277  O305    1.969   .     S
Cu278  N299    2.022   .     S
Cu278  O306    1.964   .     S
Cu278  O310    1.969   .     S
Cu278  O304    1.960   .     S
Cu278  O308    1.958   .     S
H280   C826    1.078   1_554 S
H282   N300    1.046   .     S
H283   N300    1.046   .     S
H284   N301    1.045   .     S
H285   N301    1.045   .     S
H286   N302    1.046   .     S
H287   N302    1.041   .     S
H293   C823    1.080   .     S
C311   C319    1.450   .     S
C311   O366    1.295   .     A
C311   O365    1.294   .     A
C312   C332    1.430   .     A
C312   C314    1.483   .     S
C312   C329    1.400   .     A
C313   C319    1.412   .     A
C313   I359    2.131   .     S
C313   C501    1.386   .     S
C314   O367    1.313   .     A
C314   O368    1.293   .     A
C315   C316    1.395   .     A
C315   H350    1.084   .     S
C316   C317    1.393   .     A
C316   C325    1.440   .     S
C317   H351    1.084   .     S
C318   N362    1.434   .     S
C318   C319    1.412   .     A
C318   C503    1.389   .     S
C320   I358    2.124   .     S
C320   N361    1.385   .     A
C320   C197    1.413   1_655 S
C321   N360    1.357   .     A
C321   H352    1.081   .     S
C322   C332    1.417   .     A
C322   C889    1.412   .     S
C322   C891    1.423   .     S
C323   N360    1.369   .     A
C323   H353    1.080   .     S
C324   H354    1.082   .     S
C324   N361    1.367   .     A
C324   C199    1.420   1_655 S
C325   O370    1.292   .     A
C325   O369    1.294   .     A
C326   O372    1.301   .     A
C326   O371    1.295   .     A
C326   C328    1.463   .     S
C327   C338    1.389   .     A
C327   C892    1.401   1_554 S
C327   H913    1.080   1_554 S
C328   C338    1.400   .     A
C328   C337    1.414   .     A
C329   C330    1.386   .     A
C329   H356    1.077   .     S
C330   C889    1.385   .     S
C330   H900    1.078   .     S
C331   H357    1.075   .     S
C331   C888    1.385   1_554 S
C331   C880    1.412   1_554 S
C332   C336    1.412   .     A
C333   C337    1.406   .     A
C333   C880    1.423   1_554 S
C333   C892    1.416   1_554 S
C334   C335    1.400   .     A
C334   C885    1.401   .     S
C334   C891    1.416   .     S
C335   C336    1.393   .     A
C335   N363    1.436   .     S
C336   H343    1.077   .     S
C337   N364    1.438   .     S
C338   H341    1.083   .     S
Cu339  Cu340   2.691   .     S
Cu339  N360    2.023   .     S
Cu339  O371    1.964   .     S
Cu339  O369    1.960   .     S
Cu339  O365    1.958   .     S
Cu339  O367    1.969   .     S
Cu340  N361    2.022   .     S
Cu340  O368    1.964   .     S
Cu340  O372    1.969   .     S
Cu340  O366    1.960   .     S
Cu340  O370    1.958   .     S
H342   C888    1.078   1_554 S
H344   N362    1.046   .     S
H345   N362    1.046   .     S
H346   N363    1.045   .     S
H347   N363    1.045   .     S
H348   N364    1.046   .     S
H349   N364    1.041   .     S
H355   C885    1.080   .     S
C373   C381    1.450   .     S
C373   O428    1.295   .     A
C373   O427    1.294   .     A
C374   C394    1.430   .     A
C374   C376    1.483   .     S
C374   C391    1.400   .     A
C375   C381    1.412   .     A
C375   I421    2.131   .     S
C375   C5      1.386   1_565 S
C376   O429    1.313   .     A
C376   O430    1.293   .     A
C377   C378    1.395   .     A
C377   H412    1.084   .     S
C378   C379    1.393   .     A
C378   C387    1.440   .     S
C379   H413    1.084   .     S
C380   N424    1.434   .     S
C380   C381    1.412   .     A
C380   C7      1.389   1_565 S
C382   I420    2.124   .     S
C382   N423    1.385   .     A
C382   C445    1.413   .     S
C383   N422    1.357   .     A
C383   H414    1.081   .     S
C383   C506    1.413   1_455 S
C384   C394    1.417   .     A
C384   C951    1.412   .     S
C384   C953    1.423   .     S
C385   N422    1.369   .     A
C385   H415    1.080   .     S
C385   C510    1.420   1_455 S
C386   H416    1.082   .     S
C386   N423    1.367   .     A
C386   C447    1.420   .     S
C387   O432    1.292   .     A
C387   O431    1.294   .     A
C388   O434    1.301   .     A
C388   O433    1.295   .     A
C388   C390    1.463   .     S
C389   C400    1.389   .     A
C389   C954    1.401   1_554 S
C389   H975    1.080   1_554 S
C390   C400    1.400   .     A
C390   C399    1.414   .     A
C391   C392    1.386   .     A
C391   H418    1.077   .     S
C392   C951    1.385   .     S
C392   H962    1.078   .     S
C393   H419    1.075   .     S
C393   C950    1.385   1_554 S
C393   C942    1.412   1_554 S
C394   C398    1.412   .     A
C395   C399    1.406   .     A
C395   C942    1.423   1_554 S
C395   C954    1.416   1_554 S
C396   C397    1.400   .     A
C396   C947    1.401   .     S
C396   C953    1.416   .     S
C397   C398    1.393   .     A
C397   N425    1.436   .     S
C398   H405    1.077   .     S
C399   N426    1.438   .     S
C400   H403    1.083   .     S
Cu401  Cu402   2.691   .     S
Cu401  N422    2.023   .     S
Cu401  O433    1.964   .     S
Cu401  O431    1.960   .     S
Cu401  O427    1.958   .     S
Cu401  O429    1.969   .     S
Cu402  N423    2.022   .     S
Cu402  O430    1.964   .     S
Cu402  O434    1.969   .     S
Cu402  O428    1.960   .     S
Cu402  O432    1.958   .     S
H404   C950    1.078   1_554 S
H406   N424    1.046   .     S
H407   N424    1.046   .     S
H408   N425    1.045   .     S
H409   N425    1.045   .     S
H410   N426    1.046   .     S
H411   N426    1.041   .     S
H417   C947    1.080   .     S
C435   C443    1.450   .     S
C435   O490    1.295   .     A
C435   O489    1.294   .     A
C436   C456    1.430   .     A
C436   C438    1.483   .     S
C436   C453    1.400   .     A
C437   C443    1.412   .     A
C437   I483    2.131   .     S
C437   C67     1.386   1_565 S
C438   O491    1.313   .     A
C438   O492    1.293   .     A
C439   C440    1.395   .     A
C439   H474    1.084   .     S
C440   C441    1.393   .     A
C440   C449    1.440   .     S
C441   H475    1.084   .     S
C442   N486    1.434   .     S
C442   C443    1.412   .     A
C442   C69     1.389   1_565 S
C444   I482    2.124   .     S
C444   N485    1.385   .     A
C444   C507    1.413   .     S
C445   N484    1.357   .     A
C445   H476    1.081   .     S
C446   C456    1.417   .     A
C446   C1013   1.412   .     S
C446   C1015   1.423   .     S
C447   N484    1.369   .     A
C447   H477    1.080   .     S
C448   H478    1.082   .     S
C448   N485    1.367   .     A
C448   C509    1.420   .     S
C449   O494    1.292   .     A
C449   O493    1.294   .     A
C450   O496    1.301   .     A
C450   O495    1.295   .     A
C450   C452    1.463   .     S
C451   C462    1.389   .     A
C451   C1016   1.401   1_554 S
C451   H1037   1.080   1_554 S
C452   C462    1.400   .     A
C452   C461    1.414   .     A
C453   C454    1.386   .     A
C453   H480    1.077   .     S
C454   C1013   1.385   .     S
C454   H1024   1.078   .     S
C455   H481    1.075   .     S
C455   C1012   1.385   1_554 S
C455   C1004   1.412   1_554 S
C456   C460    1.412   .     A
C457   C461    1.406   .     A
C457   C1004   1.423   1_554 S
C457   C1016   1.416   1_554 S
C458   C459    1.400   .     A
C458   C1009   1.401   .     S
C458   C1015   1.416   .     S
C459   C460    1.393   .     A
C459   N487    1.436   .     S
C460   H467    1.077   .     S
C461   N488    1.438   .     S
C462   H465    1.083   .     S
Cu463  Cu464   2.691   .     S
Cu463  N484    2.023   .     S
Cu463  O495    1.964   .     S
Cu463  O493    1.960   .     S
Cu463  O489    1.958   .     S
Cu463  O491    1.969   .     S
Cu464  N485    2.022   .     S
Cu464  O492    1.964   .     S
Cu464  O496    1.969   .     S
Cu464  O490    1.960   .     S
Cu464  O494    1.958   .     S
H466   C1012   1.078   1_554 S
H468   N486    1.046   .     S
H469   N486    1.046   .     S
H470   N487    1.045   .     S
H471   N487    1.045   .     S
H472   N488    1.046   .     S
H473   N488    1.041   .     S
H479   C1009   1.080   .     S
C497   C505    1.450   .     S
C497   O552    1.295   .     A
C497   O551    1.294   .     A
C498   C518    1.430   .     A
C498   C500    1.483   .     S
C498   C515    1.400   .     A
C499   C505    1.412   .     A
C499   I545    2.131   .     S
C499   C129    1.386   1_565 S
C500   O553    1.313   .     A
C500   O554    1.293   .     A
C501   C502    1.395   .     A
C501   H536    1.084   .     S
C502   C503    1.393   .     A
C502   C511    1.440   .     S
C503   H537    1.084   .     S
C504   N548    1.434   .     S
C504   C505    1.412   .     A
C504   C131    1.389   1_565 S
C506   I544    2.124   .     S
C506   N547    1.385   .     A
C506   C383    1.413   1_655 S
C507   N546    1.357   .     A
C507   H538    1.081   .     S
C508   C518    1.417   .     A
C508   C1075   1.412   .     S
C508   C1077   1.423   .     S
C509   N546    1.369   .     A
C509   H539    1.080   .     S
C510   H540    1.082   .     S
C510   N547    1.367   .     A
C510   C385    1.420   1_655 S
C511   O556    1.292   .     A
C511   O555    1.294   .     A
C512   O558    1.301   .     A
C512   O557    1.295   .     A
C512   C514    1.463   .     S
C513   C524    1.389   .     A
C513   C1078   1.401   1_554 S
C513   H1099   1.080   1_554 S
C514   C524    1.400   .     A
C514   C523    1.414   .     A
C515   C516    1.386   .     A
C515   H542    1.077   .     S
C516   C1075   1.385   .     S
C516   H1086   1.078   .     S
C517   H543    1.075   .     S
C517   C1074   1.385   1_554 S
C517   C1066   1.412   1_554 S
C518   C522    1.412   .     A
C519   C523    1.406   .     A
C519   C1066   1.423   1_554 S
C519   C1078   1.416   1_554 S
C520   C521    1.400   .     A
C520   C1071   1.401   .     S
C520   C1077   1.416   .     S
C521   C522    1.393   .     A
C521   N549    1.436   .     S
C522   H529    1.077   .     S
C523   N550    1.438   .     S
C524   H527    1.083   .     S
Cu525  Cu526   2.691   .     S
Cu525  N546    2.023   .     S
Cu525  O557    1.964   .     S
Cu525  O555    1.960   .     S
Cu525  O551    1.958   .     S
Cu525  O553    1.969   .     S
Cu526  N547    2.022   .     S
Cu526  O554    1.964   .     S
Cu526  O558    1.969   .     S
Cu526  O552    1.960   .     S
Cu526  O556    1.958   .     S
H528   C1074   1.078   1_554 S
H530   N548    1.046   .     S
H531   N548    1.046   .     S
H532   N549    1.045   .     S
H533   N549    1.045   .     S
H534   N550    1.046   .     S
H535   N550    1.041   .     S
H541   C1071   1.080   .     S
C559   C567    1.450   .     S
C559   O614    1.295   .     A
C559   O613    1.294   .     A
C560   C580    1.430   .     A
C560   C562    1.483   .     S
C560   C577    1.400   .     A
C561   C567    1.412   .     A
C561   I607    2.131   .     S
C561   C749    1.386   .     S
C562   O615    1.313   .     A
C562   O616    1.293   .     A
C563   C564    1.395   .     A
C563   H598    1.084   .     S
C563   C933    1.386   1_545 S
C564   C565    1.393   .     A
C564   C573    1.440   .     S
C565   H599    1.084   .     S
C565   C938    1.389   1_545 S
C566   N610    1.434   .     S
C566   C567    1.412   .     A
C566   C751    1.389   .     S
C568   I606    2.124   .     S
C568   N609    1.385   .     A
C568   C631    1.413   .     S
C569   N608    1.357   .     A
C569   H600    1.081   .     S
C569   C692    1.413   1_455 S
C570   C580    1.417   .     A
C570   C21     1.412   1_556 S
C570   C23     1.423   1_556 S
C571   N608    1.369   .     A
C571   H601    1.080   .     S
C571   C696    1.420   1_455 S
C572   H602    1.082   .     S
C572   N609    1.367   .     A
C572   C633    1.420   .     S
C573   O618    1.292   .     A
C573   O617    1.294   .     A
C574   O620    1.301   .     A
C574   O619    1.295   .     A
C574   C576    1.463   .     S
C575   C586    1.389   .     A
C576   C586    1.400   .     A
C576   C585    1.414   .     A
C577   C578    1.386   .     A
C577   H604    1.077   .     S
C578   C21     1.385   1_556 S
C578   H32     1.078   1_556 S
C579   H605    1.075   .     S
C580   C584    1.412   .     A
C581   C585    1.406   .     A
C582   C583    1.400   .     A
C582   C17     1.401   1_556 S
C582   C23     1.416   1_556 S
C583   C584    1.393   .     A
C583   N611    1.436   .     S
C584   H591    1.077   .     S
C585   N612    1.438   .     S
C586   H589    1.083   .     S
Cu587  Cu588   2.691   .     S
Cu587  N608    2.023   .     S
Cu587  O619    1.964   .     S
Cu587  O617    1.960   .     S
Cu587  O613    1.958   .     S
Cu587  O615    1.969   .     S
Cu588  N609    2.022   .     S
Cu588  O616    1.964   .     S
Cu588  O620    1.969   .     S
Cu588  O614    1.960   .     S
Cu588  O618    1.958   .     S
H592   N610    1.046   .     S
H593   N610    1.046   .     S
H594   N611    1.045   .     S
H595   N611    1.045   .     S
H596   N612    1.046   .     S
H597   N612    1.041   .     S
H603   C17     1.080   1_556 S
C621   C629    1.450   .     S
C621   O676    1.295   .     A
C621   O675    1.294   .     A
C622   C642    1.430   .     A
C622   C624    1.483   .     S
C622   C639    1.400   .     A
C623   C629    1.412   .     A
C623   I669    2.131   .     S
C623   C811    1.386   .     S
C624   O677    1.313   .     A
C624   O678    1.293   .     A
C625   C626    1.395   .     A
C625   H660    1.084   .     S
C625   C995    1.386   1_545 S
C626   C627    1.393   .     A
C626   C635    1.440   .     S
C627   H661    1.084   .     S
C627   C1000   1.389   1_545 S
C628   N672    1.434   .     S
C628   C629    1.412   .     A
C628   C813    1.389   .     S
C630   I668    2.124   .     S
C630   N671    1.385   .     A
C630   C693    1.413   .     S
C631   N670    1.357   .     A
C631   H662    1.081   .     S
C632   C642    1.417   .     A
C632   C83     1.412   1_556 S
C632   C85     1.423   1_556 S
C633   N670    1.369   .     A
C633   H663    1.080   .     S
C634   H664    1.082   .     S
C634   N671    1.367   .     A
C634   C695    1.420   .     S
C635   O680    1.292   .     A
C635   O679    1.294   .     A
C636   O682    1.301   .     A
C636   O681    1.295   .     A
C636   C638    1.463   .     S
C637   C648    1.389   .     A
C638   C648    1.400   .     A
C638   C647    1.414   .     A
C639   C640    1.386   .     A
C639   H666    1.077   .     S
C640   C83     1.385   1_556 S
C640   H94     1.078   1_556 S
C641   H667    1.075   .     S
C642   C646    1.412   .     A
C643   C647    1.406   .     A
C644   C645    1.400   .     A
C644   C79     1.401   1_556 S
C644   C85     1.416   1_556 S
C645   C646    1.393   .     A
C645   N673    1.436   .     S
C646   H653    1.077   .     S
C647   N674    1.438   .     S
C648   H651    1.083   .     S
Cu649  Cu650   2.691   .     S
Cu649  N670    2.023   .     S
Cu649  O681    1.964   .     S
Cu649  O679    1.960   .     S
Cu649  O675    1.958   .     S
Cu649  O677    1.969   .     S
Cu650  N671    2.022   .     S
Cu650  O678    1.964   .     S
Cu650  O682    1.969   .     S
Cu650  O676    1.960   .     S
Cu650  O680    1.958   .     S
H654   N672    1.046   .     S
H655   N672    1.046   .     S
H656   N673    1.045   .     S
H657   N673    1.045   .     S
H658   N674    1.046   .     S
H659   N674    1.041   .     S
H665   C79     1.080   1_556 S
C683   C691    1.450   .     S
C683   O738    1.295   .     A
C683   O737    1.294   .     A
C684   C704    1.430   .     A
C684   C686    1.483   .     S
C684   C701    1.400   .     A
C685   C691    1.412   .     A
C685   I731    2.131   .     S
C685   C873    1.386   .     S
C686   O739    1.313   .     A
C686   O740    1.293   .     A
C687   C688    1.395   .     A
C687   H722    1.084   .     S
C687   C1057   1.386   1_545 S
C688   C689    1.393   .     A
C688   C697    1.440   .     S
C689   H723    1.084   .     S
C689   C1062   1.389   1_545 S
C690   N734    1.434   .     S
C690   C691    1.412   .     A
C690   C875    1.389   .     S
C692   I730    2.124   .     S
C692   N733    1.385   .     A
C692   C569    1.413   1_655 S
C693   N732    1.357   .     A
C693   H724    1.081   .     S
C694   C704    1.417   .     A
C694   C145    1.412   1_556 S
C694   C147    1.423   1_556 S
C695   N732    1.369   .     A
C695   H725    1.080   .     S
C696   H726    1.082   .     S
C696   N733    1.367   .     A
C696   C571    1.420   1_655 S
C697   O742    1.292   .     A
C697   O741    1.294   .     A
C698   O744    1.301   .     A
C698   O743    1.295   .     A
C698   C700    1.463   .     S
C699   C710    1.389   .     A
C700   C710    1.400   .     A
C700   C709    1.414   .     A
C701   C702    1.386   .     A
C701   H728    1.077   .     S
C702   C145    1.385   1_556 S
C702   H156    1.078   1_556 S
C703   H729    1.075   .     S
C704   C708    1.412   .     A
C705   C709    1.406   .     A
C706   C707    1.400   .     A
C706   C141    1.401   1_556 S
C706   C147    1.416   1_556 S
C707   C708    1.393   .     A
C707   N735    1.436   .     S
C708   H715    1.077   .     S
C709   N736    1.438   .     S
C710   H713    1.083   .     S
Cu711  Cu712   2.691   .     S
Cu711  N732    2.023   .     S
Cu711  O743    1.964   .     S
Cu711  O741    1.960   .     S
Cu711  O737    1.958   .     S
Cu711  O739    1.969   .     S
Cu712  N733    2.022   .     S
Cu712  O740    1.964   .     S
Cu712  O744    1.969   .     S
Cu712  O738    1.960   .     S
Cu712  O742    1.958   .     S
H716   N734    1.046   .     S
H717   N734    1.046   .     S
H718   N735    1.045   .     S
H719   N735    1.045   .     S
H720   N736    1.046   .     S
H721   N736    1.041   .     S
H727   C141    1.080   1_556 S
C745   C753    1.450   .     S
C745   O800    1.295   .     A
C745   O799    1.294   .     A
C746   C766    1.430   .     A
C746   C748    1.483   .     S
C746   C763    1.400   .     A
C747   C753    1.412   .     A
C747   I793    2.131   .     S
C747   C935    1.386   .     S
C748   O801    1.313   .     A
C748   O802    1.293   .     A
C749   C750    1.395   .     A
C749   H784    1.084   .     S
C750   C751    1.393   .     A
C750   C759    1.440   .     S
C751   H785    1.084   .     S
C752   N796    1.434   .     S
C752   C753    1.412   .     A
C752   C937    1.389   .     S
C754   I792    2.124   .     S
C754   N795    1.385   .     A
C754   C817    1.413   .     S
C755   N794    1.357   .     A
C755   H786    1.081   .     S
C755   C878    1.413   1_455 S
C756   C766    1.417   .     A
C756   C207    1.412   1_556 S
C756   C209    1.423   1_556 S
C757   N794    1.369   .     A
C757   H787    1.080   .     S
C757   C882    1.420   1_455 S
C758   H788    1.082   .     S
C758   N795    1.367   .     A
C758   C819    1.420   .     S
C759   O804    1.292   .     A
C759   O803    1.294   .     A
C760   O806    1.301   .     A
C760   O805    1.295   .     A
C760   C762    1.463   .     S
C761   C772    1.389   .     A
C762   C772    1.400   .     A
C762   C771    1.414   .     A
C763   C764    1.386   .     A
C763   H790    1.077   .     S
C764   C207    1.385   1_556 S
C764   H218    1.078   1_556 S
C765   H791    1.075   .     S
C766   C770    1.412   .     A
C767   C771    1.406   .     A
C768   C769    1.400   .     A
C768   C203    1.401   1_556 S
C768   C209    1.416   1_556 S
C769   C770    1.393   .     A
C769   N797    1.436   .     S
C770   H777    1.077   .     S
C771   N798    1.438   .     S
C772   H775    1.083   .     S
Cu773  Cu774   2.691   .     S
Cu773  N794    2.023   .     S
Cu773  O805    1.964   .     S
Cu773  O803    1.960   .     S
Cu773  O799    1.958   .     S
Cu773  O801    1.969   .     S
Cu774  N795    2.022   .     S
Cu774  O802    1.964   .     S
Cu774  O806    1.969   .     S
Cu774  O800    1.960   .     S
Cu774  O804    1.958   .     S
H778   N796    1.046   .     S
H779   N796    1.046   .     S
H780   N797    1.045   .     S
H781   N797    1.045   .     S
H782   N798    1.046   .     S
H783   N798    1.041   .     S
H789   C203    1.080   1_556 S
C807   C815    1.450   .     S
C807   O862    1.295   .     A
C807   O861    1.294   .     A
C808   C828    1.430   .     A
C808   C810    1.483   .     S
C808   C825    1.400   .     A
C809   C815    1.412   .     A
C809   I855    2.131   .     S
C809   C997    1.386   .     S
C810   O863    1.313   .     A
C810   O864    1.293   .     A
C811   C812    1.395   .     A
C811   H846    1.084   .     S
C812   C813    1.393   .     A
C812   C821    1.440   .     S
C813   H847    1.084   .     S
C814   N858    1.434   .     S
C814   C815    1.412   .     A
C814   C999    1.389   .     S
C816   I854    2.124   .     S
C816   N857    1.385   .     A
C816   C879    1.413   .     S
C817   N856    1.357   .     A
C817   H848    1.081   .     S
C818   C828    1.417   .     A
C818   C269    1.412   1_556 S
C818   C271    1.423   1_556 S
C819   N856    1.369   .     A
C819   H849    1.080   .     S
C820   H850    1.082   .     S
C820   N857    1.367   .     A
C820   C881    1.420   .     S
C821   O866    1.292   .     A
C821   O865    1.294   .     A
C822   O868    1.301   .     A
C822   O867    1.295   .     A
C822   C824    1.463   .     S
C823   C834    1.389   .     A
C824   C834    1.400   .     A
C824   C833    1.414   .     A
C825   C826    1.386   .     A
C825   H852    1.077   .     S
C826   C269    1.385   1_556 S
C826   H280    1.078   1_556 S
C827   H853    1.075   .     S
C828   C832    1.412   .     A
C829   C833    1.406   .     A
C830   C831    1.400   .     A
C830   C265    1.401   1_556 S
C830   C271    1.416   1_556 S
C831   C832    1.393   .     A
C831   N859    1.436   .     S
C832   H839    1.077   .     S
C833   N860    1.438   .     S
C834   H837    1.083   .     S
Cu835  Cu836   2.691   .     S
Cu835  N856    2.023   .     S
Cu835  O867    1.964   .     S
Cu835  O865    1.960   .     S
Cu835  O861    1.958   .     S
Cu835  O863    1.969   .     S
Cu836  N857    2.022   .     S
Cu836  O864    1.964   .     S
Cu836  O868    1.969   .     S
Cu836  O862    1.960   .     S
Cu836  O866    1.958   .     S
H840   N858    1.046   .     S
H841   N858    1.046   .     S
H842   N859    1.045   .     S
H843   N859    1.045   .     S
H844   N860    1.046   .     S
H845   N860    1.041   .     S
H851   C265    1.080   1_556 S
C869   C877    1.450   .     S
C869   O924    1.295   .     A
C869   O923    1.294   .     A
C870   C890    1.430   .     A
C870   C872    1.483   .     S
C870   C887    1.400   .     A
C871   C877    1.412   .     A
C871   I917    2.131   .     S
C871   C1059   1.386   .     S
C872   O925    1.313   .     A
C872   O926    1.293   .     A
C873   C874    1.395   .     A
C873   H908    1.084   .     S
C874   C875    1.393   .     A
C874   C883    1.440   .     S
C875   H909    1.084   .     S
C876   N920    1.434   .     S
C876   C877    1.412   .     A
C876   C1061   1.389   .     S
C878   I916    2.124   .     S
C878   N919    1.385   .     A
C878   C755    1.413   1_655 S
C879   N918    1.357   .     A
C879   H910    1.081   .     S
C880   C890    1.417   .     A
C880   C331    1.412   1_556 S
C880   C333    1.423   1_556 S
C881   N918    1.369   .     A
C881   H911    1.080   .     S
C882   H912    1.082   .     S
C882   N919    1.367   .     A
C882   C757    1.420   1_655 S
C883   O928    1.292   .     A
C883   O927    1.294   .     A
C884   O930    1.301   .     A
C884   O929    1.295   .     A
C884   C886    1.463   .     S
C885   C896    1.389   .     A
C886   C896    1.400   .     A
C886   C895    1.414   .     A
C887   C888    1.386   .     A
C887   H914    1.077   .     S
C888   C331    1.385   1_556 S
C888   H342    1.078   1_556 S
C889   H915    1.075   .     S
C890   C894    1.412   .     A
C891   C895    1.406   .     A
C892   C893    1.400   .     A
C892   C327    1.401   1_556 S
C892   C333    1.416   1_556 S
C893   C894    1.393   .     A
C893   N921    1.436   .     S
C894   H901    1.077   .     S
C895   N922    1.438   .     S
C896   H899    1.083   .     S
Cu897  Cu898   2.691   .     S
Cu897  N918    2.023   .     S
Cu897  O929    1.964   .     S
Cu897  O927    1.960   .     S
Cu897  O923    1.958   .     S
Cu897  O925    1.969   .     S
Cu898  N919    2.022   .     S
Cu898  O926    1.964   .     S
Cu898  O930    1.969   .     S
Cu898  O924    1.960   .     S
Cu898  O928    1.958   .     S
H902   N920    1.046   .     S
H903   N920    1.046   .     S
H904   N921    1.045   .     S
H905   N921    1.045   .     S
H906   N922    1.046   .     S
H907   N922    1.041   .     S
H913   C327    1.080   1_556 S
C931   C939    1.450   .     S
C931   O986    1.295   .     A
C931   O985    1.294   .     A
C932   C952    1.430   .     A
C932   C934    1.483   .     S
C932   C949    1.400   .     A
C933   C939    1.412   .     A
C933   I979    2.131   .     S
C933   C563    1.386   1_565 S
C934   O987    1.313   .     A
C934   O988    1.293   .     A
C935   C936    1.395   .     A
C935   H970    1.084   .     S
C936   C937    1.393   .     A
C936   C945    1.440   .     S
C937   H971    1.084   .     S
C938   N982    1.434   .     S
C938   C939    1.412   .     A
C938   C565    1.389   1_565 S
C940   I978    2.124   .     S
C940   N981    1.385   .     A
C940   C1003   1.413   .     S
C941   N980    1.357   .     A
C941   H972    1.081   .     S
C941   C1064   1.413   1_455 S
C942   C952    1.417   .     A
C942   C393    1.412   1_556 S
C942   C395    1.423   1_556 S
C943   N980    1.369   .     A
C943   H973    1.080   .     S
C943   C1068   1.420   1_455 S
C944   H974    1.082   .     S
C944   N981    1.367   .     A
C944   C1005   1.420   .     S
C945   O990    1.292   .     A
C945   O989    1.294   .     A
C946   O992    1.301   .     A
C946   O991    1.295   .     A
C946   C948    1.463   .     S
C947   C958    1.389   .     A
C948   C958    1.400   .     A
C948   C957    1.414   .     A
C949   C950    1.386   .     A
C949   H976    1.077   .     S
C950   C393    1.385   1_556 S
C950   H404    1.078   1_556 S
C951   H977    1.075   .     S
C952   C956    1.412   .     A
C953   C957    1.406   .     A
C954   C955    1.400   .     A
C954   C389    1.401   1_556 S
C954   C395    1.416   1_556 S
C955   C956    1.393   .     A
C955   N983    1.436   .     S
C956   H963    1.077   .     S
C957   N984    1.438   .     S
C958   H961    1.083   .     S
Cu959  Cu960   2.691   .     S
Cu959  N980    2.023   .     S
Cu959  O991    1.964   .     S
Cu959  O989    1.960   .     S
Cu959  O985    1.958   .     S
Cu959  O987    1.969   .     S
Cu960  N981    2.022   .     S
Cu960  O988    1.964   .     S
Cu960  O992    1.969   .     S
Cu960  O986    1.960   .     S
Cu960  O990    1.958   .     S
H964   N982    1.046   .     S
H965   N982    1.046   .     S
H966   N983    1.045   .     S
H967   N983    1.045   .     S
H968   N984    1.046   .     S
H969   N984    1.041   .     S
H975   C389    1.080   1_556 S
C993   C1001   1.450   .     S
C993   O1048   1.295   .     A
C993   O1047   1.294   .     A
C994   C1014   1.430   .     A
C994   C996    1.483   .     S
C994   C1011   1.400   .     A
C995   C1001   1.412   .     A
C995   I1041   2.131   .     S
C995   C625    1.386   1_565 S
C996   O1049   1.313   .     A
C996   O1050   1.293   .     A
C997   C998    1.395   .     A
C997   H1032   1.084   .     S
C998   C999    1.393   .     A
C998   C1007   1.440   .     S
C999   H1033   1.084   .     S
C1000  N1044   1.434   .     S
C1000  C1001   1.412   .     A
C1000  C627    1.389   1_565 S
C1002  I1040   2.124   .     S
C1002  N1043   1.385   .     A
C1002  C1065   1.413   .     S
C1003  N1042   1.357   .     A
C1003  H1034   1.081   .     S
C1004  C1014   1.417   .     A
C1004  C455    1.412   1_556 S
C1004  C457    1.423   1_556 S
C1005  N1042   1.369   .     A
C1005  H1035   1.080   .     S
C1006  H1036   1.082   .     S
C1006  N1043   1.367   .     A
C1006  C1067   1.420   .     S
C1007  O1052   1.292   .     A
C1007  O1051   1.294   .     A
C1008  O1054   1.301   .     A
C1008  O1053   1.295   .     A
C1008  C1010   1.463   .     S
C1009  C1020   1.389   .     A
C1010  C1020   1.400   .     A
C1010  C1019   1.414   .     A
C1011  C1012   1.386   .     A
C1011  H1038   1.077   .     S
C1012  C455    1.385   1_556 S
C1012  H466    1.078   1_556 S
C1013  H1039   1.075   .     S
C1014  C1018   1.412   .     A
C1015  C1019   1.406   .     A
C1016  C1017   1.400   .     A
C1016  C451    1.401   1_556 S
C1016  C457    1.416   1_556 S
C1017  C1018   1.393   .     A
C1017  N1045   1.436   .     S
C1018  H1025   1.077   .     S
C1019  N1046   1.438   .     S
C1020  H1023   1.083   .     S
Cu1021 Cu1022  2.691   .     S
Cu1021 N1042   2.023   .     S
Cu1021 O1053   1.964   .     S
Cu1021 O1051   1.960   .     S
Cu1021 O1047   1.958   .     S
Cu1021 O1049   1.969   .     S
Cu1022 N1043   2.022   .     S
Cu1022 O1050   1.964   .     S
Cu1022 O1054   1.969   .     S
Cu1022 O1048   1.960   .     S
Cu1022 O1052   1.958   .     S
H1026  N1044   1.046   .     S
H1027  N1044   1.046   .     S
H1028  N1045   1.045   .     S
H1029  N1045   1.045   .     S
H1030  N1046   1.046   .     S
H1031  N1046   1.041   .     S
H1037  C451    1.080   1_556 S
C1055  C1063   1.450   .     S
C1055  O1110   1.295   .     A
C1055  O1109   1.294   .     A
C1056  C1076   1.430   .     A
C1056  C1058   1.483   .     S
C1056  C1073   1.400   .     A
C1057  C1063   1.412   .     A
C1057  I1103   2.131   .     S
C1057  C687    1.386   1_565 S
C1058  O1111   1.313   .     A
C1058  O1112   1.293   .     A
C1059  C1060   1.395   .     A
C1059  H1094   1.084   .     S
C1060  C1061   1.393   .     A
C1060  C1069   1.440   .     S
C1061  H1095   1.084   .     S
C1062  N1106   1.434   .     S
C1062  C1063   1.412   .     A
C1062  C689    1.389   1_565 S
C1064  I1102   2.124   .     S
C1064  N1105   1.385   .     A
C1064  C941    1.413   1_655 S
C1065  N1104   1.357   .     A
C1065  H1096   1.081   .     S
C1066  C1076   1.417   .     A
C1066  C517    1.412   1_556 S
C1066  C519    1.423   1_556 S
C1067  N1104   1.369   .     A
C1067  H1097   1.080   .     S
C1068  H1098   1.082   .     S
C1068  N1105   1.367   .     A
C1068  C943    1.420   1_655 S
C1069  O1114   1.292   .     A
C1069  O1113   1.294   .     A
C1070  O1116   1.301   .     A
C1070  O1115   1.295   .     A
C1070  C1072   1.463   .     S
C1071  C1082   1.389   .     A
C1072  C1082   1.400   .     A
C1072  C1081   1.414   .     A
C1073  C1074   1.386   .     A
C1073  H1100   1.077   .     S
C1074  C517    1.385   1_556 S
C1074  H528    1.078   1_556 S
C1075  H1101   1.075   .     S
C1076  C1080   1.412   .     A
C1077  C1081   1.406   .     A
C1078  C1079   1.400   .     A
C1078  C513    1.401   1_556 S
C1078  C519    1.416   1_556 S
C1079  C1080   1.393   .     A
C1079  N1107   1.436   .     S
C1080  H1087   1.077   .     S
C1081  N1108   1.438   .     S
C1082  H1085   1.083   .     S
Cu1083 Cu1084  2.691   .     S
Cu1083 N1104   2.023   .     S
Cu1083 O1115   1.964   .     S
Cu1083 O1113   1.960   .     S
Cu1083 O1109   1.958   .     S
Cu1083 O1111   1.969   .     S
Cu1084 N1105   2.022   .     S
Cu1084 O1112   1.964   .     S
Cu1084 O1116   1.969   .     S
Cu1084 O1110   1.960   .     S
Cu1084 O1114   1.958   .     S
H1088  N1106   1.046   .     S
H1089  N1106   1.046   .     S
H1090  N1107   1.045   .     S
H1091  N1107   1.045   .     S
H1092  N1108   1.046   .     S
H1093  N1108   1.041   .     S
H1099  C513    1.080   1_556 S
