data_str_m2_o5_o17_pcu_sym.30
_audit_creation_date              2020-01-03
_audit_creation_method            'Materials Studio'
_symmetry_space_group_name_H-M    'P1'
_symmetry_Int_Tables_number       1
_symmetry_cell_setting            triclinic
loop_
_symmetry_equiv_pos_as_xyz
  x,y,z
_cell_length_a                    30.2296
_cell_length_b                    27.3642
_cell_length_c                    23.3260
_cell_angle_alpha                 90.3252
_cell_angle_beta                  90.0104
_cell_angle_gamma                 89.4429
loop_
_atom_site_label
_atom_site_type_symbol
_atom_site_fract_x
_atom_site_fract_y
_atom_site_fract_z
_atom_site_U_iso_or_equiv
_atom_site_adp_type
_atom_site_occupancy
O1     O     0.25000   0.09613   0.21425   0.00000  Uiso   1.00
O2     O     0.25000   0.23720   0.11908   0.00000  Uiso   1.00
O3     O     0.25000   0.23720   0.21425   0.00000  Uiso   1.00
O4     O     0.25000   0.09613   0.11908   0.00000  Uiso   1.00
H5     H     0.46119   0.07235   0.07551   0.00000  Uiso   1.00
H6     H     0.03765   0.29326   0.19266   0.00000  Uiso   1.00
H7     H     0.45980   0.29389   0.19003   0.00000  Uiso   1.00
H8     H     0.04013   0.07278   0.07471   0.00000  Uiso   1.00
C9     C     0.25056   0.07331   0.16654   0.00000  Uiso   1.00
C10    C     0.25013   0.26001   0.16675   0.00000  Uiso   1.00
O11    O     0.18513   0.16667   0.21427   0.00000  Uiso   1.00
O12    O     0.31487   0.16667   0.11907   0.00000  Uiso   1.00
O13    O     0.31487   0.16667   0.21427   0.00000  Uiso   1.00
O14    O     0.18513   0.16667   0.11907   0.00000  Uiso   1.00
C15    C     0.16416   0.16922   0.16685   0.00000  Uiso   1.00
C16    C     0.33577   0.16902   0.16684   0.00000  Uiso   1.00
Cu17   Cu    0.25000   0.16667   0.22303   0.00000  Uiso   1.00
Cu18   Cu    0.25000   0.16667   0.11031   0.00000  Uiso   1.00
N19    N     0.25000   0.16667   0.02561   0.00000  Uiso   1.00
N20    N     0.25000   0.16667   0.30773   0.00000  Uiso   1.00
C21    C     0.40654   0.21269   0.18680   0.00000  Uiso   1.00
C22    C     0.09282   0.13055   0.14185   0.00000  Uiso   1.00
C23    C     0.40776   0.13006   0.14332   0.00000  Uiso   1.00
C24    C     0.09233   0.21188   0.18851   0.00000  Uiso   1.00
C25    C     0.38420   0.17033   0.16698   0.00000  Uiso   1.00
C26    C     0.11561   0.17025   0.16697   0.00000  Uiso   1.00
C27    C     0.45360   0.13400   0.13412   0.00000  Uiso   1.00
C28    C     0.04618   0.21523   0.17873   0.00000  Uiso   1.00
C29    C     0.45268   0.21561   0.17766   0.00000  Uiso   1.00
C30    C     0.04680   0.13434   0.13340   0.00000  Uiso   1.00
C31    C     0.47635   0.17486   0.15575   0.00000  Uiso   1.00
C32    C     0.02329   0.17487   0.15579   0.00000  Uiso   1.00
C33    C     0.47751   0.09926   0.10189   0.00000  Uiso   1.00
C34    C     0.02197   0.25859   0.18759   0.00000  Uiso   1.00
C35    C     0.47613   0.25892   0.18641   0.00000  Uiso   1.00
C36    C     0.02340   0.09956   0.10132   0.00000  Uiso   1.00
C37    C     0.25051   0.02175   0.16646   0.00000  Uiso   1.00
C38    C     0.25034   0.31156   0.16674   0.00000  Uiso   1.00
S39    S     0.37708   0.26020   0.22522   0.00000  Uiso   1.00
O40    O     0.35202   0.29029   0.18229   0.00000  Uiso   1.00
O41    O     0.34470   0.23935   0.26703   0.00000  Uiso   1.00
O42    O     0.40990   0.29725   0.26380   0.00000  Uiso   1.00
H43    H     0.42282   0.27612   0.29395   0.00000  Uiso   1.00
S44    S     0.12091   0.07338   0.13097   0.00000  Uiso   1.00
O45    O     0.14195   0.07274   0.07262   0.00000  Uiso   1.00
O46    O     0.15602   0.06663   0.17576   0.00000  Uiso   1.00
O47    O     0.08649   0.02588   0.13643   0.00000  Uiso   1.00
H48    H     0.07213   0.03080   0.17418   0.00000  Uiso   1.00
S49    S     0.38061   0.07254   0.13580   0.00000  Uiso   1.00
O50    O     0.35455   0.07208   0.08095   0.00000  Uiso   1.00
O51    O     0.41244   0.03003   0.13560   0.00000  Uiso   1.00
O52    O     0.34597   0.06506   0.19129   0.00000  Uiso   1.00
H53    H     0.36520   0.06487   0.22568   0.00000  Uiso   1.00
S54    S     0.12079   0.25671   0.23131   0.00000  Uiso   1.00
O55    O     0.15070   0.28513   0.19272   0.00000  Uiso   1.00
O56    O     0.09030   0.29161   0.26221   0.00000  Uiso   1.00
O57    O     0.15123   0.22922   0.28235   0.00000  Uiso   1.00
H58    H     0.17151   0.25475   0.29669   0.00000  Uiso   1.00
O59    O     0.75000   0.09613   0.21425   0.00000  Uiso   1.00
O60    O     0.75000   0.23720   0.11908   0.00000  Uiso   1.00
O61    O     0.75000   0.23720   0.21425   0.00000  Uiso   1.00
O62    O     0.75000   0.09613   0.11908   0.00000  Uiso   1.00
H63    H     0.96119   0.07235   0.07551   0.00000  Uiso   1.00
H64    H     0.53765   0.29326   0.19266   0.00000  Uiso   1.00
H65    H     0.95980   0.29389   0.19003   0.00000  Uiso   1.00
H66    H     0.54013   0.07278   0.07471   0.00000  Uiso   1.00
C67    C     0.75056   0.07331   0.16654   0.00000  Uiso   1.00
C68    C     0.75013   0.26001   0.16675   0.00000  Uiso   1.00
O69    O     0.68513   0.16667   0.21427   0.00000  Uiso   1.00
O70    O     0.81487   0.16667   0.11907   0.00000  Uiso   1.00
O71    O     0.81487   0.16667   0.21427   0.00000  Uiso   1.00
O72    O     0.68513   0.16667   0.11907   0.00000  Uiso   1.00
C73    C     0.66416   0.16922   0.16685   0.00000  Uiso   1.00
C74    C     0.83577   0.16902   0.16684   0.00000  Uiso   1.00
Cu75   Cu    0.75000   0.16667   0.22303   0.00000  Uiso   1.00
Cu76   Cu    0.75000   0.16667   0.11031   0.00000  Uiso   1.00
N77    N     0.75000   0.16667   0.02561   0.00000  Uiso   1.00
N78    N     0.75000   0.16667   0.30773   0.00000  Uiso   1.00
C79    C     0.90654   0.21269   0.18680   0.00000  Uiso   1.00
C80    C     0.59282   0.13055   0.14185   0.00000  Uiso   1.00
C81    C     0.90776   0.13006   0.14332   0.00000  Uiso   1.00
C82    C     0.59233   0.21188   0.18851   0.00000  Uiso   1.00
C83    C     0.88420   0.17033   0.16698   0.00000  Uiso   1.00
C84    C     0.61561   0.17025   0.16697   0.00000  Uiso   1.00
C85    C     0.95360   0.13400   0.13412   0.00000  Uiso   1.00
C86    C     0.54618   0.21523   0.17873   0.00000  Uiso   1.00
C87    C     0.95268   0.21561   0.17766   0.00000  Uiso   1.00
C88    C     0.54680   0.13434   0.13340   0.00000  Uiso   1.00
C89    C     0.97635   0.17486   0.15575   0.00000  Uiso   1.00
C90    C     0.52329   0.17487   0.15579   0.00000  Uiso   1.00
C91    C     0.97751   0.09926   0.10189   0.00000  Uiso   1.00
C92    C     0.52197   0.25859   0.18759   0.00000  Uiso   1.00
C93    C     0.97613   0.25892   0.18641   0.00000  Uiso   1.00
C94    C     0.52340   0.09956   0.10132   0.00000  Uiso   1.00
C95    C     0.75051   0.02175   0.16646   0.00000  Uiso   1.00
C96    C     0.75034   0.31156   0.16674   0.00000  Uiso   1.00
S97    S     0.87708   0.26020   0.22522   0.00000  Uiso   1.00
O98    O     0.85202   0.29029   0.18229   0.00000  Uiso   1.00
O99    O     0.84470   0.23935   0.26703   0.00000  Uiso   1.00
O100   O     0.90990   0.29725   0.26380   0.00000  Uiso   1.00
H101   H     0.92282   0.27612   0.29395   0.00000  Uiso   1.00
S102   S     0.62091   0.07338   0.13097   0.00000  Uiso   1.00
O103   O     0.64195   0.07274   0.07262   0.00000  Uiso   1.00
O104   O     0.65602   0.06663   0.17576   0.00000  Uiso   1.00
O105   O     0.58649   0.02588   0.13643   0.00000  Uiso   1.00
H106   H     0.57213   0.03080   0.17418   0.00000  Uiso   1.00
S107   S     0.88061   0.07254   0.13580   0.00000  Uiso   1.00
O108   O     0.85455   0.07208   0.08095   0.00000  Uiso   1.00
O109   O     0.91244   0.03003   0.13560   0.00000  Uiso   1.00
O110   O     0.84597   0.06506   0.19129   0.00000  Uiso   1.00
H111   H     0.86520   0.06487   0.22568   0.00000  Uiso   1.00
S112   S     0.62079   0.25671   0.23131   0.00000  Uiso   1.00
O113   O     0.65070   0.28513   0.19272   0.00000  Uiso   1.00
O114   O     0.59030   0.29161   0.26221   0.00000  Uiso   1.00
O115   O     0.65123   0.22922   0.28235   0.00000  Uiso   1.00
H116   H     0.67151   0.25475   0.29669   0.00000  Uiso   1.00
O117   O     0.25000   0.42946   0.21425   0.00000  Uiso   1.00
O118   O     0.25000   0.57054   0.11908   0.00000  Uiso   1.00
O119   O     0.25000   0.57054   0.21425   0.00000  Uiso   1.00
O120   O     0.25000   0.42946   0.11908   0.00000  Uiso   1.00
H121   H     0.46119   0.40568   0.07551   0.00000  Uiso   1.00
H122   H     0.03765   0.62659   0.19266   0.00000  Uiso   1.00
H123   H     0.45980   0.62722   0.19003   0.00000  Uiso   1.00
H124   H     0.04013   0.40611   0.07471   0.00000  Uiso   1.00
C125   C     0.25056   0.40665   0.16654   0.00000  Uiso   1.00
C126   C     0.25013   0.59335   0.16675   0.00000  Uiso   1.00
O127   O     0.18513   0.50000   0.21427   0.00000  Uiso   1.00
O128   O     0.31487   0.50000   0.11907   0.00000  Uiso   1.00
O129   O     0.31487   0.50000   0.21427   0.00000  Uiso   1.00
O130   O     0.18513   0.50000   0.11907   0.00000  Uiso   1.00
C131   C     0.16416   0.50255   0.16685   0.00000  Uiso   1.00
C132   C     0.33577   0.50235   0.16684   0.00000  Uiso   1.00
Cu133  Cu    0.25000   0.50000   0.22303   0.00000  Uiso   1.00
Cu134  Cu    0.25000   0.50000   0.11031   0.00000  Uiso   1.00
N135   N     0.25000   0.50000   0.02561   0.00000  Uiso   1.00
N136   N     0.25000   0.50000   0.30773   0.00000  Uiso   1.00
C137   C     0.40654   0.54603   0.18680   0.00000  Uiso   1.00
C138   C     0.09282   0.46389   0.14185   0.00000  Uiso   1.00
C139   C     0.40776   0.46339   0.14332   0.00000  Uiso   1.00
C140   C     0.09233   0.54521   0.18851   0.00000  Uiso   1.00
C141   C     0.38420   0.50366   0.16698   0.00000  Uiso   1.00
C142   C     0.11561   0.50358   0.16697   0.00000  Uiso   1.00
C143   C     0.45360   0.46733   0.13412   0.00000  Uiso   1.00
C144   C     0.04618   0.54857   0.17873   0.00000  Uiso   1.00
C145   C     0.45268   0.54894   0.17766   0.00000  Uiso   1.00
C146   C     0.04680   0.46767   0.13340   0.00000  Uiso   1.00
C147   C     0.47635   0.50819   0.15575   0.00000  Uiso   1.00
C148   C     0.02329   0.50820   0.15579   0.00000  Uiso   1.00
C149   C     0.47751   0.43259   0.10189   0.00000  Uiso   1.00
C150   C     0.02197   0.59193   0.18759   0.00000  Uiso   1.00
C151   C     0.47613   0.59225   0.18641   0.00000  Uiso   1.00
C152   C     0.02340   0.43290   0.10132   0.00000  Uiso   1.00
C153   C     0.25051   0.35508   0.16646   0.00000  Uiso   1.00
C154   C     0.25034   0.64489   0.16674   0.00000  Uiso   1.00
S155   S     0.37708   0.59353   0.22522   0.00000  Uiso   1.00
O156   O     0.35202   0.62362   0.18229   0.00000  Uiso   1.00
O157   O     0.34470   0.57268   0.26703   0.00000  Uiso   1.00
O158   O     0.40990   0.63058   0.26380   0.00000  Uiso   1.00
H159   H     0.42282   0.60945   0.29395   0.00000  Uiso   1.00
S160   S     0.12091   0.40671   0.13097   0.00000  Uiso   1.00
O161   O     0.14195   0.40607   0.07262   0.00000  Uiso   1.00
O162   O     0.15602   0.39996   0.17576   0.00000  Uiso   1.00
O163   O     0.08649   0.35921   0.13643   0.00000  Uiso   1.00
H164   H     0.07213   0.36414   0.17418   0.00000  Uiso   1.00
S165   S     0.38061   0.40587   0.13580   0.00000  Uiso   1.00
O166   O     0.35455   0.40542   0.08095   0.00000  Uiso   1.00
O167   O     0.41244   0.36336   0.13560   0.00000  Uiso   1.00
O168   O     0.34597   0.39840   0.19129   0.00000  Uiso   1.00
H169   H     0.36520   0.39821   0.22568   0.00000  Uiso   1.00
S170   S     0.12079   0.59004   0.23131   0.00000  Uiso   1.00
O171   O     0.15070   0.61847   0.19272   0.00000  Uiso   1.00
O172   O     0.09030   0.62494   0.26221   0.00000  Uiso   1.00
O173   O     0.15123   0.56256   0.28235   0.00000  Uiso   1.00
H174   H     0.17151   0.58809   0.29669   0.00000  Uiso   1.00
O175   O     0.75000   0.42946   0.21425   0.00000  Uiso   1.00
O176   O     0.75000   0.57054   0.11908   0.00000  Uiso   1.00
O177   O     0.75000   0.57054   0.21425   0.00000  Uiso   1.00
O178   O     0.75000   0.42946   0.11908   0.00000  Uiso   1.00
H179   H     0.96119   0.40568   0.07551   0.00000  Uiso   1.00
H180   H     0.53765   0.62659   0.19266   0.00000  Uiso   1.00
H181   H     0.95980   0.62722   0.19003   0.00000  Uiso   1.00
H182   H     0.54013   0.40611   0.07471   0.00000  Uiso   1.00
C183   C     0.75056   0.40665   0.16654   0.00000  Uiso   1.00
C184   C     0.75013   0.59335   0.16675   0.00000  Uiso   1.00
O185   O     0.68513   0.50000   0.21427   0.00000  Uiso   1.00
O186   O     0.81487   0.50000   0.11907   0.00000  Uiso   1.00
O187   O     0.81487   0.50000   0.21427   0.00000  Uiso   1.00
O188   O     0.68513   0.50000   0.11907   0.00000  Uiso   1.00
C189   C     0.66416   0.50255   0.16685   0.00000  Uiso   1.00
C190   C     0.83577   0.50235   0.16684   0.00000  Uiso   1.00
Cu191  Cu    0.75000   0.50000   0.22303   0.00000  Uiso   1.00
Cu192  Cu    0.75000   0.50000   0.11031   0.00000  Uiso   1.00
N193   N     0.75000   0.50000   0.02561   0.00000  Uiso   1.00
N194   N     0.75000   0.50000   0.30773   0.00000  Uiso   1.00
C195   C     0.90654   0.54603   0.18680   0.00000  Uiso   1.00
C196   C     0.59282   0.46389   0.14185   0.00000  Uiso   1.00
C197   C     0.90776   0.46339   0.14332   0.00000  Uiso   1.00
C198   C     0.59233   0.54521   0.18851   0.00000  Uiso   1.00
C199   C     0.88420   0.50366   0.16698   0.00000  Uiso   1.00
C200   C     0.61561   0.50358   0.16697   0.00000  Uiso   1.00
C201   C     0.95360   0.46733   0.13412   0.00000  Uiso   1.00
C202   C     0.54618   0.54857   0.17873   0.00000  Uiso   1.00
C203   C     0.95268   0.54894   0.17766   0.00000  Uiso   1.00
C204   C     0.54680   0.46767   0.13340   0.00000  Uiso   1.00
C205   C     0.97635   0.50819   0.15575   0.00000  Uiso   1.00
C206   C     0.52329   0.50820   0.15579   0.00000  Uiso   1.00
C207   C     0.97751   0.43259   0.10189   0.00000  Uiso   1.00
C208   C     0.52197   0.59193   0.18759   0.00000  Uiso   1.00
C209   C     0.97613   0.59225   0.18641   0.00000  Uiso   1.00
C210   C     0.52340   0.43290   0.10132   0.00000  Uiso   1.00
C211   C     0.75051   0.35508   0.16646   0.00000  Uiso   1.00
C212   C     0.75034   0.64489   0.16674   0.00000  Uiso   1.00
S213   S     0.87708   0.59353   0.22522   0.00000  Uiso   1.00
O214   O     0.85202   0.62362   0.18229   0.00000  Uiso   1.00
O215   O     0.84470   0.57268   0.26703   0.00000  Uiso   1.00
O216   O     0.90990   0.63058   0.26380   0.00000  Uiso   1.00
H217   H     0.92282   0.60945   0.29395   0.00000  Uiso   1.00
S218   S     0.62091   0.40671   0.13097   0.00000  Uiso   1.00
O219   O     0.64195   0.40607   0.07262   0.00000  Uiso   1.00
O220   O     0.65602   0.39996   0.17576   0.00000  Uiso   1.00
O221   O     0.58649   0.35921   0.13643   0.00000  Uiso   1.00
H222   H     0.57213   0.36414   0.17418   0.00000  Uiso   1.00
S223   S     0.88061   0.40587   0.13580   0.00000  Uiso   1.00
O224   O     0.85455   0.40542   0.08095   0.00000  Uiso   1.00
O225   O     0.91244   0.36336   0.13560   0.00000  Uiso   1.00
O226   O     0.84597   0.39840   0.19129   0.00000  Uiso   1.00
H227   H     0.86520   0.39821   0.22568   0.00000  Uiso   1.00
S228   S     0.62079   0.59004   0.23131   0.00000  Uiso   1.00
O229   O     0.65070   0.61847   0.19272   0.00000  Uiso   1.00
O230   O     0.59030   0.62494   0.26221   0.00000  Uiso   1.00
O231   O     0.65123   0.56256   0.28235   0.00000  Uiso   1.00
H232   H     0.67151   0.58809   0.29669   0.00000  Uiso   1.00
O233   O     0.25000   0.76280   0.21425   0.00000  Uiso   1.00
O234   O     0.25000   0.90387   0.11908   0.00000  Uiso   1.00
O235   O     0.25000   0.90387   0.21425   0.00000  Uiso   1.00
O236   O     0.25000   0.76280   0.11908   0.00000  Uiso   1.00
H237   H     0.46119   0.73902   0.07551   0.00000  Uiso   1.00
H238   H     0.03765   0.95993   0.19266   0.00000  Uiso   1.00
H239   H     0.45980   0.96055   0.19003   0.00000  Uiso   1.00
H240   H     0.04013   0.73944   0.07471   0.00000  Uiso   1.00
C241   C     0.25056   0.73998   0.16654   0.00000  Uiso   1.00
C242   C     0.25013   0.92668   0.16675   0.00000  Uiso   1.00
O243   O     0.18513   0.83333   0.21427   0.00000  Uiso   1.00
O244   O     0.31487   0.83333   0.11907   0.00000  Uiso   1.00
O245   O     0.31487   0.83333   0.21427   0.00000  Uiso   1.00
O246   O     0.18513   0.83333   0.11907   0.00000  Uiso   1.00
C247   C     0.16416   0.83588   0.16685   0.00000  Uiso   1.00
C248   C     0.33577   0.83568   0.16684   0.00000  Uiso   1.00
Cu249  Cu    0.25000   0.83333   0.22303   0.00000  Uiso   1.00
Cu250  Cu    0.25000   0.83333   0.11031   0.00000  Uiso   1.00
N251   N     0.25000   0.83333   0.02561   0.00000  Uiso   1.00
N252   N     0.25000   0.83333   0.30773   0.00000  Uiso   1.00
C253   C     0.40654   0.87936   0.18680   0.00000  Uiso   1.00
C254   C     0.09282   0.79722   0.14185   0.00000  Uiso   1.00
C255   C     0.40776   0.79673   0.14332   0.00000  Uiso   1.00
C256   C     0.09233   0.87855   0.18851   0.00000  Uiso   1.00
C257   C     0.38420   0.83699   0.16698   0.00000  Uiso   1.00
C258   C     0.11561   0.83691   0.16697   0.00000  Uiso   1.00
C259   C     0.45360   0.80066   0.13412   0.00000  Uiso   1.00
C260   C     0.04618   0.88190   0.17873   0.00000  Uiso   1.00
C261   C     0.45268   0.88227   0.17766   0.00000  Uiso   1.00
C262   C     0.04680   0.80100   0.13340   0.00000  Uiso   1.00
C263   C     0.47635   0.84153   0.15575   0.00000  Uiso   1.00
C264   C     0.02329   0.84154   0.15579   0.00000  Uiso   1.00
C265   C     0.47751   0.76592   0.10189   0.00000  Uiso   1.00
C266   C     0.02197   0.92526   0.18759   0.00000  Uiso   1.00
C267   C     0.47613   0.92558   0.18641   0.00000  Uiso   1.00
C268   C     0.02340   0.76623   0.10132   0.00000  Uiso   1.00
C269   C     0.25051   0.68841   0.16646   0.00000  Uiso   1.00
C270   C     0.25034   0.97823   0.16674   0.00000  Uiso   1.00
S271   S     0.37708   0.92687   0.22522   0.00000  Uiso   1.00
O272   O     0.35202   0.95696   0.18229   0.00000  Uiso   1.00
O273   O     0.34470   0.90601   0.26703   0.00000  Uiso   1.00
O274   O     0.40990   0.96391   0.26380   0.00000  Uiso   1.00
H275   H     0.42282   0.94278   0.29395   0.00000  Uiso   1.00
S276   S     0.12091   0.74005   0.13097   0.00000  Uiso   1.00
O277   O     0.14195   0.73940   0.07262   0.00000  Uiso   1.00
O278   O     0.15602   0.73330   0.17576   0.00000  Uiso   1.00
O279   O     0.08649   0.69255   0.13643   0.00000  Uiso   1.00
H280   H     0.07213   0.69747   0.17418   0.00000  Uiso   1.00
S281   S     0.38061   0.73921   0.13580   0.00000  Uiso   1.00
O282   O     0.35455   0.73875   0.08095   0.00000  Uiso   1.00
O283   O     0.41244   0.69670   0.13560   0.00000  Uiso   1.00
O284   O     0.34597   0.73173   0.19129   0.00000  Uiso   1.00
H285   H     0.36520   0.73154   0.22568   0.00000  Uiso   1.00
S286   S     0.12079   0.92337   0.23131   0.00000  Uiso   1.00
O287   O     0.15070   0.95180   0.19272   0.00000  Uiso   1.00
O288   O     0.09030   0.95827   0.26221   0.00000  Uiso   1.00
O289   O     0.15123   0.89589   0.28235   0.00000  Uiso   1.00
H290   H     0.17151   0.92142   0.29669   0.00000  Uiso   1.00
O291   O     0.75000   0.76280   0.21425   0.00000  Uiso   1.00
O292   O     0.75000   0.90387   0.11908   0.00000  Uiso   1.00
O293   O     0.75000   0.90387   0.21425   0.00000  Uiso   1.00
O294   O     0.75000   0.76280   0.11908   0.00000  Uiso   1.00
H295   H     0.96119   0.73902   0.07551   0.00000  Uiso   1.00
H296   H     0.53765   0.95993   0.19266   0.00000  Uiso   1.00
H297   H     0.95980   0.96055   0.19003   0.00000  Uiso   1.00
H298   H     0.54013   0.73944   0.07471   0.00000  Uiso   1.00
C299   C     0.75056   0.73998   0.16654   0.00000  Uiso   1.00
C300   C     0.75013   0.92668   0.16675   0.00000  Uiso   1.00
O301   O     0.68513   0.83333   0.21427   0.00000  Uiso   1.00
O302   O     0.81487   0.83333   0.11907   0.00000  Uiso   1.00
O303   O     0.81487   0.83333   0.21427   0.00000  Uiso   1.00
O304   O     0.68513   0.83333   0.11907   0.00000  Uiso   1.00
C305   C     0.66416   0.83588   0.16685   0.00000  Uiso   1.00
C306   C     0.83577   0.83568   0.16684   0.00000  Uiso   1.00
Cu307  Cu    0.75000   0.83333   0.22303   0.00000  Uiso   1.00
Cu308  Cu    0.75000   0.83333   0.11031   0.00000  Uiso   1.00
N309   N     0.75000   0.83333   0.02561   0.00000  Uiso   1.00
N310   N     0.75000   0.83333   0.30773   0.00000  Uiso   1.00
C311   C     0.90654   0.87936   0.18680   0.00000  Uiso   1.00
C312   C     0.59282   0.79722   0.14185   0.00000  Uiso   1.00
C313   C     0.90776   0.79673   0.14332   0.00000  Uiso   1.00
C314   C     0.59233   0.87855   0.18851   0.00000  Uiso   1.00
C315   C     0.88420   0.83699   0.16698   0.00000  Uiso   1.00
C316   C     0.61561   0.83691   0.16697   0.00000  Uiso   1.00
C317   C     0.95360   0.80066   0.13412   0.00000  Uiso   1.00
C318   C     0.54618   0.88190   0.17873   0.00000  Uiso   1.00
C319   C     0.95268   0.88227   0.17766   0.00000  Uiso   1.00
C320   C     0.54680   0.80100   0.13340   0.00000  Uiso   1.00
C321   C     0.97635   0.84153   0.15575   0.00000  Uiso   1.00
C322   C     0.52329   0.84154   0.15579   0.00000  Uiso   1.00
C323   C     0.97751   0.76592   0.10189   0.00000  Uiso   1.00
C324   C     0.52197   0.92526   0.18759   0.00000  Uiso   1.00
C325   C     0.97613   0.92558   0.18641   0.00000  Uiso   1.00
C326   C     0.52340   0.76623   0.10132   0.00000  Uiso   1.00
C327   C     0.75051   0.68841   0.16646   0.00000  Uiso   1.00
C328   C     0.75034   0.97823   0.16674   0.00000  Uiso   1.00
S329   S     0.87708   0.92687   0.22522   0.00000  Uiso   1.00
O330   O     0.85202   0.95696   0.18229   0.00000  Uiso   1.00
O331   O     0.84470   0.90601   0.26703   0.00000  Uiso   1.00
O332   O     0.90990   0.96391   0.26380   0.00000  Uiso   1.00
H333   H     0.92282   0.94278   0.29395   0.00000  Uiso   1.00
S334   S     0.62091   0.74005   0.13097   0.00000  Uiso   1.00
O335   O     0.64195   0.73940   0.07262   0.00000  Uiso   1.00
O336   O     0.65602   0.73330   0.17576   0.00000  Uiso   1.00
O337   O     0.58649   0.69255   0.13643   0.00000  Uiso   1.00
H338   H     0.57213   0.69747   0.17418   0.00000  Uiso   1.00
S339   S     0.88061   0.73921   0.13580   0.00000  Uiso   1.00
O340   O     0.85455   0.73875   0.08095   0.00000  Uiso   1.00
O341   O     0.91244   0.69670   0.13560   0.00000  Uiso   1.00
O342   O     0.84597   0.73173   0.19129   0.00000  Uiso   1.00
H343   H     0.86520   0.73154   0.22568   0.00000  Uiso   1.00
S344   S     0.62079   0.92337   0.23131   0.00000  Uiso   1.00
O345   O     0.65070   0.95180   0.19272   0.00000  Uiso   1.00
O346   O     0.59030   0.95827   0.26221   0.00000  Uiso   1.00
O347   O     0.65123   0.89589   0.28235   0.00000  Uiso   1.00
H348   H     0.67151   0.92142   0.29669   0.00000  Uiso   1.00
O349   O     0.25000   0.09613   0.54759   0.00000  Uiso   1.00
O350   O     0.25000   0.23720   0.45241   0.00000  Uiso   1.00
O351   O     0.25000   0.23720   0.54759   0.00000  Uiso   1.00
O352   O     0.25000   0.09613   0.45241   0.00000  Uiso   1.00
H353   H     0.46119   0.07235   0.40885   0.00000  Uiso   1.00
H354   H     0.03765   0.29326   0.52599   0.00000  Uiso   1.00
H355   H     0.45980   0.29389   0.52337   0.00000  Uiso   1.00
H356   H     0.04013   0.07278   0.40805   0.00000  Uiso   1.00
C357   C     0.25056   0.07331   0.49987   0.00000  Uiso   1.00
C358   C     0.25013   0.26001   0.50009   0.00000  Uiso   1.00
O359   O     0.18513   0.16667   0.54760   0.00000  Uiso   1.00
O360   O     0.31487   0.16667   0.45240   0.00000  Uiso   1.00
O361   O     0.31487   0.16667   0.54760   0.00000  Uiso   1.00
O362   O     0.18513   0.16667   0.45240   0.00000  Uiso   1.00
C363   C     0.16416   0.16922   0.50018   0.00000  Uiso   1.00
C364   C     0.33577   0.16902   0.50018   0.00000  Uiso   1.00
Cu365  Cu    0.25000   0.16667   0.55636   0.00000  Uiso   1.00
Cu366  Cu    0.25000   0.16667   0.44364   0.00000  Uiso   1.00
N367   N     0.25000   0.16667   0.35894   0.00000  Uiso   1.00
N368   N     0.25000   0.16667   0.64106   0.00000  Uiso   1.00
C369   C     0.40654   0.21269   0.52013   0.00000  Uiso   1.00
C370   C     0.09282   0.13055   0.47518   0.00000  Uiso   1.00
C371   C     0.40776   0.13006   0.47666   0.00000  Uiso   1.00
C372   C     0.09233   0.21188   0.52184   0.00000  Uiso   1.00
C373   C     0.38420   0.17033   0.50032   0.00000  Uiso   1.00
C374   C     0.11561   0.17025   0.50031   0.00000  Uiso   1.00
C375   C     0.45360   0.13400   0.46746   0.00000  Uiso   1.00
C376   C     0.04618   0.21523   0.51206   0.00000  Uiso   1.00
C377   C     0.45268   0.21561   0.51099   0.00000  Uiso   1.00
C378   C     0.04680   0.13434   0.46673   0.00000  Uiso   1.00
C379   C     0.47635   0.17486   0.48909   0.00000  Uiso   1.00
C380   C     0.02329   0.17487   0.48912   0.00000  Uiso   1.00
C381   C     0.47751   0.09926   0.43522   0.00000  Uiso   1.00
C382   C     0.02197   0.25859   0.52093   0.00000  Uiso   1.00
C383   C     0.47613   0.25892   0.51974   0.00000  Uiso   1.00
C384   C     0.02340   0.09956   0.43466   0.00000  Uiso   1.00
C385   C     0.25051   0.02175   0.49979   0.00000  Uiso   1.00
C386   C     0.25034   0.31156   0.50008   0.00000  Uiso   1.00
S387   S     0.37708   0.26020   0.55855   0.00000  Uiso   1.00
O388   O     0.35202   0.29029   0.51562   0.00000  Uiso   1.00
O389   O     0.34470   0.23935   0.60036   0.00000  Uiso   1.00
O390   O     0.40990   0.29725   0.59713   0.00000  Uiso   1.00
H391   H     0.42282   0.27612   0.62729   0.00000  Uiso   1.00
S392   S     0.12091   0.07338   0.46431   0.00000  Uiso   1.00
O393   O     0.14195   0.07274   0.40596   0.00000  Uiso   1.00
O394   O     0.15602   0.06663   0.50909   0.00000  Uiso   1.00
O395   O     0.08649   0.02588   0.46976   0.00000  Uiso   1.00
H396   H     0.07213   0.03080   0.50752   0.00000  Uiso   1.00
S397   S     0.38061   0.07254   0.46914   0.00000  Uiso   1.00
O398   O     0.35455   0.07208   0.41429   0.00000  Uiso   1.00
O399   O     0.41244   0.03003   0.46894   0.00000  Uiso   1.00
O400   O     0.34597   0.06506   0.52462   0.00000  Uiso   1.00
H401   H     0.36520   0.06487   0.55901   0.00000  Uiso   1.00
S402   S     0.12079   0.25671   0.56464   0.00000  Uiso   1.00
O403   O     0.15070   0.28513   0.52605   0.00000  Uiso   1.00
O404   O     0.09030   0.29161   0.59555   0.00000  Uiso   1.00
O405   O     0.15123   0.22922   0.61568   0.00000  Uiso   1.00
H406   H     0.17151   0.25475   0.63002   0.00000  Uiso   1.00
O407   O     0.75000   0.09613   0.54759   0.00000  Uiso   1.00
O408   O     0.75000   0.23720   0.45241   0.00000  Uiso   1.00
O409   O     0.75000   0.23720   0.54759   0.00000  Uiso   1.00
O410   O     0.75000   0.09613   0.45241   0.00000  Uiso   1.00
H411   H     0.96119   0.07235   0.40885   0.00000  Uiso   1.00
H412   H     0.53765   0.29326   0.52599   0.00000  Uiso   1.00
H413   H     0.95980   0.29389   0.52337   0.00000  Uiso   1.00
H414   H     0.54013   0.07278   0.40805   0.00000  Uiso   1.00
C415   C     0.75056   0.07331   0.49987   0.00000  Uiso   1.00
C416   C     0.75013   0.26001   0.50009   0.00000  Uiso   1.00
O417   O     0.68513   0.16667   0.54760   0.00000  Uiso   1.00
O418   O     0.81487   0.16667   0.45240   0.00000  Uiso   1.00
O419   O     0.81487   0.16667   0.54760   0.00000  Uiso   1.00
O420   O     0.68513   0.16667   0.45240   0.00000  Uiso   1.00
C421   C     0.66416   0.16922   0.50018   0.00000  Uiso   1.00
C422   C     0.83577   0.16902   0.50018   0.00000  Uiso   1.00
Cu423  Cu    0.75000   0.16667   0.55636   0.00000  Uiso   1.00
Cu424  Cu    0.75000   0.16667   0.44364   0.00000  Uiso   1.00
N425   N     0.75000   0.16667   0.35894   0.00000  Uiso   1.00
N426   N     0.75000   0.16667   0.64106   0.00000  Uiso   1.00
C427   C     0.90654   0.21269   0.52013   0.00000  Uiso   1.00
C428   C     0.59282   0.13055   0.47518   0.00000  Uiso   1.00
C429   C     0.90776   0.13006   0.47666   0.00000  Uiso   1.00
C430   C     0.59233   0.21188   0.52184   0.00000  Uiso   1.00
C431   C     0.88420   0.17033   0.50032   0.00000  Uiso   1.00
C432   C     0.61561   0.17025   0.50031   0.00000  Uiso   1.00
C433   C     0.95360   0.13400   0.46746   0.00000  Uiso   1.00
C434   C     0.54618   0.21523   0.51206   0.00000  Uiso   1.00
C435   C     0.95268   0.21561   0.51099   0.00000  Uiso   1.00
C436   C     0.54680   0.13434   0.46673   0.00000  Uiso   1.00
C437   C     0.97635   0.17486   0.48909   0.00000  Uiso   1.00
C438   C     0.52329   0.17487   0.48912   0.00000  Uiso   1.00
C439   C     0.97751   0.09926   0.43522   0.00000  Uiso   1.00
C440   C     0.52197   0.25859   0.52093   0.00000  Uiso   1.00
C441   C     0.97613   0.25892   0.51974   0.00000  Uiso   1.00
C442   C     0.52340   0.09956   0.43466   0.00000  Uiso   1.00
C443   C     0.75051   0.02175   0.49979   0.00000  Uiso   1.00
C444   C     0.75034   0.31156   0.50008   0.00000  Uiso   1.00
S445   S     0.87708   0.26020   0.55855   0.00000  Uiso   1.00
O446   O     0.85202   0.29029   0.51562   0.00000  Uiso   1.00
O447   O     0.84470   0.23935   0.60036   0.00000  Uiso   1.00
O448   O     0.90990   0.29725   0.59713   0.00000  Uiso   1.00
H449   H     0.92282   0.27612   0.62729   0.00000  Uiso   1.00
S450   S     0.62091   0.07338   0.46431   0.00000  Uiso   1.00
O451   O     0.64195   0.07274   0.40596   0.00000  Uiso   1.00
O452   O     0.65602   0.06663   0.50909   0.00000  Uiso   1.00
O453   O     0.58649   0.02588   0.46976   0.00000  Uiso   1.00
H454   H     0.57213   0.03080   0.50752   0.00000  Uiso   1.00
S455   S     0.88061   0.07254   0.46914   0.00000  Uiso   1.00
O456   O     0.85455   0.07208   0.41429   0.00000  Uiso   1.00
O457   O     0.91244   0.03003   0.46894   0.00000  Uiso   1.00
O458   O     0.84597   0.06506   0.52462   0.00000  Uiso   1.00
H459   H     0.86520   0.06487   0.55901   0.00000  Uiso   1.00
S460   S     0.62079   0.25671   0.56464   0.00000  Uiso   1.00
O461   O     0.65070   0.28513   0.52605   0.00000  Uiso   1.00
O462   O     0.59030   0.29161   0.59555   0.00000  Uiso   1.00
O463   O     0.65123   0.22922   0.61568   0.00000  Uiso   1.00
H464   H     0.67151   0.25475   0.63002   0.00000  Uiso   1.00
O465   O     0.25000   0.42946   0.54759   0.00000  Uiso   1.00
O466   O     0.25000   0.57054   0.45241   0.00000  Uiso   1.00
O467   O     0.25000   0.57054   0.54759   0.00000  Uiso   1.00
O468   O     0.25000   0.42946   0.45241   0.00000  Uiso   1.00
H469   H     0.46119   0.40568   0.40885   0.00000  Uiso   1.00
H470   H     0.03765   0.62659   0.52599   0.00000  Uiso   1.00
H471   H     0.45980   0.62722   0.52337   0.00000  Uiso   1.00
H472   H     0.04013   0.40611   0.40805   0.00000  Uiso   1.00
C473   C     0.25056   0.40665   0.49987   0.00000  Uiso   1.00
C474   C     0.25013   0.59335   0.50009   0.00000  Uiso   1.00
O475   O     0.18513   0.50000   0.54760   0.00000  Uiso   1.00
O476   O     0.31487   0.50000   0.45240   0.00000  Uiso   1.00
O477   O     0.31487   0.50000   0.54760   0.00000  Uiso   1.00
O478   O     0.18513   0.50000   0.45240   0.00000  Uiso   1.00
C479   C     0.16416   0.50255   0.50018   0.00000  Uiso   1.00
C480   C     0.33577   0.50235   0.50018   0.00000  Uiso   1.00
Cu481  Cu    0.25000   0.50000   0.55636   0.00000  Uiso   1.00
Cu482  Cu    0.25000   0.50000   0.44364   0.00000  Uiso   1.00
N483   N     0.25000   0.50000   0.35894   0.00000  Uiso   1.00
N484   N     0.25000   0.50000   0.64106   0.00000  Uiso   1.00
C485   C     0.40654   0.54603   0.52013   0.00000  Uiso   1.00
C486   C     0.09282   0.46389   0.47518   0.00000  Uiso   1.00
C487   C     0.40776   0.46339   0.47666   0.00000  Uiso   1.00
C488   C     0.09233   0.54521   0.52184   0.00000  Uiso   1.00
C489   C     0.38420   0.50366   0.50032   0.00000  Uiso   1.00
C490   C     0.11561   0.50358   0.50031   0.00000  Uiso   1.00
C491   C     0.45360   0.46733   0.46746   0.00000  Uiso   1.00
C492   C     0.04618   0.54857   0.51206   0.00000  Uiso   1.00
C493   C     0.45268   0.54894   0.51099   0.00000  Uiso   1.00
C494   C     0.04680   0.46767   0.46673   0.00000  Uiso   1.00
C495   C     0.47635   0.50819   0.48909   0.00000  Uiso   1.00
C496   C     0.02329   0.50820   0.48912   0.00000  Uiso   1.00
C497   C     0.47751   0.43259   0.43522   0.00000  Uiso   1.00
C498   C     0.02197   0.59193   0.52093   0.00000  Uiso   1.00
C499   C     0.47613   0.59225   0.51974   0.00000  Uiso   1.00
C500   C     0.02340   0.43290   0.43466   0.00000  Uiso   1.00
C501   C     0.25051   0.35508   0.49979   0.00000  Uiso   1.00
C502   C     0.25034   0.64489   0.50008   0.00000  Uiso   1.00
S503   S     0.37708   0.59353   0.55855   0.00000  Uiso   1.00
O504   O     0.35202   0.62362   0.51562   0.00000  Uiso   1.00
O505   O     0.34470   0.57268   0.60036   0.00000  Uiso   1.00
O506   O     0.40990   0.63058   0.59713   0.00000  Uiso   1.00
H507   H     0.42282   0.60945   0.62729   0.00000  Uiso   1.00
S508   S     0.12091   0.40671   0.46431   0.00000  Uiso   1.00
O509   O     0.14195   0.40607   0.40596   0.00000  Uiso   1.00
O510   O     0.15602   0.39996   0.50909   0.00000  Uiso   1.00
O511   O     0.08649   0.35921   0.46976   0.00000  Uiso   1.00
H512   H     0.07213   0.36414   0.50752   0.00000  Uiso   1.00
S513   S     0.38061   0.40587   0.46914   0.00000  Uiso   1.00
O514   O     0.35455   0.40542   0.41429   0.00000  Uiso   1.00
O515   O     0.41244   0.36336   0.46894   0.00000  Uiso   1.00
O516   O     0.34597   0.39840   0.52462   0.00000  Uiso   1.00
H517   H     0.36520   0.39821   0.55901   0.00000  Uiso   1.00
S518   S     0.12079   0.59004   0.56464   0.00000  Uiso   1.00
O519   O     0.15070   0.61847   0.52605   0.00000  Uiso   1.00
O520   O     0.09030   0.62494   0.59555   0.00000  Uiso   1.00
O521   O     0.15123   0.56256   0.61568   0.00000  Uiso   1.00
H522   H     0.17151   0.58809   0.63002   0.00000  Uiso   1.00
O523   O     0.75000   0.42946   0.54759   0.00000  Uiso   1.00
O524   O     0.75000   0.57054   0.45241   0.00000  Uiso   1.00
O525   O     0.75000   0.57054   0.54759   0.00000  Uiso   1.00
O526   O     0.75000   0.42946   0.45241   0.00000  Uiso   1.00
H527   H     0.96119   0.40568   0.40885   0.00000  Uiso   1.00
H528   H     0.53765   0.62659   0.52599   0.00000  Uiso   1.00
H529   H     0.95980   0.62722   0.52337   0.00000  Uiso   1.00
H530   H     0.54013   0.40611   0.40805   0.00000  Uiso   1.00
C531   C     0.75056   0.40665   0.49987   0.00000  Uiso   1.00
C532   C     0.75013   0.59335   0.50009   0.00000  Uiso   1.00
O533   O     0.68513   0.50000   0.54760   0.00000  Uiso   1.00
O534   O     0.81487   0.50000   0.45240   0.00000  Uiso   1.00
O535   O     0.81487   0.50000   0.54760   0.00000  Uiso   1.00
O536   O     0.68513   0.50000   0.45240   0.00000  Uiso   1.00
C537   C     0.66416   0.50255   0.50018   0.00000  Uiso   1.00
C538   C     0.83577   0.50235   0.50018   0.00000  Uiso   1.00
Cu539  Cu    0.75000   0.50000   0.55636   0.00000  Uiso   1.00
Cu540  Cu    0.75000   0.50000   0.44364   0.00000  Uiso   1.00
N541   N     0.75000   0.50000   0.35894   0.00000  Uiso   1.00
N542   N     0.75000   0.50000   0.64106   0.00000  Uiso   1.00
C543   C     0.90654   0.54603   0.52013   0.00000  Uiso   1.00
C544   C     0.59282   0.46389   0.47518   0.00000  Uiso   1.00
C545   C     0.90776   0.46339   0.47666   0.00000  Uiso   1.00
C546   C     0.59233   0.54521   0.52184   0.00000  Uiso   1.00
C547   C     0.88420   0.50366   0.50032   0.00000  Uiso   1.00
C548   C     0.61561   0.50358   0.50031   0.00000  Uiso   1.00
C549   C     0.95360   0.46733   0.46746   0.00000  Uiso   1.00
C550   C     0.54618   0.54857   0.51206   0.00000  Uiso   1.00
C551   C     0.95268   0.54894   0.51099   0.00000  Uiso   1.00
C552   C     0.54680   0.46767   0.46673   0.00000  Uiso   1.00
C553   C     0.97635   0.50819   0.48909   0.00000  Uiso   1.00
C554   C     0.52329   0.50820   0.48912   0.00000  Uiso   1.00
C555   C     0.97751   0.43259   0.43522   0.00000  Uiso   1.00
C556   C     0.52197   0.59193   0.52093   0.00000  Uiso   1.00
C557   C     0.97613   0.59225   0.51974   0.00000  Uiso   1.00
C558   C     0.52340   0.43290   0.43466   0.00000  Uiso   1.00
C559   C     0.75051   0.35508   0.49979   0.00000  Uiso   1.00
C560   C     0.75034   0.64489   0.50008   0.00000  Uiso   1.00
S561   S     0.87708   0.59353   0.55855   0.00000  Uiso   1.00
O562   O     0.85202   0.62362   0.51562   0.00000  Uiso   1.00
O563   O     0.84470   0.57268   0.60036   0.00000  Uiso   1.00
O564   O     0.90990   0.63058   0.59713   0.00000  Uiso   1.00
H565   H     0.92282   0.60945   0.62729   0.00000  Uiso   1.00
S566   S     0.62091   0.40671   0.46431   0.00000  Uiso   1.00
O567   O     0.64195   0.40607   0.40596   0.00000  Uiso   1.00
O568   O     0.65602   0.39996   0.50909   0.00000  Uiso   1.00
O569   O     0.58649   0.35921   0.46976   0.00000  Uiso   1.00
H570   H     0.57213   0.36414   0.50752   0.00000  Uiso   1.00
S571   S     0.88061   0.40587   0.46914   0.00000  Uiso   1.00
O572   O     0.85455   0.40542   0.41429   0.00000  Uiso   1.00
O573   O     0.91244   0.36336   0.46894   0.00000  Uiso   1.00
O574   O     0.84597   0.39840   0.52462   0.00000  Uiso   1.00
H575   H     0.86520   0.39821   0.55901   0.00000  Uiso   1.00
S576   S     0.62079   0.59004   0.56464   0.00000  Uiso   1.00
O577   O     0.65070   0.61847   0.52605   0.00000  Uiso   1.00
O578   O     0.59030   0.62494   0.59555   0.00000  Uiso   1.00
O579   O     0.65123   0.56256   0.61568   0.00000  Uiso   1.00
H580   H     0.67151   0.58809   0.63002   0.00000  Uiso   1.00
O581   O     0.25000   0.76280   0.54759   0.00000  Uiso   1.00
O582   O     0.25000   0.90387   0.45241   0.00000  Uiso   1.00
O583   O     0.25000   0.90387   0.54759   0.00000  Uiso   1.00
O584   O     0.25000   0.76280   0.45241   0.00000  Uiso   1.00
H585   H     0.46119   0.73902   0.40885   0.00000  Uiso   1.00
H586   H     0.03765   0.95993   0.52599   0.00000  Uiso   1.00
H587   H     0.45980   0.96055   0.52337   0.00000  Uiso   1.00
H588   H     0.04013   0.73944   0.40805   0.00000  Uiso   1.00
C589   C     0.25056   0.73998   0.49987   0.00000  Uiso   1.00
C590   C     0.25013   0.92668   0.50009   0.00000  Uiso   1.00
O591   O     0.18513   0.83333   0.54760   0.00000  Uiso   1.00
O592   O     0.31487   0.83333   0.45240   0.00000  Uiso   1.00
O593   O     0.31487   0.83333   0.54760   0.00000  Uiso   1.00
O594   O     0.18513   0.83333   0.45240   0.00000  Uiso   1.00
C595   C     0.16416   0.83588   0.50018   0.00000  Uiso   1.00
C596   C     0.33577   0.83568   0.50018   0.00000  Uiso   1.00
Cu597  Cu    0.25000   0.83333   0.55636   0.00000  Uiso   1.00
Cu598  Cu    0.25000   0.83333   0.44364   0.00000  Uiso   1.00
N599   N     0.25000   0.83333   0.35894   0.00000  Uiso   1.00
N600   N     0.25000   0.83333   0.64106   0.00000  Uiso   1.00
C601   C     0.40654   0.87936   0.52013   0.00000  Uiso   1.00
C602   C     0.09282   0.79722   0.47518   0.00000  Uiso   1.00
C603   C     0.40776   0.79673   0.47666   0.00000  Uiso   1.00
C604   C     0.09233   0.87855   0.52184   0.00000  Uiso   1.00
C605   C     0.38420   0.83699   0.50032   0.00000  Uiso   1.00
C606   C     0.11561   0.83691   0.50031   0.00000  Uiso   1.00
C607   C     0.45360   0.80066   0.46746   0.00000  Uiso   1.00
C608   C     0.04618   0.88190   0.51206   0.00000  Uiso   1.00
C609   C     0.45268   0.88227   0.51099   0.00000  Uiso   1.00
C610   C     0.04680   0.80100   0.46673   0.00000  Uiso   1.00
C611   C     0.47635   0.84153   0.48909   0.00000  Uiso   1.00
C612   C     0.02329   0.84154   0.48912   0.00000  Uiso   1.00
C613   C     0.47751   0.76592   0.43522   0.00000  Uiso   1.00
C614   C     0.02197   0.92526   0.52093   0.00000  Uiso   1.00
C615   C     0.47613   0.92558   0.51974   0.00000  Uiso   1.00
C616   C     0.02340   0.76623   0.43466   0.00000  Uiso   1.00
C617   C     0.25051   0.68841   0.49979   0.00000  Uiso   1.00
C618   C     0.25034   0.97823   0.50008   0.00000  Uiso   1.00
S619   S     0.37708   0.92687   0.55855   0.00000  Uiso   1.00
O620   O     0.35202   0.95696   0.51562   0.00000  Uiso   1.00
O621   O     0.34470   0.90601   0.60036   0.00000  Uiso   1.00
O622   O     0.40990   0.96391   0.59713   0.00000  Uiso   1.00
H623   H     0.42282   0.94278   0.62729   0.00000  Uiso   1.00
S624   S     0.12091   0.74005   0.46431   0.00000  Uiso   1.00
O625   O     0.14195   0.73940   0.40596   0.00000  Uiso   1.00
O626   O     0.15602   0.73330   0.50909   0.00000  Uiso   1.00
O627   O     0.08649   0.69255   0.46976   0.00000  Uiso   1.00
H628   H     0.07213   0.69747   0.50752   0.00000  Uiso   1.00
S629   S     0.38061   0.73921   0.46914   0.00000  Uiso   1.00
O630   O     0.35455   0.73875   0.41429   0.00000  Uiso   1.00
O631   O     0.41244   0.69670   0.46894   0.00000  Uiso   1.00
O632   O     0.34597   0.73173   0.52462   0.00000  Uiso   1.00
H633   H     0.36520   0.73154   0.55901   0.00000  Uiso   1.00
S634   S     0.12079   0.92337   0.56464   0.00000  Uiso   1.00
O635   O     0.15070   0.95180   0.52605   0.00000  Uiso   1.00
O636   O     0.09030   0.95827   0.59555   0.00000  Uiso   1.00
O637   O     0.15123   0.89589   0.61568   0.00000  Uiso   1.00
H638   H     0.17151   0.92142   0.63002   0.00000  Uiso   1.00
O639   O     0.75000   0.76280   0.54759   0.00000  Uiso   1.00
O640   O     0.75000   0.90387   0.45241   0.00000  Uiso   1.00
O641   O     0.75000   0.90387   0.54759   0.00000  Uiso   1.00
O642   O     0.75000   0.76280   0.45241   0.00000  Uiso   1.00
H643   H     0.96119   0.73902   0.40885   0.00000  Uiso   1.00
H644   H     0.53765   0.95993   0.52599   0.00000  Uiso   1.00
H645   H     0.95980   0.96055   0.52337   0.00000  Uiso   1.00
H646   H     0.54013   0.73944   0.40805   0.00000  Uiso   1.00
C647   C     0.75056   0.73998   0.49987   0.00000  Uiso   1.00
C648   C     0.75013   0.92668   0.50009   0.00000  Uiso   1.00
O649   O     0.68513   0.83333   0.54760   0.00000  Uiso   1.00
O650   O     0.81487   0.83333   0.45240   0.00000  Uiso   1.00
O651   O     0.81487   0.83333   0.54760   0.00000  Uiso   1.00
O652   O     0.68513   0.83333   0.45240   0.00000  Uiso   1.00
C653   C     0.66416   0.83588   0.50018   0.00000  Uiso   1.00
C654   C     0.83577   0.83568   0.50018   0.00000  Uiso   1.00
Cu655  Cu    0.75000   0.83333   0.55636   0.00000  Uiso   1.00
Cu656  Cu    0.75000   0.83333   0.44364   0.00000  Uiso   1.00
N657   N     0.75000   0.83333   0.35894   0.00000  Uiso   1.00
N658   N     0.75000   0.83333   0.64106   0.00000  Uiso   1.00
C659   C     0.90654   0.87936   0.52013   0.00000  Uiso   1.00
C660   C     0.59282   0.79722   0.47518   0.00000  Uiso   1.00
C661   C     0.90776   0.79673   0.47666   0.00000  Uiso   1.00
C662   C     0.59233   0.87855   0.52184   0.00000  Uiso   1.00
C663   C     0.88420   0.83699   0.50032   0.00000  Uiso   1.00
C664   C     0.61561   0.83691   0.50031   0.00000  Uiso   1.00
C665   C     0.95360   0.80066   0.46746   0.00000  Uiso   1.00
C666   C     0.54618   0.88190   0.51206   0.00000  Uiso   1.00
C667   C     0.95268   0.88227   0.51099   0.00000  Uiso   1.00
C668   C     0.54680   0.80100   0.46673   0.00000  Uiso   1.00
C669   C     0.97635   0.84153   0.48909   0.00000  Uiso   1.00
C670   C     0.52329   0.84154   0.48912   0.00000  Uiso   1.00
C671   C     0.97751   0.76592   0.43522   0.00000  Uiso   1.00
C672   C     0.52197   0.92526   0.52093   0.00000  Uiso   1.00
C673   C     0.97613   0.92558   0.51974   0.00000  Uiso   1.00
C674   C     0.52340   0.76623   0.43466   0.00000  Uiso   1.00
C675   C     0.75051   0.68841   0.49979   0.00000  Uiso   1.00
C676   C     0.75034   0.97823   0.50008   0.00000  Uiso   1.00
S677   S     0.87708   0.92687   0.55855   0.00000  Uiso   1.00
O678   O     0.85202   0.95696   0.51562   0.00000  Uiso   1.00
O679   O     0.84470   0.90601   0.60036   0.00000  Uiso   1.00
O680   O     0.90990   0.96391   0.59713   0.00000  Uiso   1.00
H681   H     0.92282   0.94278   0.62729   0.00000  Uiso   1.00
S682   S     0.62091   0.74005   0.46431   0.00000  Uiso   1.00
O683   O     0.64195   0.73940   0.40596   0.00000  Uiso   1.00
O684   O     0.65602   0.73330   0.50909   0.00000  Uiso   1.00
O685   O     0.58649   0.69255   0.46976   0.00000  Uiso   1.00
H686   H     0.57213   0.69747   0.50752   0.00000  Uiso   1.00
S687   S     0.88061   0.73921   0.46914   0.00000  Uiso   1.00
O688   O     0.85455   0.73875   0.41429   0.00000  Uiso   1.00
O689   O     0.91244   0.69670   0.46894   0.00000  Uiso   1.00
O690   O     0.84597   0.73173   0.52462   0.00000  Uiso   1.00
H691   H     0.86520   0.73154   0.55901   0.00000  Uiso   1.00
S692   S     0.62079   0.92337   0.56464   0.00000  Uiso   1.00
O693   O     0.65070   0.95180   0.52605   0.00000  Uiso   1.00
O694   O     0.59030   0.95827   0.59555   0.00000  Uiso   1.00
O695   O     0.65123   0.89589   0.61568   0.00000  Uiso   1.00
H696   H     0.67151   0.92142   0.63002   0.00000  Uiso   1.00
O697   O     0.25000   0.09613   0.88092   0.00000  Uiso   1.00
O698   O     0.25000   0.23720   0.78575   0.00000  Uiso   1.00
O699   O     0.25000   0.23720   0.88092   0.00000  Uiso   1.00
O700   O     0.25000   0.09613   0.78575   0.00000  Uiso   1.00
H701   H     0.46119   0.07235   0.74218   0.00000  Uiso   1.00
H702   H     0.03765   0.29326   0.85932   0.00000  Uiso   1.00
H703   H     0.45980   0.29389   0.85670   0.00000  Uiso   1.00
H704   H     0.04013   0.07278   0.74138   0.00000  Uiso   1.00
C705   C     0.25056   0.07331   0.83321   0.00000  Uiso   1.00
C706   C     0.25013   0.26001   0.83342   0.00000  Uiso   1.00
O707   O     0.18513   0.16667   0.88093   0.00000  Uiso   1.00
O708   O     0.31487   0.16667   0.78573   0.00000  Uiso   1.00
O709   O     0.31487   0.16667   0.88093   0.00000  Uiso   1.00
O710   O     0.18513   0.16667   0.78573   0.00000  Uiso   1.00
C711   C     0.16416   0.16922   0.83351   0.00000  Uiso   1.00
C712   C     0.33577   0.16902   0.83351   0.00000  Uiso   1.00
Cu713  Cu    0.25000   0.16667   0.88969   0.00000  Uiso   1.00
Cu714  Cu    0.25000   0.16667   0.77697   0.00000  Uiso   1.00
N715   N     0.25000   0.16667   0.69227   0.00000  Uiso   1.00
N716   N     0.25000   0.16667   0.97439   0.00000  Uiso   1.00
C717   C     0.40654   0.21269   0.85346   0.00000  Uiso   1.00
C718   C     0.09282   0.13055   0.80851   0.00000  Uiso   1.00
C719   C     0.40776   0.13006   0.80999   0.00000  Uiso   1.00
C720   C     0.09233   0.21188   0.85518   0.00000  Uiso   1.00
C721   C     0.38420   0.17033   0.83365   0.00000  Uiso   1.00
C722   C     0.11561   0.17025   0.83364   0.00000  Uiso   1.00
C723   C     0.45360   0.13400   0.80079   0.00000  Uiso   1.00
C724   C     0.04618   0.21523   0.84540   0.00000  Uiso   1.00
C725   C     0.45268   0.21561   0.84432   0.00000  Uiso   1.00
C726   C     0.04680   0.13434   0.80007   0.00000  Uiso   1.00
C727   C     0.47635   0.17486   0.82242   0.00000  Uiso   1.00
C728   C     0.02329   0.17487   0.82246   0.00000  Uiso   1.00
C729   C     0.47751   0.09926   0.76855   0.00000  Uiso   1.00
C730   C     0.02197   0.25859   0.85426   0.00000  Uiso   1.00
C731   C     0.47613   0.25892   0.85308   0.00000  Uiso   1.00
C732   C     0.02340   0.09956   0.76799   0.00000  Uiso   1.00
C733   C     0.25051   0.02175   0.83313   0.00000  Uiso   1.00
C734   C     0.25034   0.31156   0.83341   0.00000  Uiso   1.00
S735   S     0.37708   0.26020   0.89188   0.00000  Uiso   1.00
O736   O     0.35202   0.29029   0.84896   0.00000  Uiso   1.00
O737   O     0.34470   0.23935   0.93370   0.00000  Uiso   1.00
O738   O     0.40990   0.29725   0.93046   0.00000  Uiso   1.00
H739   H     0.42282   0.27612   0.96062   0.00000  Uiso   1.00
S740   S     0.12091   0.07338   0.79764   0.00000  Uiso   1.00
O741   O     0.14195   0.07274   0.73929   0.00000  Uiso   1.00
O742   O     0.15602   0.06663   0.84242   0.00000  Uiso   1.00
O743   O     0.08649   0.02588   0.80309   0.00000  Uiso   1.00
H744   H     0.07213   0.03080   0.84085   0.00000  Uiso   1.00
S745   S     0.38061   0.07254   0.80247   0.00000  Uiso   1.00
O746   O     0.35455   0.07208   0.74762   0.00000  Uiso   1.00
O747   O     0.41244   0.03003   0.80227   0.00000  Uiso   1.00
O748   O     0.34597   0.06506   0.85795   0.00000  Uiso   1.00
H749   H     0.36520   0.06487   0.89235   0.00000  Uiso   1.00
S750   S     0.12079   0.25671   0.89797   0.00000  Uiso   1.00
O751   O     0.15070   0.28513   0.85939   0.00000  Uiso   1.00
O752   O     0.09030   0.29161   0.92888   0.00000  Uiso   1.00
O753   O     0.15123   0.22922   0.94902   0.00000  Uiso   1.00
H754   H     0.17151   0.25475   0.96335   0.00000  Uiso   1.00
O755   O     0.75000   0.09613   0.88092   0.00000  Uiso   1.00
O756   O     0.75000   0.23720   0.78575   0.00000  Uiso   1.00
O757   O     0.75000   0.23720   0.88092   0.00000  Uiso   1.00
O758   O     0.75000   0.09613   0.78575   0.00000  Uiso   1.00
H759   H     0.96119   0.07235   0.74218   0.00000  Uiso   1.00
H760   H     0.53765   0.29326   0.85932   0.00000  Uiso   1.00
H761   H     0.95980   0.29389   0.85670   0.00000  Uiso   1.00
H762   H     0.54013   0.07278   0.74138   0.00000  Uiso   1.00
C763   C     0.75056   0.07331   0.83321   0.00000  Uiso   1.00
C764   C     0.75013   0.26001   0.83342   0.00000  Uiso   1.00
O765   O     0.68513   0.16667   0.88093   0.00000  Uiso   1.00
O766   O     0.81487   0.16667   0.78573   0.00000  Uiso   1.00
O767   O     0.81487   0.16667   0.88093   0.00000  Uiso   1.00
O768   O     0.68513   0.16667   0.78573   0.00000  Uiso   1.00
C769   C     0.66416   0.16922   0.83351   0.00000  Uiso   1.00
C770   C     0.83577   0.16902   0.83351   0.00000  Uiso   1.00
Cu771  Cu    0.75000   0.16667   0.88969   0.00000  Uiso   1.00
Cu772  Cu    0.75000   0.16667   0.77697   0.00000  Uiso   1.00
N773   N     0.75000   0.16667   0.69227   0.00000  Uiso   1.00
N774   N     0.75000   0.16667   0.97439   0.00000  Uiso   1.00
C775   C     0.90654   0.21269   0.85346   0.00000  Uiso   1.00
C776   C     0.59282   0.13055   0.80851   0.00000  Uiso   1.00
C777   C     0.90776   0.13006   0.80999   0.00000  Uiso   1.00
C778   C     0.59233   0.21188   0.85518   0.00000  Uiso   1.00
C779   C     0.88420   0.17033   0.83365   0.00000  Uiso   1.00
C780   C     0.61561   0.17025   0.83364   0.00000  Uiso   1.00
C781   C     0.95360   0.13400   0.80079   0.00000  Uiso   1.00
C782   C     0.54618   0.21523   0.84540   0.00000  Uiso   1.00
C783   C     0.95268   0.21561   0.84432   0.00000  Uiso   1.00
C784   C     0.54680   0.13434   0.80007   0.00000  Uiso   1.00
C785   C     0.97635   0.17486   0.82242   0.00000  Uiso   1.00
C786   C     0.52329   0.17487   0.82246   0.00000  Uiso   1.00
C787   C     0.97751   0.09926   0.76855   0.00000  Uiso   1.00
C788   C     0.52197   0.25859   0.85426   0.00000  Uiso   1.00
C789   C     0.97613   0.25892   0.85308   0.00000  Uiso   1.00
C790   C     0.52340   0.09956   0.76799   0.00000  Uiso   1.00
C791   C     0.75051   0.02175   0.83313   0.00000  Uiso   1.00
C792   C     0.75034   0.31156   0.83341   0.00000  Uiso   1.00
S793   S     0.87708   0.26020   0.89188   0.00000  Uiso   1.00
O794   O     0.85202   0.29029   0.84896   0.00000  Uiso   1.00
O795   O     0.84470   0.23935   0.93370   0.00000  Uiso   1.00
O796   O     0.90990   0.29725   0.93046   0.00000  Uiso   1.00
H797   H     0.92282   0.27612   0.96062   0.00000  Uiso   1.00
S798   S     0.62091   0.07338   0.79764   0.00000  Uiso   1.00
O799   O     0.64195   0.07274   0.73929   0.00000  Uiso   1.00
O800   O     0.65602   0.06663   0.84242   0.00000  Uiso   1.00
O801   O     0.58649   0.02588   0.80309   0.00000  Uiso   1.00
H802   H     0.57213   0.03080   0.84085   0.00000  Uiso   1.00
S803   S     0.88061   0.07254   0.80247   0.00000  Uiso   1.00
O804   O     0.85455   0.07208   0.74762   0.00000  Uiso   1.00
O805   O     0.91244   0.03003   0.80227   0.00000  Uiso   1.00
O806   O     0.84597   0.06506   0.85795   0.00000  Uiso   1.00
H807   H     0.86520   0.06487   0.89235   0.00000  Uiso   1.00
S808   S     0.62079   0.25671   0.89797   0.00000  Uiso   1.00
O809   O     0.65070   0.28513   0.85939   0.00000  Uiso   1.00
O810   O     0.59030   0.29161   0.92888   0.00000  Uiso   1.00
O811   O     0.65123   0.22922   0.94902   0.00000  Uiso   1.00
H812   H     0.67151   0.25475   0.96335   0.00000  Uiso   1.00
O813   O     0.25000   0.42946   0.88092   0.00000  Uiso   1.00
O814   O     0.25000   0.57054   0.78575   0.00000  Uiso   1.00
O815   O     0.25000   0.57054   0.88092   0.00000  Uiso   1.00
O816   O     0.25000   0.42946   0.78575   0.00000  Uiso   1.00
H817   H     0.46119   0.40568   0.74218   0.00000  Uiso   1.00
H818   H     0.03765   0.62659   0.85932   0.00000  Uiso   1.00
H819   H     0.45980   0.62722   0.85670   0.00000  Uiso   1.00
H820   H     0.04013   0.40611   0.74138   0.00000  Uiso   1.00
C821   C     0.25056   0.40665   0.83321   0.00000  Uiso   1.00
C822   C     0.25013   0.59335   0.83342   0.00000  Uiso   1.00
O823   O     0.18513   0.50000   0.88093   0.00000  Uiso   1.00
O824   O     0.31487   0.50000   0.78573   0.00000  Uiso   1.00
O825   O     0.31487   0.50000   0.88093   0.00000  Uiso   1.00
O826   O     0.18513   0.50000   0.78573   0.00000  Uiso   1.00
C827   C     0.16416   0.50255   0.83351   0.00000  Uiso   1.00
C828   C     0.33577   0.50235   0.83351   0.00000  Uiso   1.00
Cu829  Cu    0.25000   0.50000   0.88969   0.00000  Uiso   1.00
Cu830  Cu    0.25000   0.50000   0.77697   0.00000  Uiso   1.00
N831   N     0.25000   0.50000   0.69227   0.00000  Uiso   1.00
N832   N     0.25000   0.50000   0.97439   0.00000  Uiso   1.00
C833   C     0.40654   0.54603   0.85346   0.00000  Uiso   1.00
C834   C     0.09282   0.46389   0.80851   0.00000  Uiso   1.00
C835   C     0.40776   0.46339   0.80999   0.00000  Uiso   1.00
C836   C     0.09233   0.54521   0.85518   0.00000  Uiso   1.00
C837   C     0.38420   0.50366   0.83365   0.00000  Uiso   1.00
C838   C     0.11561   0.50358   0.83364   0.00000  Uiso   1.00
C839   C     0.45360   0.46733   0.80079   0.00000  Uiso   1.00
C840   C     0.04618   0.54857   0.84540   0.00000  Uiso   1.00
C841   C     0.45268   0.54894   0.84432   0.00000  Uiso   1.00
C842   C     0.04680   0.46767   0.80007   0.00000  Uiso   1.00
C843   C     0.47635   0.50819   0.82242   0.00000  Uiso   1.00
C844   C     0.02329   0.50820   0.82246   0.00000  Uiso   1.00
C845   C     0.47751   0.43259   0.76855   0.00000  Uiso   1.00
C846   C     0.02197   0.59193   0.85426   0.00000  Uiso   1.00
C847   C     0.47613   0.59225   0.85308   0.00000  Uiso   1.00
C848   C     0.02340   0.43290   0.76799   0.00000  Uiso   1.00
C849   C     0.25051   0.35508   0.83313   0.00000  Uiso   1.00
C850   C     0.25034   0.64489   0.83341   0.00000  Uiso   1.00
S851   S     0.37708   0.59353   0.89188   0.00000  Uiso   1.00
O852   O     0.35202   0.62362   0.84896   0.00000  Uiso   1.00
O853   O     0.34470   0.57268   0.93370   0.00000  Uiso   1.00
O854   O     0.40990   0.63058   0.93046   0.00000  Uiso   1.00
H855   H     0.42282   0.60945   0.96062   0.00000  Uiso   1.00
S856   S     0.12091   0.40671   0.79764   0.00000  Uiso   1.00
O857   O     0.14195   0.40607   0.73929   0.00000  Uiso   1.00
O858   O     0.15602   0.39996   0.84242   0.00000  Uiso   1.00
O859   O     0.08649   0.35921   0.80309   0.00000  Uiso   1.00
H860   H     0.07213   0.36414   0.84085   0.00000  Uiso   1.00
S861   S     0.38061   0.40587   0.80247   0.00000  Uiso   1.00
O862   O     0.35455   0.40542   0.74762   0.00000  Uiso   1.00
O863   O     0.41244   0.36336   0.80227   0.00000  Uiso   1.00
O864   O     0.34597   0.39840   0.85795   0.00000  Uiso   1.00
H865   H     0.36520   0.39821   0.89235   0.00000  Uiso   1.00
S866   S     0.12079   0.59004   0.89797   0.00000  Uiso   1.00
O867   O     0.15070   0.61847   0.85939   0.00000  Uiso   1.00
O868   O     0.09030   0.62494   0.92888   0.00000  Uiso   1.00
O869   O     0.15123   0.56256   0.94902   0.00000  Uiso   1.00
H870   H     0.17151   0.58809   0.96335   0.00000  Uiso   1.00
O871   O     0.75000   0.42946   0.88092   0.00000  Uiso   1.00
O872   O     0.75000   0.57054   0.78575   0.00000  Uiso   1.00
O873   O     0.75000   0.57054   0.88092   0.00000  Uiso   1.00
O874   O     0.75000   0.42946   0.78575   0.00000  Uiso   1.00
H875   H     0.96119   0.40568   0.74218   0.00000  Uiso   1.00
H876   H     0.53765   0.62659   0.85932   0.00000  Uiso   1.00
H877   H     0.95980   0.62722   0.85670   0.00000  Uiso   1.00
H878   H     0.54013   0.40611   0.74138   0.00000  Uiso   1.00
C879   C     0.75056   0.40665   0.83321   0.00000  Uiso   1.00
C880   C     0.75013   0.59335   0.83342   0.00000  Uiso   1.00
O881   O     0.68513   0.50000   0.88093   0.00000  Uiso   1.00
O882   O     0.81487   0.50000   0.78573   0.00000  Uiso   1.00
O883   O     0.81487   0.50000   0.88093   0.00000  Uiso   1.00
O884   O     0.68513   0.50000   0.78573   0.00000  Uiso   1.00
C885   C     0.66416   0.50255   0.83351   0.00000  Uiso   1.00
C886   C     0.83577   0.50235   0.83351   0.00000  Uiso   1.00
Cu887  Cu    0.75000   0.50000   0.88969   0.00000  Uiso   1.00
Cu888  Cu    0.75000   0.50000   0.77697   0.00000  Uiso   1.00
N889   N     0.75000   0.50000   0.69227   0.00000  Uiso   1.00
N890   N     0.75000   0.50000   0.97439   0.00000  Uiso   1.00
C891   C     0.90654   0.54603   0.85346   0.00000  Uiso   1.00
C892   C     0.59282   0.46389   0.80851   0.00000  Uiso   1.00
C893   C     0.90776   0.46339   0.80999   0.00000  Uiso   1.00
C894   C     0.59233   0.54521   0.85518   0.00000  Uiso   1.00
C895   C     0.88420   0.50366   0.83365   0.00000  Uiso   1.00
C896   C     0.61561   0.50358   0.83364   0.00000  Uiso   1.00
C897   C     0.95360   0.46733   0.80079   0.00000  Uiso   1.00
C898   C     0.54618   0.54857   0.84540   0.00000  Uiso   1.00
C899   C     0.95268   0.54894   0.84432   0.00000  Uiso   1.00
C900   C     0.54680   0.46767   0.80007   0.00000  Uiso   1.00
C901   C     0.97635   0.50819   0.82242   0.00000  Uiso   1.00
C902   C     0.52329   0.50820   0.82246   0.00000  Uiso   1.00
C903   C     0.97751   0.43259   0.76855   0.00000  Uiso   1.00
C904   C     0.52197   0.59193   0.85426   0.00000  Uiso   1.00
C905   C     0.97613   0.59225   0.85308   0.00000  Uiso   1.00
C906   C     0.52340   0.43290   0.76799   0.00000  Uiso   1.00
C907   C     0.75051   0.35508   0.83313   0.00000  Uiso   1.00
C908   C     0.75034   0.64489   0.83341   0.00000  Uiso   1.00
S909   S     0.87708   0.59353   0.89188   0.00000  Uiso   1.00
O910   O     0.85202   0.62362   0.84896   0.00000  Uiso   1.00
O911   O     0.84470   0.57268   0.93370   0.00000  Uiso   1.00
O912   O     0.90990   0.63058   0.93046   0.00000  Uiso   1.00
H913   H     0.92282   0.60945   0.96062   0.00000  Uiso   1.00
S914   S     0.62091   0.40671   0.79764   0.00000  Uiso   1.00
O915   O     0.64195   0.40607   0.73929   0.00000  Uiso   1.00
O916   O     0.65602   0.39996   0.84242   0.00000  Uiso   1.00
O917   O     0.58649   0.35921   0.80309   0.00000  Uiso   1.00
H918   H     0.57213   0.36414   0.84085   0.00000  Uiso   1.00
S919   S     0.88061   0.40587   0.80247   0.00000  Uiso   1.00
O920   O     0.85455   0.40542   0.74762   0.00000  Uiso   1.00
O921   O     0.91244   0.36336   0.80227   0.00000  Uiso   1.00
O922   O     0.84597   0.39840   0.85795   0.00000  Uiso   1.00
H923   H     0.86520   0.39821   0.89235   0.00000  Uiso   1.00
S924   S     0.62079   0.59004   0.89797   0.00000  Uiso   1.00
O925   O     0.65070   0.61847   0.85939   0.00000  Uiso   1.00
O926   O     0.59030   0.62494   0.92888   0.00000  Uiso   1.00
O927   O     0.65123   0.56256   0.94902   0.00000  Uiso   1.00
H928   H     0.67151   0.58809   0.96335   0.00000  Uiso   1.00
O929   O     0.25000   0.76280   0.88092   0.00000  Uiso   1.00
O930   O     0.25000   0.90387   0.78575   0.00000  Uiso   1.00
O931   O     0.25000   0.90387   0.88092   0.00000  Uiso   1.00
O932   O     0.25000   0.76280   0.78575   0.00000  Uiso   1.00
H933   H     0.46119   0.73902   0.74218   0.00000  Uiso   1.00
H934   H     0.03765   0.95993   0.85932   0.00000  Uiso   1.00
H935   H     0.45980   0.96055   0.85670   0.00000  Uiso   1.00
H936   H     0.04013   0.73944   0.74138   0.00000  Uiso   1.00
C937   C     0.25056   0.73998   0.83321   0.00000  Uiso   1.00
C938   C     0.25013   0.92668   0.83342   0.00000  Uiso   1.00
O939   O     0.18513   0.83333   0.88093   0.00000  Uiso   1.00
O940   O     0.31487   0.83333   0.78573   0.00000  Uiso   1.00
O941   O     0.31487   0.83333   0.88093   0.00000  Uiso   1.00
O942   O     0.18513   0.83333   0.78573   0.00000  Uiso   1.00
C943   C     0.16416   0.83588   0.83351   0.00000  Uiso   1.00
C944   C     0.33577   0.83568   0.83351   0.00000  Uiso   1.00
Cu945  Cu    0.25000   0.83333   0.88969   0.00000  Uiso   1.00
Cu946  Cu    0.25000   0.83333   0.77697   0.00000  Uiso   1.00
N947   N     0.25000   0.83333   0.69227   0.00000  Uiso   1.00
N948   N     0.25000   0.83333   0.97439   0.00000  Uiso   1.00
C949   C     0.40654   0.87936   0.85346   0.00000  Uiso   1.00
C950   C     0.09282   0.79722   0.80851   0.00000  Uiso   1.00
C951   C     0.40776   0.79673   0.80999   0.00000  Uiso   1.00
C952   C     0.09233   0.87855   0.85518   0.00000  Uiso   1.00
C953   C     0.38420   0.83699   0.83365   0.00000  Uiso   1.00
C954   C     0.11561   0.83691   0.83364   0.00000  Uiso   1.00
C955   C     0.45360   0.80066   0.80079   0.00000  Uiso   1.00
C956   C     0.04618   0.88190   0.84540   0.00000  Uiso   1.00
C957   C     0.45268   0.88227   0.84432   0.00000  Uiso   1.00
C958   C     0.04680   0.80100   0.80007   0.00000  Uiso   1.00
C959   C     0.47635   0.84153   0.82242   0.00000  Uiso   1.00
C960   C     0.02329   0.84154   0.82246   0.00000  Uiso   1.00
C961   C     0.47751   0.76592   0.76855   0.00000  Uiso   1.00
C962   C     0.02197   0.92526   0.85426   0.00000  Uiso   1.00
C963   C     0.47613   0.92558   0.85308   0.00000  Uiso   1.00
C964   C     0.02340   0.76623   0.76799   0.00000  Uiso   1.00
C965   C     0.25051   0.68841   0.83313   0.00000  Uiso   1.00
C966   C     0.25034   0.97823   0.83341   0.00000  Uiso   1.00
S967   S     0.37708   0.92687   0.89188   0.00000  Uiso   1.00
O968   O     0.35202   0.95696   0.84896   0.00000  Uiso   1.00
O969   O     0.34470   0.90601   0.93370   0.00000  Uiso   1.00
O970   O     0.40990   0.96391   0.93046   0.00000  Uiso   1.00
H971   H     0.42282   0.94278   0.96062   0.00000  Uiso   1.00
S972   S     0.12091   0.74005   0.79764   0.00000  Uiso   1.00
O973   O     0.14195   0.73940   0.73929   0.00000  Uiso   1.00
O974   O     0.15602   0.73330   0.84242   0.00000  Uiso   1.00
O975   O     0.08649   0.69255   0.80309   0.00000  Uiso   1.00
H976   H     0.07213   0.69747   0.84085   0.00000  Uiso   1.00
S977   S     0.38061   0.73921   0.80247   0.00000  Uiso   1.00
O978   O     0.35455   0.73875   0.74762   0.00000  Uiso   1.00
O979   O     0.41244   0.69670   0.80227   0.00000  Uiso   1.00
O980   O     0.34597   0.73173   0.85795   0.00000  Uiso   1.00
H981   H     0.36520   0.73154   0.89235   0.00000  Uiso   1.00
S982   S     0.12079   0.92337   0.89797   0.00000  Uiso   1.00
O983   O     0.15070   0.95180   0.85939   0.00000  Uiso   1.00
O984   O     0.09030   0.95827   0.92888   0.00000  Uiso   1.00
O985   O     0.15123   0.89589   0.94902   0.00000  Uiso   1.00
H986   H     0.17151   0.92142   0.96335   0.00000  Uiso   1.00
O987   O     0.75000   0.76280   0.88092   0.00000  Uiso   1.00
O988   O     0.75000   0.90387   0.78575   0.00000  Uiso   1.00
O989   O     0.75000   0.90387   0.88092   0.00000  Uiso   1.00
O990   O     0.75000   0.76280   0.78575   0.00000  Uiso   1.00
H991   H     0.96119   0.73902   0.74218   0.00000  Uiso   1.00
H992   H     0.53765   0.95993   0.85932   0.00000  Uiso   1.00
H993   H     0.95980   0.96055   0.85670   0.00000  Uiso   1.00
H994   H     0.54013   0.73944   0.74138   0.00000  Uiso   1.00
C995   C     0.75056   0.73998   0.83321   0.00000  Uiso   1.00
C996   C     0.75013   0.92668   0.83342   0.00000  Uiso   1.00
O997   O     0.68513   0.83333   0.88093   0.00000  Uiso   1.00
O998   O     0.81487   0.83333   0.78573   0.00000  Uiso   1.00
O999   O     0.81487   0.83333   0.88093   0.00000  Uiso   1.00
O1000  O     0.68513   0.83333   0.78573   0.00000  Uiso   1.00
C1001  C     0.66416   0.83588   0.83351   0.00000  Uiso   1.00
C1002  C     0.83577   0.83568   0.83351   0.00000  Uiso   1.00
Cu1003 Cu    0.75000   0.83333   0.88969   0.00000  Uiso   1.00
Cu1004 Cu    0.75000   0.83333   0.77697   0.00000  Uiso   1.00
N1005  N     0.75000   0.83333   0.69227   0.00000  Uiso   1.00
N1006  N     0.75000   0.83333   0.97439   0.00000  Uiso   1.00
C1007  C     0.90654   0.87936   0.85346   0.00000  Uiso   1.00
C1008  C     0.59282   0.79722   0.80851   0.00000  Uiso   1.00
C1009  C     0.90776   0.79673   0.80999   0.00000  Uiso   1.00
C1010  C     0.59233   0.87855   0.85518   0.00000  Uiso   1.00
C1011  C     0.88420   0.83699   0.83365   0.00000  Uiso   1.00
C1012  C     0.61561   0.83691   0.83364   0.00000  Uiso   1.00
C1013  C     0.95360   0.80066   0.80079   0.00000  Uiso   1.00
C1014  C     0.54618   0.88190   0.84540   0.00000  Uiso   1.00
C1015  C     0.95268   0.88227   0.84432   0.00000  Uiso   1.00
C1016  C     0.54680   0.80100   0.80007   0.00000  Uiso   1.00
C1017  C     0.97635   0.84153   0.82242   0.00000  Uiso   1.00
C1018  C     0.52329   0.84154   0.82246   0.00000  Uiso   1.00
C1019  C     0.97751   0.76592   0.76855   0.00000  Uiso   1.00
C1020  C     0.52197   0.92526   0.85426   0.00000  Uiso   1.00
C1021  C     0.97613   0.92558   0.85308   0.00000  Uiso   1.00
C1022  C     0.52340   0.76623   0.76799   0.00000  Uiso   1.00
C1023  C     0.75051   0.68841   0.83313   0.00000  Uiso   1.00
C1024  C     0.75034   0.97823   0.83341   0.00000  Uiso   1.00
S1025  S     0.87708   0.92687   0.89188   0.00000  Uiso   1.00
O1026  O     0.85202   0.95696   0.84896   0.00000  Uiso   1.00
O1027  O     0.84470   0.90601   0.93370   0.00000  Uiso   1.00
O1028  O     0.90990   0.96391   0.93046   0.00000  Uiso   1.00
H1029  H     0.92282   0.94278   0.96062   0.00000  Uiso   1.00
S1030  S     0.62091   0.74005   0.79764   0.00000  Uiso   1.00
O1031  O     0.64195   0.73940   0.73929   0.00000  Uiso   1.00
O1032  O     0.65602   0.73330   0.84242   0.00000  Uiso   1.00
O1033  O     0.58649   0.69255   0.80309   0.00000  Uiso   1.00
H1034  H     0.57213   0.69747   0.84085   0.00000  Uiso   1.00
S1035  S     0.88061   0.73921   0.80247   0.00000  Uiso   1.00
O1036  O     0.85455   0.73875   0.74762   0.00000  Uiso   1.00
O1037  O     0.91244   0.69670   0.80227   0.00000  Uiso   1.00
O1038  O     0.84597   0.73173   0.85795   0.00000  Uiso   1.00
H1039  H     0.86520   0.73154   0.89235   0.00000  Uiso   1.00
S1040  S     0.62079   0.92337   0.89797   0.00000  Uiso   1.00
O1041  O     0.65070   0.95180   0.85939   0.00000  Uiso   1.00
O1042  O     0.59030   0.95827   0.92888   0.00000  Uiso   1.00
O1043  O     0.65123   0.89589   0.94902   0.00000  Uiso   1.00
H1044  H     0.67151   0.92142   0.96335   0.00000  Uiso   1.00
loop_
_geom_bond_atom_site_label_1
_geom_bond_atom_site_label_2
_geom_bond_distance
_geom_bond_site_symmetry_2
_ccdc_geom_bond_type
O1     Cu17    1.940   .     S
O1     C9      1.273   .     A
O2     Cu18    1.940   .     S
O2     C10     1.272   .     A
O3     C10     1.275   .     A
O3     Cu17    1.942   .     S
O4     Cu18    1.942   .     S
O4     C9      1.274   .     A
H5     C33     1.080   .     S
H6     C34     1.071   .     S
H7     C35     1.075   .     S
H8     C36     1.080   .     S
C9     C37     1.411   .     S
C10    C38     1.411   .     S
O11    Cu17    1.972   .     S
O11    C15     1.277   .     A
O12    C16     1.283   .     A
O12    Cu18    1.972   .     S
O13    Cu17    1.972   .     S
O13    C16     1.276   .     A
O14    C15     1.284   .     A
O14    Cu18    1.972   .     S
C15    C26     1.468   .     S
C16    C25     1.465   .     S
Cu17   N20     1.976   .     S
Cu17   Cu18    2.629   .     S
Cu18   N19     1.976   .     S
N19    N716    1.195   1_554 S
N20    N367    1.195   .     S
C21    S39     1.803   .     S
C21    C29     1.414   .     A
C21    C25     1.422   .     A
C22    C26     1.416   .     A
C22    C30     1.408   .     A
C22    S44     1.790   .     S
C23    C27     1.408   .     A
C23    C25     1.416   .     A
C23    S49     1.790   .     S
C24    C28     1.416   .     A
C24    S54     1.802   .     S
C24    C26     1.422   .     A
C27    C33     1.404   .     A
C27    C31     1.409   .     A
C28    C34     1.402   .     A
C28    C32     1.412   .     A
C29    C35     1.401   .     A
C29    C31     1.412   .     A
C30    C36     1.404   .     A
C30    C32     1.409   .     A
C31    C90     1.419   .     S
C32    C89     1.419   1_455 S
C33    C94     1.387   .     S
C34    C93     1.386   1_455 S
C35    C92     1.386   .     S
C36    C91     1.387   1_455 S
C37    C270    1.191   1_545 S
C38    C153    1.191   .     S
S39    O42     1.683   .     S
S39    O40     1.500   .     D
S39    O41     1.501   .     D
O42    H43     0.991   .     S
S44    O47     1.678   .     S
S44    O46     1.500   .     D
S44    O45     1.502   .     D
O47    H48     0.990   .     S
S49    O52     1.680   .     S
S49    O50     1.502   .     D
S49    O51     1.502   .     D
O52    H53     0.991   .     S
S54    O56     1.502   .     D
S54    O55     1.502   .     D
S54    O57     1.681   .     S
O57    H58     0.991   .     S
O59    Cu75    1.940   .     S
O59    C67     1.273   .     A
O60    Cu76    1.940   .     S
O60    C68     1.272   .     A
O61    C68     1.275   .     A
O61    Cu75    1.942   .     S
O62    Cu76    1.942   .     S
O62    C67     1.274   .     A
H63    C91     1.080   .     S
H64    C92     1.071   .     S
H65    C93     1.075   .     S
H66    C94     1.080   .     S
C67    C95     1.411   .     S
C68    C96     1.411   .     S
O69    Cu75    1.972   .     S
O69    C73     1.277   .     A
O70    C74     1.283   .     A
O70    Cu76    1.972   .     S
O71    Cu75    1.972   .     S
O71    C74     1.276   .     A
O72    C73     1.284   .     A
O72    Cu76    1.972   .     S
C73    C84     1.468   .     S
C74    C83     1.465   .     S
Cu75   N78     1.976   .     S
Cu75   Cu76    2.629   .     S
Cu76   N77     1.976   .     S
N77    N774    1.195   1_554 S
N78    N425    1.195   .     S
C79    S97     1.803   .     S
C79    C87     1.414   .     A
C79    C83     1.422   .     A
C80    C84     1.416   .     A
C80    C88     1.408   .     A
C80    S102    1.790   .     S
C81    C85     1.408   .     A
C81    C83     1.416   .     A
C81    S107    1.790   .     S
C82    C86     1.416   .     A
C82    S112    1.802   .     S
C82    C84     1.422   .     A
C85    C91     1.404   .     A
C85    C89     1.409   .     A
C86    C92     1.402   .     A
C86    C90     1.412   .     A
C87    C93     1.401   .     A
C87    C89     1.412   .     A
C88    C94     1.404   .     A
C88    C90     1.409   .     A
C89    C32     1.419   1_655 S
C91    C36     1.387   1_655 S
C93    C34     1.386   1_655 S
C95    C328    1.191   1_545 S
C96    C211    1.191   .     S
S97    O100    1.683   .     S
S97    O98     1.500   .     D
S97    O99     1.501   .     D
O100   H101    0.991   .     S
S102   O105    1.678   .     S
S102   O104    1.500   .     D
S102   O103    1.502   .     D
O105   H106    0.990   .     S
S107   O110    1.680   .     S
S107   O108    1.502   .     D
S107   O109    1.502   .     D
O110   H111    0.991   .     S
S112   O114    1.502   .     D
S112   O113    1.502   .     D
S112   O115    1.681   .     S
O115   H116    0.991   .     S
O117   Cu133   1.940   .     S
O117   C125    1.273   .     A
O118   Cu134   1.940   .     S
O118   C126    1.272   .     A
O119   C126    1.275   .     A
O119   Cu133   1.942   .     S
O120   Cu134   1.942   .     S
O120   C125    1.274   .     A
H121   C149    1.080   .     S
H122   C150    1.071   .     S
H123   C151    1.075   .     S
H124   C152    1.080   .     S
C125   C153    1.411   .     S
C126   C154    1.411   .     S
O127   Cu133   1.972   .     S
O127   C131    1.277   .     A
O128   C132    1.283   .     A
O128   Cu134   1.972   .     S
O129   Cu133   1.972   .     S
O129   C132    1.276   .     A
O130   C131    1.284   .     A
O130   Cu134   1.972   .     S
C131   C142    1.468   .     S
C132   C141    1.465   .     S
Cu133  N136    1.976   .     S
Cu133  Cu134   2.629   .     S
Cu134  N135    1.976   .     S
N135   N832    1.195   1_554 S
N136   N483    1.195   .     S
C137   S155    1.803   .     S
C137   C145    1.414   .     A
C137   C141    1.422   .     A
C138   C142    1.416   .     A
C138   C146    1.408   .     A
C138   S160    1.790   .     S
C139   C143    1.408   .     A
C139   C141    1.416   .     A
C139   S165    1.790   .     S
C140   C144    1.416   .     A
C140   S170    1.802   .     S
C140   C142    1.422   .     A
C143   C149    1.404   .     A
C143   C147    1.409   .     A
C144   C150    1.402   .     A
C144   C148    1.412   .     A
C145   C151    1.401   .     A
C145   C147    1.412   .     A
C146   C152    1.404   .     A
C146   C148    1.409   .     A
C147   C206    1.419   .     S
C148   C205    1.419   1_455 S
C149   C210    1.387   .     S
C150   C209    1.386   1_455 S
C151   C208    1.386   .     S
C152   C207    1.387   1_455 S
C154   C269    1.191   .     S
S155   O158    1.683   .     S
S155   O156    1.500   .     D
S155   O157    1.501   .     D
O158   H159    0.991   .     S
S160   O163    1.678   .     S
S160   O162    1.500   .     D
S160   O161    1.502   .     D
O163   H164    0.990   .     S
S165   O168    1.680   .     S
S165   O166    1.502   .     D
S165   O167    1.502   .     D
O168   H169    0.991   .     S
S170   O172    1.502   .     D
S170   O171    1.502   .     D
S170   O173    1.681   .     S
O173   H174    0.991   .     S
O175   Cu191   1.940   .     S
O175   C183    1.273   .     A
O176   Cu192   1.940   .     S
O176   C184    1.272   .     A
O177   C184    1.275   .     A
O177   Cu191   1.942   .     S
O178   Cu192   1.942   .     S
O178   C183    1.274   .     A
H179   C207    1.080   .     S
H180   C208    1.071   .     S
H181   C209    1.075   .     S
H182   C210    1.080   .     S
C183   C211    1.411   .     S
C184   C212    1.411   .     S
O185   Cu191   1.972   .     S
O185   C189    1.277   .     A
O186   C190    1.283   .     A
O186   Cu192   1.972   .     S
O187   Cu191   1.972   .     S
O187   C190    1.276   .     A
O188   C189    1.284   .     A
O188   Cu192   1.972   .     S
C189   C200    1.468   .     S
C190   C199    1.465   .     S
Cu191  N194    1.976   .     S
Cu191  Cu192   2.629   .     S
Cu192  N193    1.976   .     S
N193   N890    1.195   1_554 S
N194   N541    1.195   .     S
C195   S213    1.803   .     S
C195   C203    1.414   .     A
C195   C199    1.422   .     A
C196   C200    1.416   .     A
C196   C204    1.408   .     A
C196   S218    1.790   .     S
C197   C201    1.408   .     A
C197   C199    1.416   .     A
C197   S223    1.790   .     S
C198   C202    1.416   .     A
C198   S228    1.802   .     S
C198   C200    1.422   .     A
C201   C207    1.404   .     A
C201   C205    1.409   .     A
C202   C208    1.402   .     A
C202   C206    1.412   .     A
C203   C209    1.401   .     A
C203   C205    1.412   .     A
C204   C210    1.404   .     A
C204   C206    1.409   .     A
C205   C148    1.419   1_655 S
C207   C152    1.387   1_655 S
C209   C150    1.386   1_655 S
C212   C327    1.191   .     S
S213   O216    1.683   .     S
S213   O214    1.500   .     D
S213   O215    1.501   .     D
O216   H217    0.991   .     S
S218   O221    1.678   .     S
S218   O220    1.500   .     D
S218   O219    1.502   .     D
O221   H222    0.990   .     S
S223   O226    1.680   .     S
S223   O224    1.502   .     D
S223   O225    1.502   .     D
O226   H227    0.991   .     S
S228   O230    1.502   .     D
S228   O229    1.502   .     D
S228   O231    1.681   .     S
O231   H232    0.991   .     S
O233   Cu249   1.940   .     S
O233   C241    1.273   .     A
O234   Cu250   1.940   .     S
O234   C242    1.272   .     A
O235   C242    1.275   .     A
O235   Cu249   1.942   .     S
O236   Cu250   1.942   .     S
O236   C241    1.274   .     A
H237   C265    1.080   .     S
H238   C266    1.071   .     S
H239   C267    1.075   .     S
H240   C268    1.080   .     S
C241   C269    1.411   .     S
C242   C270    1.411   .     S
O243   Cu249   1.972   .     S
O243   C247    1.277   .     A
O244   C248    1.283   .     A
O244   Cu250   1.972   .     S
O245   Cu249   1.972   .     S
O245   C248    1.276   .     A
O246   C247    1.284   .     A
O246   Cu250   1.972   .     S
C247   C258    1.468   .     S
C248   C257    1.465   .     S
Cu249  N252    1.976   .     S
Cu249  Cu250   2.629   .     S
Cu250  N251    1.976   .     S
N251   N948    1.195   1_554 S
N252   N599    1.195   .     S
C253   S271    1.803   .     S
C253   C261    1.414   .     A
C253   C257    1.422   .     A
C254   C258    1.416   .     A
C254   C262    1.408   .     A
C254   S276    1.790   .     S
C255   C259    1.408   .     A
C255   C257    1.416   .     A
C255   S281    1.790   .     S
C256   C260    1.416   .     A
C256   S286    1.802   .     S
C256   C258    1.422   .     A
C259   C265    1.404   .     A
C259   C263    1.409   .     A
C260   C266    1.402   .     A
C260   C264    1.412   .     A
C261   C267    1.401   .     A
C261   C263    1.412   .     A
C262   C268    1.404   .     A
C262   C264    1.409   .     A
C263   C322    1.419   .     S
C264   C321    1.419   1_455 S
C265   C326    1.387   .     S
C266   C325    1.386   1_455 S
C267   C324    1.386   .     S
C268   C323    1.387   1_455 S
C270   C37     1.191   1_565 S
S271   O274    1.683   .     S
S271   O272    1.500   .     D
S271   O273    1.501   .     D
O274   H275    0.991   .     S
S276   O279    1.678   .     S
S276   O278    1.500   .     D
S276   O277    1.502   .     D
O279   H280    0.990   .     S
S281   O284    1.680   .     S
S281   O282    1.502   .     D
S281   O283    1.502   .     D
O284   H285    0.991   .     S
S286   O288    1.502   .     D
S286   O287    1.502   .     D
S286   O289    1.681   .     S
O289   H290    0.991   .     S
O291   Cu307   1.940   .     S
O291   C299    1.273   .     A
O292   Cu308   1.940   .     S
O292   C300    1.272   .     A
O293   C300    1.275   .     A
O293   Cu307   1.942   .     S
O294   Cu308   1.942   .     S
O294   C299    1.274   .     A
H295   C323    1.080   .     S
H296   C324    1.071   .     S
H297   C325    1.075   .     S
H298   C326    1.080   .     S
C299   C327    1.411   .     S
C300   C328    1.411   .     S
O301   Cu307   1.972   .     S
O301   C305    1.277   .     A
O302   C306    1.283   .     A
O302   Cu308   1.972   .     S
O303   Cu307   1.972   .     S
O303   C306    1.276   .     A
O304   C305    1.284   .     A
O304   Cu308   1.972   .     S
C305   C316    1.468   .     S
C306   C315    1.465   .     S
Cu307  N310    1.976   .     S
Cu307  Cu308   2.629   .     S
Cu308  N309    1.976   .     S
N309   N1006   1.195   1_554 S
N310   N657    1.195   .     S
C311   S329    1.803   .     S
C311   C319    1.414   .     A
C311   C315    1.422   .     A
C312   C316    1.416   .     A
C312   C320    1.408   .     A
C312   S334    1.790   .     S
C313   C317    1.408   .     A
C313   C315    1.416   .     A
C313   S339    1.790   .     S
C314   C318    1.416   .     A
C314   S344    1.802   .     S
C314   C316    1.422   .     A
C317   C323    1.404   .     A
C317   C321    1.409   .     A
C318   C324    1.402   .     A
C318   C322    1.412   .     A
C319   C325    1.401   .     A
C319   C321    1.412   .     A
C320   C326    1.404   .     A
C320   C322    1.409   .     A
C321   C264    1.419   1_655 S
C323   C268    1.387   1_655 S
C325   C266    1.386   1_655 S
C328   C95     1.191   1_565 S
S329   O332    1.683   .     S
S329   O330    1.500   .     D
S329   O331    1.501   .     D
O332   H333    0.991   .     S
S334   O337    1.678   .     S
S334   O336    1.500   .     D
S334   O335    1.502   .     D
O337   H338    0.990   .     S
S339   O342    1.680   .     S
S339   O340    1.502   .     D
S339   O341    1.502   .     D
O342   H343    0.991   .     S
S344   O346    1.502   .     D
S344   O345    1.502   .     D
S344   O347    1.681   .     S
O347   H348    0.991   .     S
O349   Cu365   1.940   .     S
O349   C357    1.273   .     A
O350   Cu366   1.940   .     S
O350   C358    1.272   .     A
O351   C358    1.275   .     A
O351   Cu365   1.942   .     S
O352   Cu366   1.942   .     S
O352   C357    1.274   .     A
H353   C381    1.080   .     S
H354   C382    1.071   .     S
H355   C383    1.075   .     S
H356   C384    1.080   .     S
C357   C385    1.411   .     S
C358   C386    1.411   .     S
O359   Cu365   1.972   .     S
O359   C363    1.277   .     A
O360   C364    1.283   .     A
O360   Cu366   1.972   .     S
O361   Cu365   1.972   .     S
O361   C364    1.276   .     A
O362   C363    1.284   .     A
O362   Cu366   1.972   .     S
C363   C374    1.468   .     S
C364   C373    1.465   .     S
Cu365  N368    1.976   .     S
Cu365  Cu366   2.629   .     S
Cu366  N367    1.976   .     S
N368   N715    1.195   .     S
C369   S387    1.803   .     S
C369   C377    1.414   .     A
C369   C373    1.422   .     A
C370   C374    1.416   .     A
C370   C378    1.408   .     A
C370   S392    1.790   .     S
C371   C375    1.408   .     A
C371   C373    1.416   .     A
C371   S397    1.790   .     S
C372   C376    1.416   .     A
C372   S402    1.802   .     S
C372   C374    1.422   .     A
C375   C381    1.404   .     A
C375   C379    1.409   .     A
C376   C382    1.402   .     A
C376   C380    1.412   .     A
C377   C383    1.401   .     A
C377   C379    1.412   .     A
C378   C384    1.404   .     A
C378   C380    1.409   .     A
C379   C438    1.419   .     S
C380   C437    1.419   1_455 S
C381   C442    1.387   .     S
C382   C441    1.386   1_455 S
C383   C440    1.386   .     S
C384   C439    1.387   1_455 S
C385   C618    1.191   1_545 S
C386   C501    1.191   .     S
S387   O390    1.683   .     S
S387   O388    1.500   .     D
S387   O389    1.501   .     D
O390   H391    0.991   .     S
S392   O395    1.678   .     S
S392   O394    1.500   .     D
S392   O393    1.502   .     D
O395   H396    0.990   .     S
S397   O400    1.680   .     S
S397   O398    1.502   .     D
S397   O399    1.502   .     D
O400   H401    0.991   .     S
S402   O404    1.502   .     D
S402   O403    1.502   .     D
S402   O405    1.681   .     S
O405   H406    0.991   .     S
O407   Cu423   1.940   .     S
O407   C415    1.273   .     A
O408   Cu424   1.940   .     S
O408   C416    1.272   .     A
O409   C416    1.275   .     A
O409   Cu423   1.942   .     S
O410   Cu424   1.942   .     S
O410   C415    1.274   .     A
H411   C439    1.080   .     S
H412   C440    1.071   .     S
H413   C441    1.075   .     S
H414   C442    1.080   .     S
C415   C443    1.411   .     S
C416   C444    1.411   .     S
O417   Cu423   1.972   .     S
O417   C421    1.277   .     A
O418   C422    1.283   .     A
O418   Cu424   1.972   .     S
O419   Cu423   1.972   .     S
O419   C422    1.276   .     A
O420   C421    1.284   .     A
O420   Cu424   1.972   .     S
C421   C432    1.468   .     S
C422   C431    1.465   .     S
Cu423  N426    1.976   .     S
Cu423  Cu424   2.629   .     S
Cu424  N425    1.976   .     S
N426   N773    1.195   .     S
C427   S445    1.803   .     S
C427   C435    1.414   .     A
C427   C431    1.422   .     A
C428   C432    1.416   .     A
C428   C436    1.408   .     A
C428   S450    1.790   .     S
C429   C433    1.408   .     A
C429   C431    1.416   .     A
C429   S455    1.790   .     S
C430   C434    1.416   .     A
C430   S460    1.802   .     S
C430   C432    1.422   .     A
C433   C439    1.404   .     A
C433   C437    1.409   .     A
C434   C440    1.402   .     A
C434   C438    1.412   .     A
C435   C441    1.401   .     A
C435   C437    1.412   .     A
C436   C442    1.404   .     A
C436   C438    1.409   .     A
C437   C380    1.419   1_655 S
C439   C384    1.387   1_655 S
C441   C382    1.386   1_655 S
C443   C676    1.191   1_545 S
C444   C559    1.191   .     S
S445   O448    1.683   .     S
S445   O446    1.500   .     D
S445   O447    1.501   .     D
O448   H449    0.991   .     S
S450   O453    1.678   .     S
S450   O452    1.500   .     D
S450   O451    1.502   .     D
O453   H454    0.990   .     S
S455   O458    1.680   .     S
S455   O456    1.502   .     D
S455   O457    1.502   .     D
O458   H459    0.991   .     S
S460   O462    1.502   .     D
S460   O461    1.502   .     D
S460   O463    1.681   .     S
O463   H464    0.991   .     S
O465   Cu481   1.940   .     S
O465   C473    1.273   .     A
O466   Cu482   1.940   .     S
O466   C474    1.272   .     A
O467   C474    1.275   .     A
O467   Cu481   1.942   .     S
O468   Cu482   1.942   .     S
O468   C473    1.274   .     A
H469   C497    1.080   .     S
H470   C498    1.071   .     S
H471   C499    1.075   .     S
H472   C500    1.080   .     S
C473   C501    1.411   .     S
C474   C502    1.411   .     S
O475   Cu481   1.972   .     S
O475   C479    1.277   .     A
O476   C480    1.283   .     A
O476   Cu482   1.972   .     S
O477   Cu481   1.972   .     S
O477   C480    1.276   .     A
O478   C479    1.284   .     A
O478   Cu482   1.972   .     S
C479   C490    1.468   .     S
C480   C489    1.465   .     S
Cu481  N484    1.976   .     S
Cu481  Cu482   2.629   .     S
Cu482  N483    1.976   .     S
N484   N831    1.195   .     S
C485   S503    1.803   .     S
C485   C493    1.414   .     A
C485   C489    1.422   .     A
C486   C490    1.416   .     A
C486   C494    1.408   .     A
C486   S508    1.790   .     S
C487   C491    1.408   .     A
C487   C489    1.416   .     A
C487   S513    1.790   .     S
C488   C492    1.416   .     A
C488   S518    1.802   .     S
C488   C490    1.422   .     A
C491   C497    1.404   .     A
C491   C495    1.409   .     A
C492   C498    1.402   .     A
C492   C496    1.412   .     A
C493   C499    1.401   .     A
C493   C495    1.412   .     A
C494   C500    1.404   .     A
C494   C496    1.409   .     A
C495   C554    1.419   .     S
C496   C553    1.419   1_455 S
C497   C558    1.387   .     S
C498   C557    1.386   1_455 S
C499   C556    1.386   .     S
C500   C555    1.387   1_455 S
C502   C617    1.191   .     S
S503   O506    1.683   .     S
S503   O504    1.500   .     D
S503   O505    1.501   .     D
O506   H507    0.991   .     S
S508   O511    1.678   .     S
S508   O510    1.500   .     D
S508   O509    1.502   .     D
O511   H512    0.990   .     S
S513   O516    1.680   .     S
S513   O514    1.502   .     D
S513   O515    1.502   .     D
O516   H517    0.991   .     S
S518   O520    1.502   .     D
S518   O519    1.502   .     D
S518   O521    1.681   .     S
O521   H522    0.991   .     S
O523   Cu539   1.940   .     S
O523   C531    1.273   .     A
O524   Cu540   1.940   .     S
O524   C532    1.272   .     A
O525   C532    1.275   .     A
O525   Cu539   1.942   .     S
O526   Cu540   1.942   .     S
O526   C531    1.274   .     A
H527   C555    1.080   .     S
H528   C556    1.071   .     S
H529   C557    1.075   .     S
H530   C558    1.080   .     S
C531   C559    1.411   .     S
C532   C560    1.411   .     S
O533   Cu539   1.972   .     S
O533   C537    1.277   .     A
O534   C538    1.283   .     A
O534   Cu540   1.972   .     S
O535   Cu539   1.972   .     S
O535   C538    1.276   .     A
O536   C537    1.284   .     A
O536   Cu540   1.972   .     S
C537   C548    1.468   .     S
C538   C547    1.465   .     S
Cu539  N542    1.976   .     S
Cu539  Cu540   2.629   .     S
Cu540  N541    1.976   .     S
N542   N889    1.195   .     S
C543   S561    1.803   .     S
C543   C551    1.414   .     A
C543   C547    1.422   .     A
C544   C548    1.416   .     A
C544   C552    1.408   .     A
C544   S566    1.790   .     S
C545   C549    1.408   .     A
C545   C547    1.416   .     A
C545   S571    1.790   .     S
C546   C550    1.416   .     A
C546   S576    1.802   .     S
C546   C548    1.422   .     A
C549   C555    1.404   .     A
C549   C553    1.409   .     A
C550   C556    1.402   .     A
C550   C554    1.412   .     A
C551   C557    1.401   .     A
C551   C553    1.412   .     A
C552   C558    1.404   .     A
C552   C554    1.409   .     A
C553   C496    1.419   1_655 S
C555   C500    1.387   1_655 S
C557   C498    1.386   1_655 S
C560   C675    1.191   .     S
S561   O564    1.683   .     S
S561   O562    1.500   .     D
S561   O563    1.501   .     D
O564   H565    0.991   .     S
S566   O569    1.678   .     S
S566   O568    1.500   .     D
S566   O567    1.502   .     D
O569   H570    0.990   .     S
S571   O574    1.680   .     S
S571   O572    1.502   .     D
S571   O573    1.502   .     D
O574   H575    0.991   .     S
S576   O578    1.502   .     D
S576   O577    1.502   .     D
S576   O579    1.681   .     S
O579   H580    0.991   .     S
O581   Cu597   1.940   .     S
O581   C589    1.273   .     A
O582   Cu598   1.940   .     S
O582   C590    1.272   .     A
O583   C590    1.275   .     A
O583   Cu597   1.942   .     S
O584   Cu598   1.942   .     S
O584   C589    1.274   .     A
H585   C613    1.080   .     S
H586   C614    1.071   .     S
H587   C615    1.075   .     S
H588   C616    1.080   .     S
C589   C617    1.411   .     S
C590   C618    1.411   .     S
O591   Cu597   1.972   .     S
O591   C595    1.277   .     A
O592   C596    1.283   .     A
O592   Cu598   1.972   .     S
O593   Cu597   1.972   .     S
O593   C596    1.276   .     A
O594   C595    1.284   .     A
O594   Cu598   1.972   .     S
C595   C606    1.468   .     S
C596   C605    1.465   .     S
Cu597  N600    1.976   .     S
Cu597  Cu598   2.629   .     S
Cu598  N599    1.976   .     S
N600   N947    1.195   .     S
C601   S619    1.803   .     S
C601   C609    1.414   .     A
C601   C605    1.422   .     A
C602   C606    1.416   .     A
C602   C610    1.408   .     A
C602   S624    1.790   .     S
C603   C607    1.408   .     A
C603   C605    1.416   .     A
C603   S629    1.790   .     S
C604   C608    1.416   .     A
C604   S634    1.802   .     S
C604   C606    1.422   .     A
C607   C613    1.404   .     A
C607   C611    1.409   .     A
C608   C614    1.402   .     A
C608   C612    1.412   .     A
C609   C615    1.401   .     A
C609   C611    1.412   .     A
C610   C616    1.404   .     A
C610   C612    1.409   .     A
C611   C670    1.419   .     S
C612   C669    1.419   1_455 S
C613   C674    1.387   .     S
C614   C673    1.386   1_455 S
C615   C672    1.386   .     S
C616   C671    1.387   1_455 S
C618   C385    1.191   1_565 S
S619   O622    1.683   .     S
S619   O620    1.500   .     D
S619   O621    1.501   .     D
O622   H623    0.991   .     S
S624   O627    1.678   .     S
S624   O626    1.500   .     D
S624   O625    1.502   .     D
O627   H628    0.990   .     S
S629   O632    1.680   .     S
S629   O630    1.502   .     D
S629   O631    1.502   .     D
O632   H633    0.991   .     S
S634   O636    1.502   .     D
S634   O635    1.502   .     D
S634   O637    1.681   .     S
O637   H638    0.991   .     S
O639   Cu655   1.940   .     S
O639   C647    1.273   .     A
O640   Cu656   1.940   .     S
O640   C648    1.272   .     A
O641   C648    1.275   .     A
O641   Cu655   1.942   .     S
O642   Cu656   1.942   .     S
O642   C647    1.274   .     A
H643   C671    1.080   .     S
H644   C672    1.071   .     S
H645   C673    1.075   .     S
H646   C674    1.080   .     S
C647   C675    1.411   .     S
C648   C676    1.411   .     S
O649   Cu655   1.972   .     S
O649   C653    1.277   .     A
O650   C654    1.283   .     A
O650   Cu656   1.972   .     S
O651   Cu655   1.972   .     S
O651   C654    1.276   .     A
O652   C653    1.284   .     A
O652   Cu656   1.972   .     S
C653   C664    1.468   .     S
C654   C663    1.465   .     S
Cu655  N658    1.976   .     S
Cu655  Cu656   2.629   .     S
Cu656  N657    1.976   .     S
N658   N1005   1.195   .     S
C659   S677    1.803   .     S
C659   C667    1.414   .     A
C659   C663    1.422   .     A
C660   C664    1.416   .     A
C660   C668    1.408   .     A
C660   S682    1.790   .     S
C661   C665    1.408   .     A
C661   C663    1.416   .     A
C661   S687    1.790   .     S
C662   C666    1.416   .     A
C662   S692    1.802   .     S
C662   C664    1.422   .     A
C665   C671    1.404   .     A
C665   C669    1.409   .     A
C666   C672    1.402   .     A
C666   C670    1.412   .     A
C667   C673    1.401   .     A
C667   C669    1.412   .     A
C668   C674    1.404   .     A
C668   C670    1.409   .     A
C669   C612    1.419   1_655 S
C671   C616    1.387   1_655 S
C673   C614    1.386   1_655 S
C676   C443    1.191   1_565 S
S677   O680    1.683   .     S
S677   O678    1.500   .     D
S677   O679    1.501   .     D
O680   H681    0.991   .     S
S682   O685    1.678   .     S
S682   O684    1.500   .     D
S682   O683    1.502   .     D
O685   H686    0.990   .     S
S687   O690    1.680   .     S
S687   O688    1.502   .     D
S687   O689    1.502   .     D
O690   H691    0.991   .     S
S692   O694    1.502   .     D
S692   O693    1.502   .     D
S692   O695    1.681   .     S
O695   H696    0.991   .     S
O697   Cu713   1.940   .     S
O697   C705    1.273   .     A
O698   Cu714   1.940   .     S
O698   C706    1.272   .     A
O699   C706    1.275   .     A
O699   Cu713   1.942   .     S
O700   Cu714   1.942   .     S
O700   C705    1.274   .     A
H701   C729    1.080   .     S
H702   C730    1.071   .     S
H703   C731    1.075   .     S
H704   C732    1.080   .     S
C705   C733    1.411   .     S
C706   C734    1.411   .     S
O707   Cu713   1.972   .     S
O707   C711    1.277   .     A
O708   C712    1.283   .     A
O708   Cu714   1.972   .     S
O709   Cu713   1.972   .     S
O709   C712    1.276   .     A
O710   C711    1.284   .     A
O710   Cu714   1.972   .     S
C711   C722    1.468   .     S
C712   C721    1.465   .     S
Cu713  N716    1.976   .     S
Cu713  Cu714   2.629   .     S
Cu714  N715    1.976   .     S
N716   N19     1.195   1_556 S
C717   S735    1.803   .     S
C717   C725    1.414   .     A
C717   C721    1.422   .     A
C718   C722    1.416   .     A
C718   C726    1.408   .     A
C718   S740    1.790   .     S
C719   C723    1.408   .     A
C719   C721    1.416   .     A
C719   S745    1.790   .     S
C720   C724    1.416   .     A
C720   S750    1.802   .     S
C720   C722    1.422   .     A
C723   C729    1.404   .     A
C723   C727    1.409   .     A
C724   C730    1.402   .     A
C724   C728    1.412   .     A
C725   C731    1.401   .     A
C725   C727    1.412   .     A
C726   C732    1.404   .     A
C726   C728    1.409   .     A
C727   C786    1.419   .     S
C728   C785    1.419   1_455 S
C729   C790    1.387   .     S
C730   C789    1.386   1_455 S
C731   C788    1.386   .     S
C732   C787    1.387   1_455 S
C733   C966    1.191   1_545 S
C734   C849    1.191   .     S
S735   O738    1.683   .     S
S735   O736    1.500   .     D
S735   O737    1.501   .     D
O738   H739    0.991   .     S
S740   O743    1.678   .     S
S740   O742    1.500   .     D
S740   O741    1.502   .     D
O743   H744    0.990   .     S
S745   O748    1.680   .     S
S745   O746    1.502   .     D
S745   O747    1.502   .     D
O748   H749    0.991   .     S
S750   O752    1.502   .     D
S750   O751    1.502   .     D
S750   O753    1.681   .     S
O753   H754    0.991   .     S
O755   Cu771   1.940   .     S
O755   C763    1.273   .     A
O756   Cu772   1.940   .     S
O756   C764    1.272   .     A
O757   C764    1.275   .     A
O757   Cu771   1.942   .     S
O758   Cu772   1.942   .     S
O758   C763    1.274   .     A
H759   C787    1.080   .     S
H760   C788    1.071   .     S
H761   C789    1.075   .     S
H762   C790    1.080   .     S
C763   C791    1.411   .     S
C764   C792    1.411   .     S
O765   Cu771   1.972   .     S
O765   C769    1.277   .     A
O766   C770    1.283   .     A
O766   Cu772   1.972   .     S
O767   Cu771   1.972   .     S
O767   C770    1.276   .     A
O768   C769    1.284   .     A
O768   Cu772   1.972   .     S
C769   C780    1.468   .     S
C770   C779    1.465   .     S
Cu771  N774    1.976   .     S
Cu771  Cu772   2.629   .     S
Cu772  N773    1.976   .     S
N774   N77     1.195   1_556 S
C775   S793    1.803   .     S
C775   C783    1.414   .     A
C775   C779    1.422   .     A
C776   C780    1.416   .     A
C776   C784    1.408   .     A
C776   S798    1.790   .     S
C777   C781    1.408   .     A
C777   C779    1.416   .     A
C777   S803    1.790   .     S
C778   C782    1.416   .     A
C778   S808    1.802   .     S
C778   C780    1.422   .     A
C781   C787    1.404   .     A
C781   C785    1.409   .     A
C782   C788    1.402   .     A
C782   C786    1.412   .     A
C783   C789    1.401   .     A
C783   C785    1.412   .     A
C784   C790    1.404   .     A
C784   C786    1.409   .     A
C785   C728    1.419   1_655 S
C787   C732    1.387   1_655 S
C789   C730    1.386   1_655 S
C791   C1024   1.191   1_545 S
C792   C907    1.191   .     S
S793   O796    1.683   .     S
S793   O794    1.500   .     D
S793   O795    1.501   .     D
O796   H797    0.991   .     S
S798   O801    1.678   .     S
S798   O800    1.500   .     D
S798   O799    1.502   .     D
O801   H802    0.990   .     S
S803   O806    1.680   .     S
S803   O804    1.502   .     D
S803   O805    1.502   .     D
O806   H807    0.991   .     S
S808   O810    1.502   .     D
S808   O809    1.502   .     D
S808   O811    1.681   .     S
O811   H812    0.991   .     S
O813   Cu829   1.940   .     S
O813   C821    1.273   .     A
O814   Cu830   1.940   .     S
O814   C822    1.272   .     A
O815   C822    1.275   .     A
O815   Cu829   1.942   .     S
O816   Cu830   1.942   .     S
O816   C821    1.274   .     A
H817   C845    1.080   .     S
H818   C846    1.071   .     S
H819   C847    1.075   .     S
H820   C848    1.080   .     S
C821   C849    1.411   .     S
C822   C850    1.411   .     S
O823   Cu829   1.972   .     S
O823   C827    1.277   .     A
O824   C828    1.283   .     A
O824   Cu830   1.972   .     S
O825   Cu829   1.972   .     S
O825   C828    1.276   .     A
O826   C827    1.284   .     A
O826   Cu830   1.972   .     S
C827   C838    1.468   .     S
C828   C837    1.465   .     S
Cu829  N832    1.976   .     S
Cu829  Cu830   2.629   .     S
Cu830  N831    1.976   .     S
N832   N135    1.195   1_556 S
C833   S851    1.803   .     S
C833   C841    1.414   .     A
C833   C837    1.422   .     A
C834   C838    1.416   .     A
C834   C842    1.408   .     A
C834   S856    1.790   .     S
C835   C839    1.408   .     A
C835   C837    1.416   .     A
C835   S861    1.790   .     S
C836   C840    1.416   .     A
C836   S866    1.802   .     S
C836   C838    1.422   .     A
C839   C845    1.404   .     A
C839   C843    1.409   .     A
C840   C846    1.402   .     A
C840   C844    1.412   .     A
C841   C847    1.401   .     A
C841   C843    1.412   .     A
C842   C848    1.404   .     A
C842   C844    1.409   .     A
C843   C902    1.419   .     S
C844   C901    1.419   1_455 S
C845   C906    1.387   .     S
C846   C905    1.386   1_455 S
C847   C904    1.386   .     S
C848   C903    1.387   1_455 S
C850   C965    1.191   .     S
S851   O854    1.683   .     S
S851   O852    1.500   .     D
S851   O853    1.501   .     D
O854   H855    0.991   .     S
S856   O859    1.678   .     S
S856   O858    1.500   .     D
S856   O857    1.502   .     D
O859   H860    0.990   .     S
S861   O864    1.680   .     S
S861   O862    1.502   .     D
S861   O863    1.502   .     D
O864   H865    0.991   .     S
S866   O868    1.502   .     D
S866   O867    1.502   .     D
S866   O869    1.681   .     S
O869   H870    0.991   .     S
O871   Cu887   1.940   .     S
O871   C879    1.273   .     A
O872   Cu888   1.940   .     S
O872   C880    1.272   .     A
O873   C880    1.275   .     A
O873   Cu887   1.942   .     S
O874   Cu888   1.942   .     S
O874   C879    1.274   .     A
H875   C903    1.080   .     S
H876   C904    1.071   .     S
H877   C905    1.075   .     S
H878   C906    1.080   .     S
C879   C907    1.411   .     S
C880   C908    1.411   .     S
O881   Cu887   1.972   .     S
O881   C885    1.277   .     A
O882   C886    1.283   .     A
O882   Cu888   1.972   .     S
O883   Cu887   1.972   .     S
O883   C886    1.276   .     A
O884   C885    1.284   .     A
O884   Cu888   1.972   .     S
C885   C896    1.468   .     S
C886   C895    1.465   .     S
Cu887  N890    1.976   .     S
Cu887  Cu888   2.629   .     S
Cu888  N889    1.976   .     S
N890   N193    1.195   1_556 S
C891   S909    1.803   .     S
C891   C899    1.414   .     A
C891   C895    1.422   .     A
C892   C896    1.416   .     A
C892   C900    1.408   .     A
C892   S914    1.790   .     S
C893   C897    1.408   .     A
C893   C895    1.416   .     A
C893   S919    1.790   .     S
C894   C898    1.416   .     A
C894   S924    1.802   .     S
C894   C896    1.422   .     A
C897   C903    1.404   .     A
C897   C901    1.409   .     A
C898   C904    1.402   .     A
C898   C902    1.412   .     A
C899   C905    1.401   .     A
C899   C901    1.412   .     A
C900   C906    1.404   .     A
C900   C902    1.409   .     A
C901   C844    1.419   1_655 S
C903   C848    1.387   1_655 S
C905   C846    1.386   1_655 S
C908   C1023   1.191   .     S
S909   O912    1.683   .     S
S909   O910    1.500   .     D
S909   O911    1.501   .     D
O912   H913    0.991   .     S
S914   O917    1.678   .     S
S914   O916    1.500   .     D
S914   O915    1.502   .     D
O917   H918    0.990   .     S
S919   O922    1.680   .     S
S919   O920    1.502   .     D
S919   O921    1.502   .     D
O922   H923    0.991   .     S
S924   O926    1.502   .     D
S924   O925    1.502   .     D
S924   O927    1.681   .     S
O927   H928    0.991   .     S
O929   Cu945   1.940   .     S
O929   C937    1.273   .     A
O930   Cu946   1.940   .     S
O930   C938    1.272   .     A
O931   C938    1.275   .     A
O931   Cu945   1.942   .     S
O932   Cu946   1.942   .     S
O932   C937    1.274   .     A
H933   C961    1.080   .     S
H934   C962    1.071   .     S
H935   C963    1.075   .     S
H936   C964    1.080   .     S
C937   C965    1.411   .     S
C938   C966    1.411   .     S
O939   Cu945   1.972   .     S
O939   C943    1.277   .     A
O940   C944    1.283   .     A
O940   Cu946   1.972   .     S
O941   Cu945   1.972   .     S
O941   C944    1.276   .     A
O942   C943    1.284   .     A
O942   Cu946   1.972   .     S
C943   C954    1.468   .     S
C944   C953    1.465   .     S
Cu945  N948    1.976   .     S
Cu945  Cu946   2.629   .     S
Cu946  N947    1.976   .     S
N948   N251    1.195   1_556 S
C949   S967    1.803   .     S
C949   C957    1.414   .     A
C949   C953    1.422   .     A
C950   C954    1.416   .     A
C950   C958    1.408   .     A
C950   S972    1.790   .     S
C951   C955    1.408   .     A
C951   C953    1.416   .     A
C951   S977    1.790   .     S
C952   C956    1.416   .     A
C952   S982    1.802   .     S
C952   C954    1.422   .     A
C955   C961    1.404   .     A
C955   C959    1.409   .     A
C956   C962    1.402   .     A
C956   C960    1.412   .     A
C957   C963    1.401   .     A
C957   C959    1.412   .     A
C958   C964    1.404   .     A
C958   C960    1.409   .     A
C959   C1018   1.419   .     S
C960   C1017   1.419   1_455 S
C961   C1022   1.387   .     S
C962   C1021   1.386   1_455 S
C963   C1020   1.386   .     S
C964   C1019   1.387   1_455 S
C966   C733    1.191   1_565 S
S967   O970    1.683   .     S
S967   O968    1.500   .     D
S967   O969    1.501   .     D
O970   H971    0.991   .     S
S972   O975    1.678   .     S
S972   O974    1.500   .     D
S972   O973    1.502   .     D
O975   H976    0.990   .     S
S977   O980    1.680   .     S
S977   O978    1.502   .     D
S977   O979    1.502   .     D
O980   H981    0.991   .     S
S982   O984    1.502   .     D
S982   O983    1.502   .     D
S982   O985    1.681   .     S
O985   H986    0.991   .     S
O987   Cu1003  1.940   .     S
O987   C995    1.273   .     A
O988   Cu1004  1.940   .     S
O988   C996    1.272   .     A
O989   C996    1.275   .     A
O989   Cu1003  1.942   .     S
O990   Cu1004  1.942   .     S
O990   C995    1.274   .     A
H991   C1019   1.080   .     S
H992   C1020   1.071   .     S
H993   C1021   1.075   .     S
H994   C1022   1.080   .     S
C995   C1023   1.411   .     S
C996   C1024   1.411   .     S
O997   Cu1003  1.972   .     S
O997   C1001   1.277   .     A
O998   C1002   1.283   .     A
O998   Cu1004  1.972   .     S
O999   Cu1003  1.972   .     S
O999   C1002   1.276   .     A
O1000  C1001   1.284   .     A
O1000  Cu1004  1.972   .     S
C1001  C1012   1.468   .     S
C1002  C1011   1.465   .     S
Cu1003 N1006   1.976   .     S
Cu1003 Cu1004  2.629   .     S
Cu1004 N1005   1.976   .     S
N1006  N309    1.195   1_556 S
C1007  S1025   1.803   .     S
C1007  C1015   1.414   .     A
C1007  C1011   1.422   .     A
C1008  C1012   1.416   .     A
C1008  C1016   1.408   .     A
C1008  S1030   1.790   .     S
C1009  C1013   1.408   .     A
C1009  C1011   1.416   .     A
C1009  S1035   1.790   .     S
C1010  C1014   1.416   .     A
C1010  S1040   1.802   .     S
C1010  C1012   1.422   .     A
C1013  C1019   1.404   .     A
C1013  C1017   1.409   .     A
C1014  C1020   1.402   .     A
C1014  C1018   1.412   .     A
C1015  C1021   1.401   .     A
C1015  C1017   1.412   .     A
C1016  C1022   1.404   .     A
C1016  C1018   1.409   .     A
C1017  C960    1.419   1_655 S
C1019  C964    1.387   1_655 S
C1021  C962    1.386   1_655 S
C1024  C791    1.191   1_565 S
S1025  O1028   1.683   .     S
S1025  O1026   1.500   .     D
S1025  O1027   1.501   .     D
O1028  H1029   0.991   .     S
S1030  O1033   1.678   .     S
S1030  O1032   1.500   .     D
S1030  O1031   1.502   .     D
O1033  H1034   0.990   .     S
S1035  O1038   1.680   .     S
S1035  O1036   1.502   .     D
S1035  O1037   1.502   .     D
O1038  H1039   0.991   .     S
S1040  O1042   1.502   .     D
S1040  O1041   1.502   .     D
S1040  O1043   1.681   .     S
O1043  H1044   0.991   .     S
