data_str_m1_o1_o17_pcu_sym.96
_audit_creation_date              2020-01-03
_audit_creation_method            'Materials Studio'
_symmetry_space_group_name_H-M    'P1'
_symmetry_Int_Tables_number       1
_symmetry_cell_setting            triclinic
loop_
_symmetry_equiv_pos_as_xyz
  x,y,z
_cell_length_a                    36.6725
_cell_length_b                    36.6726
_cell_length_c                    34.2962
_cell_angle_alpha                 90.0000
_cell_angle_beta                  90.0000
_cell_angle_gamma                 89.9399
loop_
_atom_site_label
_atom_site_type_symbol
_atom_site_fract_x
_atom_site_fract_y
_atom_site_fract_z
_atom_site_U_iso_or_equiv
_atom_site_adp_type
_atom_site_occupancy
C1     C     0.47669   0.27371   0.41864   0.00000  Uiso   1.00
C2     C     0.27331   0.47630   0.08136   0.00000  Uiso   1.00
C3     C     0.23106   0.02769   0.54092   0.00000  Uiso   1.00
C4     C     0.47231   0.26895   0.45908   0.00000  Uiso   1.00
C5     C     0.02769   0.23106   0.54092   0.00000  Uiso   1.00
C6     C     0.23106   0.02769   0.45908   0.00000  Uiso   1.00
C7     C     0.26895   0.47231   0.54092   0.00000  Uiso   1.00
C8     C     0.27769   0.48106   0.95908   0.00000  Uiso   1.00
C9     C     0.22231   0.01895   0.04092   0.00000  Uiso   1.00
C10    C     0.01895   0.22231   0.95908   0.00000  Uiso   1.00
C11    C     0.48106   0.27769   0.04092   0.00000  Uiso   1.00
C12    C     0.22231   0.01895   0.95908   0.00000  Uiso   1.00
C13    C     0.47630   0.27331   0.91864   0.00000  Uiso   1.00
C14    C     0.27769   0.48106   0.04092   0.00000  Uiso   1.00
C15    C     0.48106   0.27769   0.95908   0.00000  Uiso   1.00
C16    C     0.01895   0.22231   0.04092   0.00000  Uiso   1.00
C17    C     0.09814   0.34814   0.25000   0.00000  Uiso   1.00
C18    C     0.40186   0.15186   0.75000   0.00000  Uiso   1.00
C19    C     0.15187   0.09813   0.25000   0.00000  Uiso   1.00
C20    C     0.34813   0.40187   0.75000   0.00000  Uiso   1.00
C21    C     0.40186   0.15186   0.25000   0.00000  Uiso   1.00
C22    C     0.09814   0.34814   0.75000   0.00000  Uiso   1.00
C23    C     0.34813   0.40187   0.25000   0.00000  Uiso   1.00
C24    C     0.02371   0.22669   0.08136   0.00000  Uiso   1.00
C25    C     0.15187   0.09813   0.75000   0.00000  Uiso   1.00
C26    C     0.09813   0.15187   0.75000   0.00000  Uiso   1.00
C27    C     0.40187   0.34813   0.25000   0.00000  Uiso   1.00
C28    C     0.15186   0.40186   0.75000   0.00000  Uiso   1.00
C29    C     0.34814   0.09814   0.25000   0.00000  Uiso   1.00
C30    C     0.40187   0.34813   0.75000   0.00000  Uiso   1.00
C31    C     0.09813   0.15187   0.25000   0.00000  Uiso   1.00
C32    C     0.34814   0.09814   0.75000   0.00000  Uiso   1.00
C33    C     0.15186   0.40186   0.25000   0.00000  Uiso   1.00
C34    C     0.00000   0.25000   0.47957   0.00000  Uiso   1.00
C35    C     0.27331   0.47630   0.91864   0.00000  Uiso   1.00
C36    C     0.00000   0.25000   0.52043   0.00000  Uiso   1.00
C37    C     0.25000   0.00000   0.47957   0.00000  Uiso   1.00
C38    C     0.25000   0.00000   0.52043   0.00000  Uiso   1.00
C39    C     0.25000   0.00000   0.97957   0.00000  Uiso   1.00
C40    C     0.25000   0.00000   0.02043   0.00000  Uiso   1.00
C41    C     0.00000   0.25000   0.97957   0.00000  Uiso   1.00
C42    C     0.00000   0.25000   0.02043   0.00000  Uiso   1.00
C43    C     0.22669   0.02371   0.08136   0.00000  Uiso   1.00
C44    C     0.02371   0.22669   0.91864   0.00000  Uiso   1.00
C45    C     0.47630   0.27331   0.08136   0.00000  Uiso   1.00
C46    C     0.00000   0.25000   0.39835   0.00000  Uiso   1.00
C47    C     0.00000   0.25000   0.60165   0.00000  Uiso   1.00
C48    C     0.25000   0.00000   0.39835   0.00000  Uiso   1.00
C49    C     0.02331   0.22630   0.58136   0.00000  Uiso   1.00
C50    C     0.25000   0.00000   0.60165   0.00000  Uiso   1.00
C51    C     0.25000   0.00000   0.89835   0.00000  Uiso   1.00
C52    C     0.25000   0.00000   0.10165   0.00000  Uiso   1.00
C53    C     0.00000   0.25000   0.89835   0.00000  Uiso   1.00
C54    C     0.00000   0.25000   0.10165   0.00000  Uiso   1.00
C55    C     0.05915   0.21921   0.47941   0.00000  Uiso   1.00
C56    C     0.44085   0.28079   0.52059   0.00000  Uiso   1.00
C57    C     0.28079   0.44085   0.47941   0.00000  Uiso   1.00
C58    C     0.21921   0.05915   0.52059   0.00000  Uiso   1.00
C59    C     0.44085   0.28079   0.47941   0.00000  Uiso   1.00
C60    C     0.22630   0.02331   0.41864   0.00000  Uiso   1.00
C61    C     0.05915   0.21921   0.52059   0.00000  Uiso   1.00
C62    C     0.21921   0.05915   0.47941   0.00000  Uiso   1.00
C63    C     0.28079   0.44085   0.52059   0.00000  Uiso   1.00
C64    C     0.30915   0.46921   0.97941   0.00000  Uiso   1.00
C65    C     0.19085   0.03079   0.02059   0.00000  Uiso   1.00
C66    C     0.03079   0.19085   0.97941   0.00000  Uiso   1.00
C67    C     0.46921   0.30915   0.02059   0.00000  Uiso   1.00
C68    C     0.19085   0.03079   0.97941   0.00000  Uiso   1.00
C69    C     0.30915   0.46921   0.02059   0.00000  Uiso   1.00
C70    C     0.46921   0.30915   0.97941   0.00000  Uiso   1.00
C71    C     0.27371   0.47669   0.58136   0.00000  Uiso   1.00
C72    C     0.03079   0.19085   0.02059   0.00000  Uiso   1.00
C73    C     0.25000   0.00000   0.35589   0.00000  Uiso   1.00
C74    C     0.25000   0.00000   0.64411   0.00000  Uiso   1.00
C75    C     0.00000   0.25000   0.35589   0.00000  Uiso   1.00
C76    C     0.00000   0.25000   0.64411   0.00000  Uiso   1.00
C77    C     0.00000   0.25000   0.85589   0.00000  Uiso   1.00
C78    C     0.00000   0.25000   0.14411   0.00000  Uiso   1.00
C79    C     0.25000   0.00000   0.85589   0.00000  Uiso   1.00
C80    C     0.25000   0.00000   0.14411   0.00000  Uiso   1.00
C81    C     0.17993   0.07007   0.25000   0.00000  Uiso   1.00
C82    C     0.02331   0.22630   0.41864   0.00000  Uiso   1.00
C83    C     0.32007   0.42993   0.75000   0.00000  Uiso   1.00
C84    C     0.42992   0.17992   0.25000   0.00000  Uiso   1.00
C85    C     0.07008   0.32008   0.75000   0.00000  Uiso   1.00
C86    C     0.32007   0.42993   0.25000   0.00000  Uiso   1.00
C87    C     0.17993   0.07007   0.75000   0.00000  Uiso   1.00
C88    C     0.07008   0.32008   0.25000   0.00000  Uiso   1.00
C89    C     0.42992   0.17992   0.75000   0.00000  Uiso   1.00
C90    C     0.17992   0.42992   0.75000   0.00000  Uiso   1.00
C91    C     0.32008   0.07008   0.25000   0.00000  Uiso   1.00
C92    C     0.42993   0.32007   0.75000   0.00000  Uiso   1.00
C93    C     0.47669   0.27371   0.58136   0.00000  Uiso   1.00
C94    C     0.07007   0.17993   0.25000   0.00000  Uiso   1.00
C95    C     0.32008   0.07008   0.75000   0.00000  Uiso   1.00
C96    C     0.17992   0.42992   0.25000   0.00000  Uiso   1.00
C97    C     0.07007   0.17993   0.75000   0.00000  Uiso   1.00
C98    C     0.42993   0.32007   0.25000   0.00000  Uiso   1.00
C99    C     0.12190   0.40482   0.22480   0.00000  Uiso   1.00
C100   C     0.37810   0.09518   0.77520   0.00000  Uiso   1.00
C101   C     0.09665   0.12339   0.22279   0.00000  Uiso   1.00
C102   C     0.40335   0.37661   0.77721   0.00000  Uiso   1.00
C103   C     0.37810   0.09518   0.22480   0.00000  Uiso   1.00
C104   C     0.27371   0.47669   0.41864   0.00000  Uiso   1.00
C105   C     0.12190   0.40482   0.77520   0.00000  Uiso   1.00
C106   C     0.40335   0.37661   0.22279   0.00000  Uiso   1.00
C107   C     0.09665   0.12339   0.77721   0.00000  Uiso   1.00
C108   C     0.12339   0.09665   0.77721   0.00000  Uiso   1.00
C109   C     0.37661   0.40335   0.22279   0.00000  Uiso   1.00
C110   C     0.09518   0.37810   0.77520   0.00000  Uiso   1.00
C111   C     0.40482   0.12190   0.22480   0.00000  Uiso   1.00
C112   C     0.37661   0.40335   0.77721   0.00000  Uiso   1.00
C113   C     0.12339   0.09665   0.22279   0.00000  Uiso   1.00
C114   C     0.40482   0.12190   0.77520   0.00000  Uiso   1.00
C115   C     0.22630   0.02331   0.58136   0.00000  Uiso   1.00
C116   C     0.09518   0.37810   0.22480   0.00000  Uiso   1.00
C117   C     0.37190   0.15482   0.72480   0.00000  Uiso   1.00
C118   C     0.12810   0.34518   0.27520   0.00000  Uiso   1.00
C119   C     0.34665   0.37339   0.72279   0.00000  Uiso   1.00
C120   C     0.15335   0.12661   0.27721   0.00000  Uiso   1.00
C121   C     0.12810   0.34518   0.72480   0.00000  Uiso   1.00
C122   C     0.37190   0.15482   0.27520   0.00000  Uiso   1.00
C123   C     0.15335   0.12661   0.72279   0.00000  Uiso   1.00
C124   C     0.34665   0.37339   0.27721   0.00000  Uiso   1.00
C125   C     0.37339   0.34665   0.27721   0.00000  Uiso   1.00
C126   C     0.22669   0.02371   0.91864   0.00000  Uiso   1.00
C127   C     0.12661   0.15335   0.72279   0.00000  Uiso   1.00
C128   C     0.34518   0.12810   0.27520   0.00000  Uiso   1.00
C129   C     0.15482   0.37190   0.72480   0.00000  Uiso   1.00
C130   C     0.12661   0.15335   0.27721   0.00000  Uiso   1.00
C131   C     0.37339   0.34665   0.72279   0.00000  Uiso   1.00
C132   C     0.15482   0.37190   0.27520   0.00000  Uiso   1.00
C133   C     0.34518   0.12810   0.72480   0.00000  Uiso   1.00
C134   C     0.02769   0.23106   0.45908   0.00000  Uiso   1.00
C135   C     0.47231   0.26895   0.54092   0.00000  Uiso   1.00
C136   C     0.26895   0.47231   0.45908   0.00000  Uiso   1.00
H137   H     0.11908   0.42772   0.20510   0.00000  Uiso   1.00
H138   H     0.37820   0.42506   0.20144   0.00000  Uiso   1.00
H139   H     0.07228   0.38092   0.79491   0.00000  Uiso   1.00
H140   H     0.42772   0.11908   0.20509   0.00000  Uiso   1.00
H141   H     0.37820   0.42506   0.79856   0.00000  Uiso   1.00
H142   H     0.12180   0.07494   0.20144   0.00000  Uiso   1.00
H143   H     0.42772   0.11908   0.79491   0.00000  Uiso   1.00
H144   H     0.07228   0.38092   0.20510   0.00000  Uiso   1.00
H145   H     0.36908   0.17772   0.70510   0.00000  Uiso   1.00
H146   H     0.13092   0.32228   0.29491   0.00000  Uiso   1.00
H147   H     0.32494   0.37180   0.70144   0.00000  Uiso   1.00
H148   H     0.38092   0.07228   0.79491   0.00000  Uiso   1.00
H149   H     0.17506   0.12820   0.29856   0.00000  Uiso   1.00
H150   H     0.13092   0.32228   0.70510   0.00000  Uiso   1.00
H151   H     0.36908   0.17772   0.29490   0.00000  Uiso   1.00
H152   H     0.17506   0.12820   0.70144   0.00000  Uiso   1.00
H153   H     0.32494   0.37180   0.29856   0.00000  Uiso   1.00
H154   H     0.37180   0.32494   0.29856   0.00000  Uiso   1.00
H155   H     0.12820   0.17506   0.70144   0.00000  Uiso   1.00
H156   H     0.32228   0.13092   0.29490   0.00000  Uiso   1.00
H157   H     0.17772   0.36908   0.70510   0.00000  Uiso   1.00
H158   H     0.12820   0.17506   0.29856   0.00000  Uiso   1.00
H159   H     0.07494   0.12180   0.20144   0.00000  Uiso   1.00
H160   H     0.37180   0.32494   0.70144   0.00000  Uiso   1.00
H161   H     0.17772   0.36908   0.29491   0.00000  Uiso   1.00
H162   H     0.32228   0.13092   0.70510   0.00000  Uiso   1.00
H163   H     0.42506   0.37820   0.79856   0.00000  Uiso   1.00
H164   H     0.38092   0.07228   0.20509   0.00000  Uiso   1.00
H165   H     0.11908   0.42772   0.79491   0.00000  Uiso   1.00
H166   H     0.42506   0.37820   0.20144   0.00000  Uiso   1.00
H167   H     0.07494   0.12180   0.79856   0.00000  Uiso   1.00
H168   H     0.12180   0.07494   0.79856   0.00000  Uiso   1.00
I169   I     0.11005   0.21281   0.44888   0.00000  Uiso   1.00
I170   I     0.13995   0.03719   0.05112   0.00000  Uiso   1.00
I171   I     0.03719   0.13995   0.94888   0.00000  Uiso   1.00
I172   I     0.46281   0.36005   0.05112   0.00000  Uiso   1.00
I173   I     0.13995   0.03719   0.94888   0.00000  Uiso   1.00
I174   I     0.36005   0.46281   0.05112   0.00000  Uiso   1.00
I175   I     0.46281   0.36005   0.94888   0.00000  Uiso   1.00
I176   I     0.03719   0.13995   0.05112   0.00000  Uiso   1.00
I177   I     0.45985   0.32310   0.39009   0.00000  Uiso   1.00
I178   I     0.04015   0.17690   0.60991   0.00000  Uiso   1.00
I179   I     0.17690   0.04015   0.39009   0.00000  Uiso   1.00
I180   I     0.38995   0.28719   0.55112   0.00000  Uiso   1.00
I181   I     0.32310   0.45985   0.60991   0.00000  Uiso   1.00
I182   I     0.04015   0.17690   0.39009   0.00000  Uiso   1.00
I183   I     0.45985   0.32310   0.60991   0.00000  Uiso   1.00
I184   I     0.32310   0.45985   0.39009   0.00000  Uiso   1.00
I185   I     0.17690   0.04015   0.60991   0.00000  Uiso   1.00
I186   I     0.20985   0.07310   0.89009   0.00000  Uiso   1.00
I187   I     0.29015   0.42690   0.10991   0.00000  Uiso   1.00
I188   I     0.42690   0.29015   0.89009   0.00000  Uiso   1.00
I189   I     0.07310   0.20985   0.10991   0.00000  Uiso   1.00
I190   I     0.29015   0.42690   0.89009   0.00000  Uiso   1.00
I191   I     0.28719   0.38995   0.44888   0.00000  Uiso   1.00
I192   I     0.20985   0.07310   0.10991   0.00000  Uiso   1.00
I193   I     0.07310   0.20985   0.89009   0.00000  Uiso   1.00
I194   I     0.42690   0.29015   0.10991   0.00000  Uiso   1.00
I195   I     0.21281   0.11005   0.55112   0.00000  Uiso   1.00
I196   I     0.38995   0.28719   0.44888   0.00000  Uiso   1.00
I197   I     0.11005   0.21281   0.55112   0.00000  Uiso   1.00
I198   I     0.21281   0.11005   0.44888   0.00000  Uiso   1.00
I199   I     0.28719   0.38995   0.55112   0.00000  Uiso   1.00
I200   I     0.36005   0.46281   0.94888   0.00000  Uiso   1.00
O201   O     0.25000   0.00000   0.25000   0.00000  Uiso   1.00
O202   O     0.25000   0.46964   0.66245   0.00000  Uiso   1.00
O203   O     0.46964   0.25000   0.33755   0.00000  Uiso   1.00
O204   O     0.03037   0.25000   0.66245   0.00000  Uiso   1.00
O205   O     0.00000   0.21964   0.83755   0.00000  Uiso   1.00
O206   O     0.00000   0.28036   0.16245   0.00000  Uiso   1.00
O207   O     0.28037   0.00000   0.83755   0.00000  Uiso   1.00
O208   O     0.21964   0.00000   0.16245   0.00000  Uiso   1.00
O209   O     0.00000   0.28037   0.83755   0.00000  Uiso   1.00
O210   O     0.00000   0.21964   0.16245   0.00000  Uiso   1.00
O211   O     0.21964   0.00000   0.83755   0.00000  Uiso   1.00
O212   O     0.25000   0.00000   0.75000   0.00000  Uiso   1.00
O213   O     0.28037   0.00000   0.16245   0.00000  Uiso   1.00
O214   O     0.20725   0.07308   0.27302   0.00000  Uiso   1.00
O215   O     0.29276   0.42693   0.72698   0.00000  Uiso   1.00
O216   O     0.42693   0.20725   0.27302   0.00000  Uiso   1.00
O217   O     0.07308   0.29276   0.72698   0.00000  Uiso   1.00
O218   O     0.29276   0.42693   0.27302   0.00000  Uiso   1.00
O219   O     0.20725   0.07308   0.72698   0.00000  Uiso   1.00
O220   O     0.07308   0.29276   0.27302   0.00000  Uiso   1.00
O221   O     0.42693   0.20725   0.72698   0.00000  Uiso   1.00
O222   O     0.20725   0.42693   0.72698   0.00000  Uiso   1.00
O223   O     0.00000   0.25000   0.25000   0.00000  Uiso   1.00
O224   O     0.29276   0.07308   0.27302   0.00000  Uiso   1.00
O225   O     0.42693   0.29276   0.72698   0.00000  Uiso   1.00
O226   O     0.07308   0.20725   0.27302   0.00000  Uiso   1.00
O227   O     0.29276   0.07308   0.72698   0.00000  Uiso   1.00
O228   O     0.20725   0.42693   0.27302   0.00000  Uiso   1.00
O229   O     0.07308   0.20725   0.72698   0.00000  Uiso   1.00
O230   O     0.42693   0.29276   0.27302   0.00000  Uiso   1.00
O231   O     0.45725   0.32308   0.77302   0.00000  Uiso   1.00
O232   O     0.04276   0.17693   0.22698   0.00000  Uiso   1.00
O233   O     0.17693   0.45725   0.77302   0.00000  Uiso   1.00
O234   O     0.00000   0.25000   0.75000   0.00000  Uiso   1.00
O235   O     0.32308   0.04276   0.22698   0.00000  Uiso   1.00
O236   O     0.04276   0.17693   0.77302   0.00000  Uiso   1.00
O237   O     0.45725   0.32308   0.22698   0.00000  Uiso   1.00
O238   O     0.32308   0.04276   0.77302   0.00000  Uiso   1.00
O239   O     0.17693   0.45725   0.22698   0.00000  Uiso   1.00
O240   O     0.45725   0.17693   0.22698   0.00000  Uiso   1.00
O241   O     0.04276   0.32308   0.77302   0.00000  Uiso   1.00
O242   O     0.17693   0.04276   0.22698   0.00000  Uiso   1.00
O243   O     0.32308   0.45725   0.77302   0.00000  Uiso   1.00
O244   O     0.04276   0.32308   0.22698   0.00000  Uiso   1.00
O245   O     0.25000   0.46964   0.33755   0.00000  Uiso   1.00
O246   O     0.45725   0.17693   0.77302   0.00000  Uiso   1.00
O247   O     0.32308   0.45725   0.22698   0.00000  Uiso   1.00
O248   O     0.17693   0.04276   0.77302   0.00000  Uiso   1.00
O249   O     0.25000   0.03037   0.66245   0.00000  Uiso   1.00
O250   O     0.03037   0.25000   0.33755   0.00000  Uiso   1.00
O251   O     0.46964   0.25000   0.66245   0.00000  Uiso   1.00
O252   O     0.25000   0.03037   0.33755   0.00000  Uiso   1.00
Zn253  Zn    0.20660   0.00000   0.21735   0.00000  Uiso   1.00
Zn254  Zn    0.04341   0.25000   0.28265   0.00000  Uiso   1.00
Zn255  Zn    0.25000   0.45660   0.71735   0.00000  Uiso   1.00
Zn256  Zn    0.25000   0.04341   0.28265   0.00000  Uiso   1.00
Zn257  Zn    0.04341   0.25000   0.71735   0.00000  Uiso   1.00
Zn258  Zn    0.45660   0.25000   0.28265   0.00000  Uiso   1.00
Zn259  Zn    0.25000   0.04341   0.71735   0.00000  Uiso   1.00
Zn260  Zn    0.25000   0.45660   0.28265   0.00000  Uiso   1.00
Zn261  Zn    0.29341   0.00000   0.78265   0.00000  Uiso   1.00
Zn262  Zn    0.00000   0.20659   0.21735   0.00000  Uiso   1.00
Zn263  Zn    0.00000   0.29341   0.78265   0.00000  Uiso   1.00
Zn264  Zn    0.29341   0.00000   0.21735   0.00000  Uiso   1.00
Zn265  Zn    0.20660   0.00000   0.78265   0.00000  Uiso   1.00
Zn266  Zn    0.00000   0.29340   0.21735   0.00000  Uiso   1.00
Zn267  Zn    0.00000   0.20659   0.78265   0.00000  Uiso   1.00
Zn268  Zn    0.45660   0.25000   0.71735   0.00000  Uiso   1.00
C269   C     0.97669   0.27371   0.41864   0.00000  Uiso   1.00
C270   C     0.77331   0.47630   0.08136   0.00000  Uiso   1.00
C271   C     0.73106   0.02769   0.54092   0.00000  Uiso   1.00
C272   C     0.97231   0.26895   0.45908   0.00000  Uiso   1.00
C273   C     0.52769   0.23106   0.54092   0.00000  Uiso   1.00
C274   C     0.73106   0.02769   0.45908   0.00000  Uiso   1.00
C275   C     0.76895   0.47231   0.54092   0.00000  Uiso   1.00
C276   C     0.77769   0.48106   0.95908   0.00000  Uiso   1.00
C277   C     0.72231   0.01895   0.04092   0.00000  Uiso   1.00
C278   C     0.51895   0.22231   0.95908   0.00000  Uiso   1.00
C279   C     0.98106   0.27769   0.04092   0.00000  Uiso   1.00
C280   C     0.72231   0.01895   0.95908   0.00000  Uiso   1.00
C281   C     0.97630   0.27331   0.91864   0.00000  Uiso   1.00
C282   C     0.77769   0.48106   0.04092   0.00000  Uiso   1.00
C283   C     0.98106   0.27769   0.95908   0.00000  Uiso   1.00
C284   C     0.51895   0.22231   0.04092   0.00000  Uiso   1.00
C285   C     0.59814   0.34814   0.25000   0.00000  Uiso   1.00
C286   C     0.90186   0.15186   0.75000   0.00000  Uiso   1.00
C287   C     0.65187   0.09813   0.25000   0.00000  Uiso   1.00
C288   C     0.84813   0.40187   0.75000   0.00000  Uiso   1.00
C289   C     0.90186   0.15186   0.25000   0.00000  Uiso   1.00
C290   C     0.59814   0.34814   0.75000   0.00000  Uiso   1.00
C291   C     0.84813   0.40187   0.25000   0.00000  Uiso   1.00
C292   C     0.52371   0.22669   0.08136   0.00000  Uiso   1.00
C293   C     0.65187   0.09813   0.75000   0.00000  Uiso   1.00
C294   C     0.59813   0.15187   0.75000   0.00000  Uiso   1.00
C295   C     0.90187   0.34813   0.25000   0.00000  Uiso   1.00
C296   C     0.65186   0.40186   0.75000   0.00000  Uiso   1.00
C297   C     0.84814   0.09814   0.25000   0.00000  Uiso   1.00
C298   C     0.90187   0.34813   0.75000   0.00000  Uiso   1.00
C299   C     0.59813   0.15187   0.25000   0.00000  Uiso   1.00
C300   C     0.84814   0.09814   0.75000   0.00000  Uiso   1.00
C301   C     0.65186   0.40186   0.25000   0.00000  Uiso   1.00
C302   C     0.50000   0.25000   0.47957   0.00000  Uiso   1.00
C303   C     0.77331   0.47630   0.91864   0.00000  Uiso   1.00
C304   C     0.50000   0.25000   0.52043   0.00000  Uiso   1.00
C305   C     0.75000   0.00000   0.47957   0.00000  Uiso   1.00
C306   C     0.75000   0.00000   0.52043   0.00000  Uiso   1.00
C307   C     0.75000   0.00000   0.97957   0.00000  Uiso   1.00
C308   C     0.75000   0.00000   0.02043   0.00000  Uiso   1.00
C309   C     0.50000   0.25000   0.97957   0.00000  Uiso   1.00
C310   C     0.50000   0.25000   0.02043   0.00000  Uiso   1.00
C311   C     0.72669   0.02371   0.08136   0.00000  Uiso   1.00
C312   C     0.52371   0.22669   0.91864   0.00000  Uiso   1.00
C313   C     0.97630   0.27331   0.08136   0.00000  Uiso   1.00
C314   C     0.50000   0.25000   0.39835   0.00000  Uiso   1.00
C315   C     0.50000   0.25000   0.60165   0.00000  Uiso   1.00
C316   C     0.75000   0.00000   0.39835   0.00000  Uiso   1.00
C317   C     0.52331   0.22630   0.58136   0.00000  Uiso   1.00
C318   C     0.75000   0.00000   0.60165   0.00000  Uiso   1.00
C319   C     0.75000   0.00000   0.89835   0.00000  Uiso   1.00
C320   C     0.75000   0.00000   0.10165   0.00000  Uiso   1.00
C321   C     0.50000   0.25000   0.89835   0.00000  Uiso   1.00
C322   C     0.50000   0.25000   0.10165   0.00000  Uiso   1.00
C323   C     0.55915   0.21921   0.47941   0.00000  Uiso   1.00
C324   C     0.94085   0.28079   0.52059   0.00000  Uiso   1.00
C325   C     0.78079   0.44085   0.47941   0.00000  Uiso   1.00
C326   C     0.71921   0.05915   0.52059   0.00000  Uiso   1.00
C327   C     0.94085   0.28079   0.47941   0.00000  Uiso   1.00
C328   C     0.72630   0.02331   0.41864   0.00000  Uiso   1.00
C329   C     0.55915   0.21921   0.52059   0.00000  Uiso   1.00
C330   C     0.71921   0.05915   0.47941   0.00000  Uiso   1.00
C331   C     0.78079   0.44085   0.52059   0.00000  Uiso   1.00
C332   C     0.80915   0.46921   0.97941   0.00000  Uiso   1.00
C333   C     0.69085   0.03079   0.02059   0.00000  Uiso   1.00
C334   C     0.53079   0.19085   0.97941   0.00000  Uiso   1.00
C335   C     0.96921   0.30915   0.02059   0.00000  Uiso   1.00
C336   C     0.69085   0.03079   0.97941   0.00000  Uiso   1.00
C337   C     0.80915   0.46921   0.02059   0.00000  Uiso   1.00
C338   C     0.96921   0.30915   0.97941   0.00000  Uiso   1.00
C339   C     0.77371   0.47669   0.58136   0.00000  Uiso   1.00
C340   C     0.53079   0.19085   0.02059   0.00000  Uiso   1.00
C341   C     0.75000   0.00000   0.35589   0.00000  Uiso   1.00
C342   C     0.75000   0.00000   0.64411   0.00000  Uiso   1.00
C343   C     0.50000   0.25000   0.35589   0.00000  Uiso   1.00
C344   C     0.50000   0.25000   0.64411   0.00000  Uiso   1.00
C345   C     0.50000   0.25000   0.85589   0.00000  Uiso   1.00
C346   C     0.50000   0.25000   0.14411   0.00000  Uiso   1.00
C347   C     0.75000   0.00000   0.85589   0.00000  Uiso   1.00
C348   C     0.75000   0.00000   0.14411   0.00000  Uiso   1.00
C349   C     0.67993   0.07007   0.25000   0.00000  Uiso   1.00
C350   C     0.52331   0.22630   0.41864   0.00000  Uiso   1.00
C351   C     0.82007   0.42993   0.75000   0.00000  Uiso   1.00
C352   C     0.92992   0.17992   0.25000   0.00000  Uiso   1.00
C353   C     0.57008   0.32008   0.75000   0.00000  Uiso   1.00
C354   C     0.82007   0.42993   0.25000   0.00000  Uiso   1.00
C355   C     0.67993   0.07007   0.75000   0.00000  Uiso   1.00
C356   C     0.57008   0.32008   0.25000   0.00000  Uiso   1.00
C357   C     0.92992   0.17992   0.75000   0.00000  Uiso   1.00
C358   C     0.67992   0.42992   0.75000   0.00000  Uiso   1.00
C359   C     0.82008   0.07008   0.25000   0.00000  Uiso   1.00
C360   C     0.92993   0.32007   0.75000   0.00000  Uiso   1.00
C361   C     0.97669   0.27371   0.58136   0.00000  Uiso   1.00
C362   C     0.57007   0.17993   0.25000   0.00000  Uiso   1.00
C363   C     0.82008   0.07008   0.75000   0.00000  Uiso   1.00
C364   C     0.67992   0.42992   0.25000   0.00000  Uiso   1.00
C365   C     0.57007   0.17993   0.75000   0.00000  Uiso   1.00
C366   C     0.92993   0.32007   0.25000   0.00000  Uiso   1.00
C367   C     0.62190   0.40482   0.22480   0.00000  Uiso   1.00
C368   C     0.87810   0.09518   0.77520   0.00000  Uiso   1.00
C369   C     0.59665   0.12339   0.22279   0.00000  Uiso   1.00
C370   C     0.90335   0.37661   0.77721   0.00000  Uiso   1.00
C371   C     0.87810   0.09518   0.22480   0.00000  Uiso   1.00
C372   C     0.77371   0.47669   0.41864   0.00000  Uiso   1.00
C373   C     0.62190   0.40482   0.77520   0.00000  Uiso   1.00
C374   C     0.90335   0.37661   0.22279   0.00000  Uiso   1.00
C375   C     0.59665   0.12339   0.77721   0.00000  Uiso   1.00
C376   C     0.62339   0.09665   0.77721   0.00000  Uiso   1.00
C377   C     0.87661   0.40335   0.22279   0.00000  Uiso   1.00
C378   C     0.59518   0.37810   0.77520   0.00000  Uiso   1.00
C379   C     0.90482   0.12190   0.22480   0.00000  Uiso   1.00
C380   C     0.87661   0.40335   0.77721   0.00000  Uiso   1.00
C381   C     0.62339   0.09665   0.22279   0.00000  Uiso   1.00
C382   C     0.90482   0.12190   0.77520   0.00000  Uiso   1.00
C383   C     0.72630   0.02331   0.58136   0.00000  Uiso   1.00
C384   C     0.59518   0.37810   0.22480   0.00000  Uiso   1.00
C385   C     0.87190   0.15482   0.72480   0.00000  Uiso   1.00
C386   C     0.62810   0.34518   0.27520   0.00000  Uiso   1.00
C387   C     0.84665   0.37339   0.72279   0.00000  Uiso   1.00
C388   C     0.65335   0.12661   0.27721   0.00000  Uiso   1.00
C389   C     0.62810   0.34518   0.72480   0.00000  Uiso   1.00
C390   C     0.87190   0.15482   0.27520   0.00000  Uiso   1.00
C391   C     0.65335   0.12661   0.72279   0.00000  Uiso   1.00
C392   C     0.84665   0.37339   0.27721   0.00000  Uiso   1.00
C393   C     0.87339   0.34665   0.27721   0.00000  Uiso   1.00
C394   C     0.72669   0.02371   0.91864   0.00000  Uiso   1.00
C395   C     0.62661   0.15335   0.72279   0.00000  Uiso   1.00
C396   C     0.84518   0.12810   0.27520   0.00000  Uiso   1.00
C397   C     0.65482   0.37190   0.72480   0.00000  Uiso   1.00
C398   C     0.62661   0.15335   0.27721   0.00000  Uiso   1.00
C399   C     0.87339   0.34665   0.72279   0.00000  Uiso   1.00
C400   C     0.65482   0.37190   0.27520   0.00000  Uiso   1.00
C401   C     0.84518   0.12810   0.72480   0.00000  Uiso   1.00
C402   C     0.52769   0.23106   0.45908   0.00000  Uiso   1.00
C403   C     0.97231   0.26895   0.54092   0.00000  Uiso   1.00
C404   C     0.76895   0.47231   0.45908   0.00000  Uiso   1.00
H405   H     0.61908   0.42772   0.20510   0.00000  Uiso   1.00
H406   H     0.87820   0.42506   0.20144   0.00000  Uiso   1.00
H407   H     0.57228   0.38092   0.79491   0.00000  Uiso   1.00
H408   H     0.92772   0.11908   0.20509   0.00000  Uiso   1.00
H409   H     0.87820   0.42506   0.79856   0.00000  Uiso   1.00
H410   H     0.62180   0.07494   0.20144   0.00000  Uiso   1.00
H411   H     0.92772   0.11908   0.79491   0.00000  Uiso   1.00
H412   H     0.57228   0.38092   0.20510   0.00000  Uiso   1.00
H413   H     0.86908   0.17772   0.70510   0.00000  Uiso   1.00
H414   H     0.63092   0.32228   0.29491   0.00000  Uiso   1.00
H415   H     0.82494   0.37180   0.70144   0.00000  Uiso   1.00
H416   H     0.88092   0.07228   0.79491   0.00000  Uiso   1.00
H417   H     0.67506   0.12820   0.29856   0.00000  Uiso   1.00
H418   H     0.63092   0.32228   0.70510   0.00000  Uiso   1.00
H419   H     0.86908   0.17772   0.29490   0.00000  Uiso   1.00
H420   H     0.67506   0.12820   0.70144   0.00000  Uiso   1.00
H421   H     0.82494   0.37180   0.29856   0.00000  Uiso   1.00
H422   H     0.87180   0.32494   0.29856   0.00000  Uiso   1.00
H423   H     0.62820   0.17506   0.70144   0.00000  Uiso   1.00
H424   H     0.82228   0.13092   0.29490   0.00000  Uiso   1.00
H425   H     0.67772   0.36908   0.70510   0.00000  Uiso   1.00
H426   H     0.62820   0.17506   0.29856   0.00000  Uiso   1.00
H427   H     0.57494   0.12180   0.20144   0.00000  Uiso   1.00
H428   H     0.87180   0.32494   0.70144   0.00000  Uiso   1.00
H429   H     0.67772   0.36908   0.29491   0.00000  Uiso   1.00
H430   H     0.82228   0.13092   0.70510   0.00000  Uiso   1.00
H431   H     0.92506   0.37820   0.79856   0.00000  Uiso   1.00
H432   H     0.88092   0.07228   0.20509   0.00000  Uiso   1.00
H433   H     0.61908   0.42772   0.79491   0.00000  Uiso   1.00
H434   H     0.92506   0.37820   0.20144   0.00000  Uiso   1.00
H435   H     0.57494   0.12180   0.79856   0.00000  Uiso   1.00
H436   H     0.62180   0.07494   0.79856   0.00000  Uiso   1.00
I437   I     0.61005   0.21281   0.44888   0.00000  Uiso   1.00
I438   I     0.63995   0.03719   0.05112   0.00000  Uiso   1.00
I439   I     0.53719   0.13995   0.94888   0.00000  Uiso   1.00
I440   I     0.96281   0.36005   0.05112   0.00000  Uiso   1.00
I441   I     0.63995   0.03719   0.94888   0.00000  Uiso   1.00
I442   I     0.86005   0.46281   0.05112   0.00000  Uiso   1.00
I443   I     0.96281   0.36005   0.94888   0.00000  Uiso   1.00
I444   I     0.53719   0.13995   0.05112   0.00000  Uiso   1.00
I445   I     0.95985   0.32310   0.39009   0.00000  Uiso   1.00
I446   I     0.54015   0.17690   0.60991   0.00000  Uiso   1.00
I447   I     0.67690   0.04015   0.39009   0.00000  Uiso   1.00
I448   I     0.88995   0.28719   0.55112   0.00000  Uiso   1.00
I449   I     0.82310   0.45985   0.60991   0.00000  Uiso   1.00
I450   I     0.54015   0.17690   0.39009   0.00000  Uiso   1.00
I451   I     0.95985   0.32310   0.60991   0.00000  Uiso   1.00
I452   I     0.82310   0.45985   0.39009   0.00000  Uiso   1.00
I453   I     0.67690   0.04015   0.60991   0.00000  Uiso   1.00
I454   I     0.70985   0.07310   0.89009   0.00000  Uiso   1.00
I455   I     0.79015   0.42690   0.10991   0.00000  Uiso   1.00
I456   I     0.92690   0.29015   0.89009   0.00000  Uiso   1.00
I457   I     0.57310   0.20985   0.10991   0.00000  Uiso   1.00
I458   I     0.79015   0.42690   0.89009   0.00000  Uiso   1.00
I459   I     0.78719   0.38995   0.44888   0.00000  Uiso   1.00
I460   I     0.70985   0.07310   0.10991   0.00000  Uiso   1.00
I461   I     0.57310   0.20985   0.89009   0.00000  Uiso   1.00
I462   I     0.92690   0.29015   0.10991   0.00000  Uiso   1.00
I463   I     0.71281   0.11005   0.55112   0.00000  Uiso   1.00
I464   I     0.88995   0.28719   0.44888   0.00000  Uiso   1.00
I465   I     0.61005   0.21281   0.55112   0.00000  Uiso   1.00
I466   I     0.71281   0.11005   0.44888   0.00000  Uiso   1.00
I467   I     0.78719   0.38995   0.55112   0.00000  Uiso   1.00
I468   I     0.86005   0.46281   0.94888   0.00000  Uiso   1.00
O469   O     0.75000   0.00000   0.25000   0.00000  Uiso   1.00
O470   O     0.75000   0.46964   0.66245   0.00000  Uiso   1.00
O471   O     0.96964   0.25000   0.33755   0.00000  Uiso   1.00
O472   O     0.53037   0.25000   0.66245   0.00000  Uiso   1.00
O473   O     0.50000   0.21964   0.83755   0.00000  Uiso   1.00
O474   O     0.50000   0.28036   0.16245   0.00000  Uiso   1.00
O475   O     0.78037   0.00000   0.83755   0.00000  Uiso   1.00
O476   O     0.71964   0.00000   0.16245   0.00000  Uiso   1.00
O477   O     0.50000   0.28037   0.83755   0.00000  Uiso   1.00
O478   O     0.50000   0.21964   0.16245   0.00000  Uiso   1.00
O479   O     0.71964   0.00000   0.83755   0.00000  Uiso   1.00
O480   O     0.75000   0.00000   0.75000   0.00000  Uiso   1.00
O481   O     0.78037   0.00000   0.16245   0.00000  Uiso   1.00
O482   O     0.70725   0.07308   0.27302   0.00000  Uiso   1.00
O483   O     0.79276   0.42693   0.72698   0.00000  Uiso   1.00
O484   O     0.92693   0.20725   0.27302   0.00000  Uiso   1.00
O485   O     0.57308   0.29276   0.72698   0.00000  Uiso   1.00
O486   O     0.79276   0.42693   0.27302   0.00000  Uiso   1.00
O487   O     0.70725   0.07308   0.72698   0.00000  Uiso   1.00
O488   O     0.57308   0.29276   0.27302   0.00000  Uiso   1.00
O489   O     0.92693   0.20725   0.72698   0.00000  Uiso   1.00
O490   O     0.70725   0.42693   0.72698   0.00000  Uiso   1.00
O491   O     0.50000   0.25000   0.25000   0.00000  Uiso   1.00
O492   O     0.79276   0.07308   0.27302   0.00000  Uiso   1.00
O493   O     0.92693   0.29276   0.72698   0.00000  Uiso   1.00
O494   O     0.57308   0.20725   0.27302   0.00000  Uiso   1.00
O495   O     0.79276   0.07308   0.72698   0.00000  Uiso   1.00
O496   O     0.70725   0.42693   0.27302   0.00000  Uiso   1.00
O497   O     0.57308   0.20725   0.72698   0.00000  Uiso   1.00
O498   O     0.92693   0.29276   0.27302   0.00000  Uiso   1.00
O499   O     0.95725   0.32308   0.77302   0.00000  Uiso   1.00
O500   O     0.54276   0.17693   0.22698   0.00000  Uiso   1.00
O501   O     0.67693   0.45725   0.77302   0.00000  Uiso   1.00
O502   O     0.50000   0.25000   0.75000   0.00000  Uiso   1.00
O503   O     0.82308   0.04276   0.22698   0.00000  Uiso   1.00
O504   O     0.54276   0.17693   0.77302   0.00000  Uiso   1.00
O505   O     0.95725   0.32308   0.22698   0.00000  Uiso   1.00
O506   O     0.82308   0.04276   0.77302   0.00000  Uiso   1.00
O507   O     0.67693   0.45725   0.22698   0.00000  Uiso   1.00
O508   O     0.95725   0.17693   0.22698   0.00000  Uiso   1.00
O509   O     0.54276   0.32308   0.77302   0.00000  Uiso   1.00
O510   O     0.67693   0.04276   0.22698   0.00000  Uiso   1.00
O511   O     0.82308   0.45725   0.77302   0.00000  Uiso   1.00
O512   O     0.54276   0.32308   0.22698   0.00000  Uiso   1.00
O513   O     0.75000   0.46964   0.33755   0.00000  Uiso   1.00
O514   O     0.95725   0.17693   0.77302   0.00000  Uiso   1.00
O515   O     0.82308   0.45725   0.22698   0.00000  Uiso   1.00
O516   O     0.67693   0.04276   0.77302   0.00000  Uiso   1.00
O517   O     0.75000   0.03037   0.66245   0.00000  Uiso   1.00
O518   O     0.53037   0.25000   0.33755   0.00000  Uiso   1.00
O519   O     0.96964   0.25000   0.66245   0.00000  Uiso   1.00
O520   O     0.75000   0.03037   0.33755   0.00000  Uiso   1.00
Zn521  Zn    0.70660   0.00000   0.21735   0.00000  Uiso   1.00
Zn522  Zn    0.54341   0.25000   0.28265   0.00000  Uiso   1.00
Zn523  Zn    0.75000   0.45660   0.71735   0.00000  Uiso   1.00
Zn524  Zn    0.75000   0.04341   0.28265   0.00000  Uiso   1.00
Zn525  Zn    0.54341   0.25000   0.71735   0.00000  Uiso   1.00
Zn526  Zn    0.95660   0.25000   0.28265   0.00000  Uiso   1.00
Zn527  Zn    0.75000   0.04341   0.71735   0.00000  Uiso   1.00
Zn528  Zn    0.75000   0.45660   0.28265   0.00000  Uiso   1.00
Zn529  Zn    0.79341   0.00000   0.78265   0.00000  Uiso   1.00
Zn530  Zn    0.50000   0.20659   0.21735   0.00000  Uiso   1.00
Zn531  Zn    0.50000   0.29341   0.78265   0.00000  Uiso   1.00
Zn532  Zn    0.79341   0.00000   0.21735   0.00000  Uiso   1.00
Zn533  Zn    0.70660   0.00000   0.78265   0.00000  Uiso   1.00
Zn534  Zn    0.50000   0.29340   0.21735   0.00000  Uiso   1.00
Zn535  Zn    0.50000   0.20659   0.78265   0.00000  Uiso   1.00
Zn536  Zn    0.95660   0.25000   0.71735   0.00000  Uiso   1.00
C537   C     0.47669   0.77371   0.41864   0.00000  Uiso   1.00
C538   C     0.27331   0.97630   0.08136   0.00000  Uiso   1.00
C539   C     0.23106   0.52769   0.54092   0.00000  Uiso   1.00
C540   C     0.47231   0.76895   0.45908   0.00000  Uiso   1.00
C541   C     0.02769   0.73106   0.54092   0.00000  Uiso   1.00
C542   C     0.23106   0.52769   0.45908   0.00000  Uiso   1.00
C543   C     0.26895   0.97231   0.54092   0.00000  Uiso   1.00
C544   C     0.27769   0.98106   0.95908   0.00000  Uiso   1.00
C545   C     0.22231   0.51895   0.04092   0.00000  Uiso   1.00
C546   C     0.01895   0.72231   0.95908   0.00000  Uiso   1.00
C547   C     0.48106   0.77769   0.04092   0.00000  Uiso   1.00
C548   C     0.22231   0.51895   0.95908   0.00000  Uiso   1.00
C549   C     0.47630   0.77331   0.91864   0.00000  Uiso   1.00
C550   C     0.27769   0.98106   0.04092   0.00000  Uiso   1.00
C551   C     0.48106   0.77769   0.95908   0.00000  Uiso   1.00
C552   C     0.01895   0.72231   0.04092   0.00000  Uiso   1.00
C553   C     0.09814   0.84814   0.25000   0.00000  Uiso   1.00
C554   C     0.40186   0.65186   0.75000   0.00000  Uiso   1.00
C555   C     0.15187   0.59813   0.25000   0.00000  Uiso   1.00
C556   C     0.34813   0.90187   0.75000   0.00000  Uiso   1.00
C557   C     0.40186   0.65186   0.25000   0.00000  Uiso   1.00
C558   C     0.09814   0.84814   0.75000   0.00000  Uiso   1.00
C559   C     0.34813   0.90187   0.25000   0.00000  Uiso   1.00
C560   C     0.02371   0.72669   0.08136   0.00000  Uiso   1.00
C561   C     0.15187   0.59813   0.75000   0.00000  Uiso   1.00
C562   C     0.09813   0.65187   0.75000   0.00000  Uiso   1.00
C563   C     0.40187   0.84813   0.25000   0.00000  Uiso   1.00
C564   C     0.15186   0.90186   0.75000   0.00000  Uiso   1.00
C565   C     0.34814   0.59814   0.25000   0.00000  Uiso   1.00
C566   C     0.40187   0.84813   0.75000   0.00000  Uiso   1.00
C567   C     0.09813   0.65187   0.25000   0.00000  Uiso   1.00
C568   C     0.34814   0.59814   0.75000   0.00000  Uiso   1.00
C569   C     0.15186   0.90186   0.25000   0.00000  Uiso   1.00
C570   C     0.00000   0.75000   0.47957   0.00000  Uiso   1.00
C571   C     0.27331   0.97630   0.91864   0.00000  Uiso   1.00
C572   C     0.00000   0.75000   0.52043   0.00000  Uiso   1.00
C573   C     0.25000   0.50000   0.47957   0.00000  Uiso   1.00
C574   C     0.25000   0.50000   0.52043   0.00000  Uiso   1.00
C575   C     0.25000   0.50000   0.97957   0.00000  Uiso   1.00
C576   C     0.25000   0.50000   0.02043   0.00000  Uiso   1.00
C577   C     0.00000   0.75000   0.97957   0.00000  Uiso   1.00
C578   C     0.00000   0.75000   0.02043   0.00000  Uiso   1.00
C579   C     0.22669   0.52371   0.08136   0.00000  Uiso   1.00
C580   C     0.02371   0.72669   0.91864   0.00000  Uiso   1.00
C581   C     0.47630   0.77331   0.08136   0.00000  Uiso   1.00
C582   C     0.00000   0.75000   0.39835   0.00000  Uiso   1.00
C583   C     0.00000   0.75000   0.60165   0.00000  Uiso   1.00
C584   C     0.25000   0.50000   0.39835   0.00000  Uiso   1.00
C585   C     0.02331   0.72630   0.58136   0.00000  Uiso   1.00
C586   C     0.25000   0.50000   0.60165   0.00000  Uiso   1.00
C587   C     0.25000   0.50000   0.89835   0.00000  Uiso   1.00
C588   C     0.25000   0.50000   0.10165   0.00000  Uiso   1.00
C589   C     0.00000   0.75000   0.89835   0.00000  Uiso   1.00
C590   C     0.00000   0.75000   0.10165   0.00000  Uiso   1.00
C591   C     0.05915   0.71921   0.47941   0.00000  Uiso   1.00
C592   C     0.44085   0.78079   0.52059   0.00000  Uiso   1.00
C593   C     0.28079   0.94085   0.47941   0.00000  Uiso   1.00
C594   C     0.21921   0.55915   0.52059   0.00000  Uiso   1.00
C595   C     0.44085   0.78079   0.47941   0.00000  Uiso   1.00
C596   C     0.22630   0.52331   0.41864   0.00000  Uiso   1.00
C597   C     0.05915   0.71921   0.52059   0.00000  Uiso   1.00
C598   C     0.21921   0.55915   0.47941   0.00000  Uiso   1.00
C599   C     0.28079   0.94085   0.52059   0.00000  Uiso   1.00
C600   C     0.30915   0.96921   0.97941   0.00000  Uiso   1.00
C601   C     0.19085   0.53079   0.02059   0.00000  Uiso   1.00
C602   C     0.03079   0.69085   0.97941   0.00000  Uiso   1.00
C603   C     0.46921   0.80915   0.02059   0.00000  Uiso   1.00
C604   C     0.19085   0.53079   0.97941   0.00000  Uiso   1.00
C605   C     0.30915   0.96921   0.02059   0.00000  Uiso   1.00
C606   C     0.46921   0.80915   0.97941   0.00000  Uiso   1.00
C607   C     0.27371   0.97669   0.58136   0.00000  Uiso   1.00
C608   C     0.03079   0.69085   0.02059   0.00000  Uiso   1.00
C609   C     0.25000   0.50000   0.35589   0.00000  Uiso   1.00
C610   C     0.25000   0.50000   0.64411   0.00000  Uiso   1.00
C611   C     0.00000   0.75000   0.35589   0.00000  Uiso   1.00
C612   C     0.00000   0.75000   0.64411   0.00000  Uiso   1.00
C613   C     0.00000   0.75000   0.85589   0.00000  Uiso   1.00
C614   C     0.00000   0.75000   0.14411   0.00000  Uiso   1.00
C615   C     0.25000   0.50000   0.85589   0.00000  Uiso   1.00
C616   C     0.25000   0.50000   0.14411   0.00000  Uiso   1.00
C617   C     0.17993   0.57007   0.25000   0.00000  Uiso   1.00
C618   C     0.02331   0.72630   0.41864   0.00000  Uiso   1.00
C619   C     0.32007   0.92993   0.75000   0.00000  Uiso   1.00
C620   C     0.42992   0.67992   0.25000   0.00000  Uiso   1.00
C621   C     0.07008   0.82008   0.75000   0.00000  Uiso   1.00
C622   C     0.32007   0.92993   0.25000   0.00000  Uiso   1.00
C623   C     0.17993   0.57007   0.75000   0.00000  Uiso   1.00
C624   C     0.07008   0.82008   0.25000   0.00000  Uiso   1.00
C625   C     0.42992   0.67992   0.75000   0.00000  Uiso   1.00
C626   C     0.17992   0.92992   0.75000   0.00000  Uiso   1.00
C627   C     0.32008   0.57008   0.25000   0.00000  Uiso   1.00
C628   C     0.42993   0.82007   0.75000   0.00000  Uiso   1.00
C629   C     0.47669   0.77371   0.58136   0.00000  Uiso   1.00
C630   C     0.07007   0.67993   0.25000   0.00000  Uiso   1.00
C631   C     0.32008   0.57008   0.75000   0.00000  Uiso   1.00
C632   C     0.17992   0.92992   0.25000   0.00000  Uiso   1.00
C633   C     0.07007   0.67993   0.75000   0.00000  Uiso   1.00
C634   C     0.42993   0.82007   0.25000   0.00000  Uiso   1.00
C635   C     0.12190   0.90482   0.22480   0.00000  Uiso   1.00
C636   C     0.37810   0.59518   0.77520   0.00000  Uiso   1.00
C637   C     0.09665   0.62339   0.22279   0.00000  Uiso   1.00
C638   C     0.40335   0.87661   0.77721   0.00000  Uiso   1.00
C639   C     0.37810   0.59518   0.22480   0.00000  Uiso   1.00
C640   C     0.27371   0.97669   0.41864   0.00000  Uiso   1.00
C641   C     0.12190   0.90482   0.77520   0.00000  Uiso   1.00
C642   C     0.40335   0.87661   0.22279   0.00000  Uiso   1.00
C643   C     0.09665   0.62339   0.77721   0.00000  Uiso   1.00
C644   C     0.12339   0.59665   0.77721   0.00000  Uiso   1.00
C645   C     0.37661   0.90335   0.22279   0.00000  Uiso   1.00
C646   C     0.09518   0.87810   0.77520   0.00000  Uiso   1.00
C647   C     0.40482   0.62190   0.22480   0.00000  Uiso   1.00
C648   C     0.37661   0.90335   0.77721   0.00000  Uiso   1.00
C649   C     0.12339   0.59665   0.22279   0.00000  Uiso   1.00
C650   C     0.40482   0.62190   0.77520   0.00000  Uiso   1.00
C651   C     0.22630   0.52331   0.58136   0.00000  Uiso   1.00
C652   C     0.09518   0.87810   0.22480   0.00000  Uiso   1.00
C653   C     0.37190   0.65482   0.72480   0.00000  Uiso   1.00
C654   C     0.12810   0.84518   0.27520   0.00000  Uiso   1.00
C655   C     0.34665   0.87339   0.72279   0.00000  Uiso   1.00
C656   C     0.15335   0.62661   0.27721   0.00000  Uiso   1.00
C657   C     0.12810   0.84518   0.72480   0.00000  Uiso   1.00
C658   C     0.37190   0.65482   0.27520   0.00000  Uiso   1.00
C659   C     0.15335   0.62661   0.72279   0.00000  Uiso   1.00
C660   C     0.34665   0.87339   0.27721   0.00000  Uiso   1.00
C661   C     0.37339   0.84665   0.27721   0.00000  Uiso   1.00
C662   C     0.22669   0.52371   0.91864   0.00000  Uiso   1.00
C663   C     0.12661   0.65335   0.72279   0.00000  Uiso   1.00
C664   C     0.34518   0.62810   0.27520   0.00000  Uiso   1.00
C665   C     0.15482   0.87190   0.72480   0.00000  Uiso   1.00
C666   C     0.12661   0.65335   0.27721   0.00000  Uiso   1.00
C667   C     0.37339   0.84665   0.72279   0.00000  Uiso   1.00
C668   C     0.15482   0.87190   0.27520   0.00000  Uiso   1.00
C669   C     0.34518   0.62810   0.72480   0.00000  Uiso   1.00
C670   C     0.02769   0.73106   0.45908   0.00000  Uiso   1.00
C671   C     0.47231   0.76895   0.54092   0.00000  Uiso   1.00
C672   C     0.26895   0.97231   0.45908   0.00000  Uiso   1.00
H673   H     0.11908   0.92772   0.20510   0.00000  Uiso   1.00
H674   H     0.37820   0.92506   0.20144   0.00000  Uiso   1.00
H675   H     0.07228   0.88092   0.79491   0.00000  Uiso   1.00
H676   H     0.42772   0.61908   0.20509   0.00000  Uiso   1.00
H677   H     0.37820   0.92506   0.79856   0.00000  Uiso   1.00
H678   H     0.12180   0.57494   0.20144   0.00000  Uiso   1.00
H679   H     0.42772   0.61908   0.79491   0.00000  Uiso   1.00
H680   H     0.07228   0.88092   0.20510   0.00000  Uiso   1.00
H681   H     0.36908   0.67772   0.70510   0.00000  Uiso   1.00
H682   H     0.13092   0.82228   0.29491   0.00000  Uiso   1.00
H683   H     0.32494   0.87180   0.70144   0.00000  Uiso   1.00
H684   H     0.38092   0.57228   0.79491   0.00000  Uiso   1.00
H685   H     0.17506   0.62820   0.29856   0.00000  Uiso   1.00
H686   H     0.13092   0.82228   0.70510   0.00000  Uiso   1.00
H687   H     0.36908   0.67772   0.29490   0.00000  Uiso   1.00
H688   H     0.17506   0.62820   0.70144   0.00000  Uiso   1.00
H689   H     0.32494   0.87180   0.29856   0.00000  Uiso   1.00
H690   H     0.37180   0.82494   0.29856   0.00000  Uiso   1.00
H691   H     0.12820   0.67506   0.70144   0.00000  Uiso   1.00
H692   H     0.32228   0.63092   0.29490   0.00000  Uiso   1.00
H693   H     0.17772   0.86908   0.70510   0.00000  Uiso   1.00
H694   H     0.12820   0.67506   0.29856   0.00000  Uiso   1.00
H695   H     0.07494   0.62180   0.20144   0.00000  Uiso   1.00
H696   H     0.37180   0.82494   0.70144   0.00000  Uiso   1.00
H697   H     0.17772   0.86908   0.29491   0.00000  Uiso   1.00
H698   H     0.32228   0.63092   0.70510   0.00000  Uiso   1.00
H699   H     0.42506   0.87820   0.79856   0.00000  Uiso   1.00
H700   H     0.38092   0.57228   0.20509   0.00000  Uiso   1.00
H701   H     0.11908   0.92772   0.79491   0.00000  Uiso   1.00
H702   H     0.42506   0.87820   0.20144   0.00000  Uiso   1.00
H703   H     0.07494   0.62180   0.79856   0.00000  Uiso   1.00
H704   H     0.12180   0.57494   0.79856   0.00000  Uiso   1.00
I705   I     0.11005   0.71281   0.44888   0.00000  Uiso   1.00
I706   I     0.13995   0.53719   0.05112   0.00000  Uiso   1.00
I707   I     0.03719   0.63995   0.94888   0.00000  Uiso   1.00
I708   I     0.46281   0.86005   0.05112   0.00000  Uiso   1.00
I709   I     0.13995   0.53719   0.94888   0.00000  Uiso   1.00
I710   I     0.36005   0.96281   0.05112   0.00000  Uiso   1.00
I711   I     0.46281   0.86005   0.94888   0.00000  Uiso   1.00
I712   I     0.03719   0.63995   0.05112   0.00000  Uiso   1.00
I713   I     0.45985   0.82310   0.39009   0.00000  Uiso   1.00
I714   I     0.04015   0.67690   0.60991   0.00000  Uiso   1.00
I715   I     0.17690   0.54015   0.39009   0.00000  Uiso   1.00
I716   I     0.38995   0.78719   0.55112   0.00000  Uiso   1.00
I717   I     0.32310   0.95985   0.60991   0.00000  Uiso   1.00
I718   I     0.04015   0.67690   0.39009   0.00000  Uiso   1.00
I719   I     0.45985   0.82310   0.60991   0.00000  Uiso   1.00
I720   I     0.32310   0.95985   0.39009   0.00000  Uiso   1.00
I721   I     0.17690   0.54015   0.60991   0.00000  Uiso   1.00
I722   I     0.20985   0.57310   0.89009   0.00000  Uiso   1.00
I723   I     0.29015   0.92690   0.10991   0.00000  Uiso   1.00
I724   I     0.42690   0.79015   0.89009   0.00000  Uiso   1.00
I725   I     0.07310   0.70985   0.10991   0.00000  Uiso   1.00
I726   I     0.29015   0.92690   0.89009   0.00000  Uiso   1.00
I727   I     0.28719   0.88995   0.44888   0.00000  Uiso   1.00
I728   I     0.20985   0.57310   0.10991   0.00000  Uiso   1.00
I729   I     0.07310   0.70985   0.89009   0.00000  Uiso   1.00
I730   I     0.42690   0.79015   0.10991   0.00000  Uiso   1.00
I731   I     0.21281   0.61005   0.55112   0.00000  Uiso   1.00
I732   I     0.38995   0.78719   0.44888   0.00000  Uiso   1.00
I733   I     0.11005   0.71281   0.55112   0.00000  Uiso   1.00
I734   I     0.21281   0.61005   0.44888   0.00000  Uiso   1.00
I735   I     0.28719   0.88995   0.55112   0.00000  Uiso   1.00
I736   I     0.36005   0.96281   0.94888   0.00000  Uiso   1.00
O737   O     0.25000   0.50000   0.25000   0.00000  Uiso   1.00
O738   O     0.25000   0.96964   0.66245   0.00000  Uiso   1.00
O739   O     0.46964   0.75000   0.33755   0.00000  Uiso   1.00
O740   O     0.03037   0.75000   0.66245   0.00000  Uiso   1.00
O741   O     0.00000   0.71964   0.83755   0.00000  Uiso   1.00
O742   O     0.00000   0.78036   0.16245   0.00000  Uiso   1.00
O743   O     0.28037   0.50000   0.83755   0.00000  Uiso   1.00
O744   O     0.21964   0.50000   0.16245   0.00000  Uiso   1.00
O745   O     0.00000   0.78037   0.83755   0.00000  Uiso   1.00
O746   O     0.00000   0.71964   0.16245   0.00000  Uiso   1.00
O747   O     0.21964   0.50000   0.83755   0.00000  Uiso   1.00
O748   O     0.25000   0.50000   0.75000   0.00000  Uiso   1.00
O749   O     0.28037   0.50000   0.16245   0.00000  Uiso   1.00
O750   O     0.20725   0.57308   0.27302   0.00000  Uiso   1.00
O751   O     0.29276   0.92693   0.72698   0.00000  Uiso   1.00
O752   O     0.42693   0.70725   0.27302   0.00000  Uiso   1.00
O753   O     0.07308   0.79276   0.72698   0.00000  Uiso   1.00
O754   O     0.29276   0.92693   0.27302   0.00000  Uiso   1.00
O755   O     0.20725   0.57308   0.72698   0.00000  Uiso   1.00
O756   O     0.07308   0.79276   0.27302   0.00000  Uiso   1.00
O757   O     0.42693   0.70725   0.72698   0.00000  Uiso   1.00
O758   O     0.20725   0.92693   0.72698   0.00000  Uiso   1.00
O759   O     0.00000   0.75000   0.25000   0.00000  Uiso   1.00
O760   O     0.29276   0.57308   0.27302   0.00000  Uiso   1.00
O761   O     0.42693   0.79276   0.72698   0.00000  Uiso   1.00
O762   O     0.07308   0.70725   0.27302   0.00000  Uiso   1.00
O763   O     0.29276   0.57308   0.72698   0.00000  Uiso   1.00
O764   O     0.20725   0.92693   0.27302   0.00000  Uiso   1.00
O765   O     0.07308   0.70725   0.72698   0.00000  Uiso   1.00
O766   O     0.42693   0.79276   0.27302   0.00000  Uiso   1.00
O767   O     0.45725   0.82308   0.77302   0.00000  Uiso   1.00
O768   O     0.04276   0.67693   0.22698   0.00000  Uiso   1.00
O769   O     0.17693   0.95725   0.77302   0.00000  Uiso   1.00
O770   O     0.00000   0.75000   0.75000   0.00000  Uiso   1.00
O771   O     0.32308   0.54276   0.22698   0.00000  Uiso   1.00
O772   O     0.04276   0.67693   0.77302   0.00000  Uiso   1.00
O773   O     0.45725   0.82308   0.22698   0.00000  Uiso   1.00
O774   O     0.32308   0.54276   0.77302   0.00000  Uiso   1.00
O775   O     0.17693   0.95725   0.22698   0.00000  Uiso   1.00
O776   O     0.45725   0.67693   0.22698   0.00000  Uiso   1.00
O777   O     0.04276   0.82308   0.77302   0.00000  Uiso   1.00
O778   O     0.17693   0.54276   0.22698   0.00000  Uiso   1.00
O779   O     0.32308   0.95725   0.77302   0.00000  Uiso   1.00
O780   O     0.04276   0.82308   0.22698   0.00000  Uiso   1.00
O781   O     0.25000   0.96964   0.33755   0.00000  Uiso   1.00
O782   O     0.45725   0.67693   0.77302   0.00000  Uiso   1.00
O783   O     0.32308   0.95725   0.22698   0.00000  Uiso   1.00
O784   O     0.17693   0.54276   0.77302   0.00000  Uiso   1.00
O785   O     0.25000   0.53037   0.66245   0.00000  Uiso   1.00
O786   O     0.03037   0.75000   0.33755   0.00000  Uiso   1.00
O787   O     0.46964   0.75000   0.66245   0.00000  Uiso   1.00
O788   O     0.25000   0.53037   0.33755   0.00000  Uiso   1.00
Zn789  Zn    0.20660   0.50000   0.21735   0.00000  Uiso   1.00
Zn790  Zn    0.04341   0.75000   0.28265   0.00000  Uiso   1.00
Zn791  Zn    0.25000   0.95660   0.71735   0.00000  Uiso   1.00
Zn792  Zn    0.25000   0.54341   0.28265   0.00000  Uiso   1.00
Zn793  Zn    0.04341   0.75000   0.71735   0.00000  Uiso   1.00
Zn794  Zn    0.45660   0.75000   0.28265   0.00000  Uiso   1.00
Zn795  Zn    0.25000   0.54341   0.71735   0.00000  Uiso   1.00
Zn796  Zn    0.25000   0.95660   0.28265   0.00000  Uiso   1.00
Zn797  Zn    0.29341   0.50000   0.78265   0.00000  Uiso   1.00
Zn798  Zn    0.00000   0.70659   0.21735   0.00000  Uiso   1.00
Zn799  Zn    0.00000   0.79341   0.78265   0.00000  Uiso   1.00
Zn800  Zn    0.29341   0.50000   0.21735   0.00000  Uiso   1.00
Zn801  Zn    0.20660   0.50000   0.78265   0.00000  Uiso   1.00
Zn802  Zn    0.00000   0.79340   0.21735   0.00000  Uiso   1.00
Zn803  Zn    0.00000   0.70659   0.78265   0.00000  Uiso   1.00
Zn804  Zn    0.45660   0.75000   0.71735   0.00000  Uiso   1.00
C805   C     0.97669   0.77371   0.41864   0.00000  Uiso   1.00
C806   C     0.77331   0.97630   0.08136   0.00000  Uiso   1.00
C807   C     0.73106   0.52769   0.54092   0.00000  Uiso   1.00
C808   C     0.97231   0.76895   0.45908   0.00000  Uiso   1.00
C809   C     0.52769   0.73106   0.54092   0.00000  Uiso   1.00
C810   C     0.73106   0.52769   0.45908   0.00000  Uiso   1.00
C811   C     0.76895   0.97231   0.54092   0.00000  Uiso   1.00
C812   C     0.77769   0.98106   0.95908   0.00000  Uiso   1.00
C813   C     0.72231   0.51895   0.04092   0.00000  Uiso   1.00
C814   C     0.51895   0.72231   0.95908   0.00000  Uiso   1.00
C815   C     0.98106   0.77769   0.04092   0.00000  Uiso   1.00
C816   C     0.72231   0.51895   0.95908   0.00000  Uiso   1.00
C817   C     0.97630   0.77331   0.91864   0.00000  Uiso   1.00
C818   C     0.77769   0.98106   0.04092   0.00000  Uiso   1.00
C819   C     0.98106   0.77769   0.95908   0.00000  Uiso   1.00
C820   C     0.51895   0.72231   0.04092   0.00000  Uiso   1.00
C821   C     0.59814   0.84814   0.25000   0.00000  Uiso   1.00
C822   C     0.90186   0.65186   0.75000   0.00000  Uiso   1.00
C823   C     0.65187   0.59813   0.25000   0.00000  Uiso   1.00
C824   C     0.84813   0.90187   0.75000   0.00000  Uiso   1.00
C825   C     0.90186   0.65186   0.25000   0.00000  Uiso   1.00
C826   C     0.59814   0.84814   0.75000   0.00000  Uiso   1.00
C827   C     0.84813   0.90187   0.25000   0.00000  Uiso   1.00
C828   C     0.52371   0.72669   0.08136   0.00000  Uiso   1.00
C829   C     0.65187   0.59813   0.75000   0.00000  Uiso   1.00
C830   C     0.59813   0.65187   0.75000   0.00000  Uiso   1.00
C831   C     0.90187   0.84813   0.25000   0.00000  Uiso   1.00
C832   C     0.65186   0.90186   0.75000   0.00000  Uiso   1.00
C833   C     0.84814   0.59814   0.25000   0.00000  Uiso   1.00
C834   C     0.90187   0.84813   0.75000   0.00000  Uiso   1.00
C835   C     0.59813   0.65187   0.25000   0.00000  Uiso   1.00
C836   C     0.84814   0.59814   0.75000   0.00000  Uiso   1.00
C837   C     0.65186   0.90186   0.25000   0.00000  Uiso   1.00
C838   C     0.50000   0.75000   0.47957   0.00000  Uiso   1.00
C839   C     0.77331   0.97630   0.91864   0.00000  Uiso   1.00
C840   C     0.50000   0.75000   0.52043   0.00000  Uiso   1.00
C841   C     0.75000   0.50000   0.47957   0.00000  Uiso   1.00
C842   C     0.75000   0.50000   0.52043   0.00000  Uiso   1.00
C843   C     0.75000   0.50000   0.97957   0.00000  Uiso   1.00
C844   C     0.75000   0.50000   0.02043   0.00000  Uiso   1.00
C845   C     0.50000   0.75000   0.97957   0.00000  Uiso   1.00
C846   C     0.50000   0.75000   0.02043   0.00000  Uiso   1.00
C847   C     0.72669   0.52371   0.08136   0.00000  Uiso   1.00
C848   C     0.52371   0.72669   0.91864   0.00000  Uiso   1.00
C849   C     0.97630   0.77331   0.08136   0.00000  Uiso   1.00
C850   C     0.50000   0.75000   0.39835   0.00000  Uiso   1.00
C851   C     0.50000   0.75000   0.60165   0.00000  Uiso   1.00
C852   C     0.75000   0.50000   0.39835   0.00000  Uiso   1.00
C853   C     0.52331   0.72630   0.58136   0.00000  Uiso   1.00
C854   C     0.75000   0.50000   0.60165   0.00000  Uiso   1.00
C855   C     0.75000   0.50000   0.89835   0.00000  Uiso   1.00
C856   C     0.75000   0.50000   0.10165   0.00000  Uiso   1.00
C857   C     0.50000   0.75000   0.89835   0.00000  Uiso   1.00
C858   C     0.50000   0.75000   0.10165   0.00000  Uiso   1.00
C859   C     0.55915   0.71921   0.47941   0.00000  Uiso   1.00
C860   C     0.94085   0.78079   0.52059   0.00000  Uiso   1.00
C861   C     0.78079   0.94085   0.47941   0.00000  Uiso   1.00
C862   C     0.71921   0.55915   0.52059   0.00000  Uiso   1.00
C863   C     0.94085   0.78079   0.47941   0.00000  Uiso   1.00
C864   C     0.72630   0.52331   0.41864   0.00000  Uiso   1.00
C865   C     0.55915   0.71921   0.52059   0.00000  Uiso   1.00
C866   C     0.71921   0.55915   0.47941   0.00000  Uiso   1.00
C867   C     0.78079   0.94085   0.52059   0.00000  Uiso   1.00
C868   C     0.80915   0.96921   0.97941   0.00000  Uiso   1.00
C869   C     0.69085   0.53079   0.02059   0.00000  Uiso   1.00
C870   C     0.53079   0.69085   0.97941   0.00000  Uiso   1.00
C871   C     0.96921   0.80915   0.02059   0.00000  Uiso   1.00
C872   C     0.69085   0.53079   0.97941   0.00000  Uiso   1.00
C873   C     0.80915   0.96921   0.02059   0.00000  Uiso   1.00
C874   C     0.96921   0.80915   0.97941   0.00000  Uiso   1.00
C875   C     0.77371   0.97669   0.58136   0.00000  Uiso   1.00
C876   C     0.53079   0.69085   0.02059   0.00000  Uiso   1.00
C877   C     0.75000   0.50000   0.35589   0.00000  Uiso   1.00
C878   C     0.75000   0.50000   0.64411   0.00000  Uiso   1.00
C879   C     0.50000   0.75000   0.35589   0.00000  Uiso   1.00
C880   C     0.50000   0.75000   0.64411   0.00000  Uiso   1.00
C881   C     0.50000   0.75000   0.85589   0.00000  Uiso   1.00
C882   C     0.50000   0.75000   0.14411   0.00000  Uiso   1.00
C883   C     0.75000   0.50000   0.85589   0.00000  Uiso   1.00
C884   C     0.75000   0.50000   0.14411   0.00000  Uiso   1.00
C885   C     0.67993   0.57007   0.25000   0.00000  Uiso   1.00
C886   C     0.52331   0.72630   0.41864   0.00000  Uiso   1.00
C887   C     0.82007   0.92993   0.75000   0.00000  Uiso   1.00
C888   C     0.92992   0.67992   0.25000   0.00000  Uiso   1.00
C889   C     0.57008   0.82008   0.75000   0.00000  Uiso   1.00
C890   C     0.82007   0.92993   0.25000   0.00000  Uiso   1.00
C891   C     0.67993   0.57007   0.75000   0.00000  Uiso   1.00
C892   C     0.57008   0.82008   0.25000   0.00000  Uiso   1.00
C893   C     0.92992   0.67992   0.75000   0.00000  Uiso   1.00
C894   C     0.67992   0.92992   0.75000   0.00000  Uiso   1.00
C895   C     0.82008   0.57008   0.25000   0.00000  Uiso   1.00
C896   C     0.92993   0.82007   0.75000   0.00000  Uiso   1.00
C897   C     0.97669   0.77371   0.58136   0.00000  Uiso   1.00
C898   C     0.57007   0.67993   0.25000   0.00000  Uiso   1.00
C899   C     0.82008   0.57008   0.75000   0.00000  Uiso   1.00
C900   C     0.67992   0.92992   0.25000   0.00000  Uiso   1.00
C901   C     0.57007   0.67993   0.75000   0.00000  Uiso   1.00
C902   C     0.92993   0.82007   0.25000   0.00000  Uiso   1.00
C903   C     0.62190   0.90482   0.22480   0.00000  Uiso   1.00
C904   C     0.87810   0.59518   0.77520   0.00000  Uiso   1.00
C905   C     0.59665   0.62339   0.22279   0.00000  Uiso   1.00
C906   C     0.90335   0.87661   0.77721   0.00000  Uiso   1.00
C907   C     0.87810   0.59518   0.22480   0.00000  Uiso   1.00
C908   C     0.77371   0.97669   0.41864   0.00000  Uiso   1.00
C909   C     0.62190   0.90482   0.77520   0.00000  Uiso   1.00
C910   C     0.90335   0.87661   0.22279   0.00000  Uiso   1.00
C911   C     0.59665   0.62339   0.77721   0.00000  Uiso   1.00
C912   C     0.62339   0.59665   0.77721   0.00000  Uiso   1.00
C913   C     0.87661   0.90335   0.22279   0.00000  Uiso   1.00
C914   C     0.59518   0.87810   0.77520   0.00000  Uiso   1.00
C915   C     0.90482   0.62190   0.22480   0.00000  Uiso   1.00
C916   C     0.87661   0.90335   0.77721   0.00000  Uiso   1.00
C917   C     0.62339   0.59665   0.22279   0.00000  Uiso   1.00
C918   C     0.90482   0.62190   0.77520   0.00000  Uiso   1.00
C919   C     0.72630   0.52331   0.58136   0.00000  Uiso   1.00
C920   C     0.59518   0.87810   0.22480   0.00000  Uiso   1.00
C921   C     0.87190   0.65482   0.72480   0.00000  Uiso   1.00
C922   C     0.62810   0.84518   0.27520   0.00000  Uiso   1.00
C923   C     0.84665   0.87339   0.72279   0.00000  Uiso   1.00
C924   C     0.65335   0.62661   0.27721   0.00000  Uiso   1.00
C925   C     0.62810   0.84518   0.72480   0.00000  Uiso   1.00
C926   C     0.87190   0.65482   0.27520   0.00000  Uiso   1.00
C927   C     0.65335   0.62661   0.72279   0.00000  Uiso   1.00
C928   C     0.84665   0.87339   0.27721   0.00000  Uiso   1.00
C929   C     0.87339   0.84665   0.27721   0.00000  Uiso   1.00
C930   C     0.72669   0.52371   0.91864   0.00000  Uiso   1.00
C931   C     0.62661   0.65335   0.72279   0.00000  Uiso   1.00
C932   C     0.84518   0.62810   0.27520   0.00000  Uiso   1.00
C933   C     0.65482   0.87190   0.72480   0.00000  Uiso   1.00
C934   C     0.62661   0.65335   0.27721   0.00000  Uiso   1.00
C935   C     0.87339   0.84665   0.72279   0.00000  Uiso   1.00
C936   C     0.65482   0.87190   0.27520   0.00000  Uiso   1.00
C937   C     0.84518   0.62810   0.72480   0.00000  Uiso   1.00
C938   C     0.52769   0.73106   0.45908   0.00000  Uiso   1.00
C939   C     0.97231   0.76895   0.54092   0.00000  Uiso   1.00
C940   C     0.76895   0.97231   0.45908   0.00000  Uiso   1.00
H941   H     0.61908   0.92772   0.20510   0.00000  Uiso   1.00
H942   H     0.87820   0.92506   0.20144   0.00000  Uiso   1.00
H943   H     0.57228   0.88092   0.79491   0.00000  Uiso   1.00
H944   H     0.92772   0.61908   0.20509   0.00000  Uiso   1.00
H945   H     0.87820   0.92506   0.79856   0.00000  Uiso   1.00
H946   H     0.62180   0.57494   0.20144   0.00000  Uiso   1.00
H947   H     0.92772   0.61908   0.79491   0.00000  Uiso   1.00
H948   H     0.57228   0.88092   0.20510   0.00000  Uiso   1.00
H949   H     0.86908   0.67772   0.70510   0.00000  Uiso   1.00
H950   H     0.63092   0.82228   0.29491   0.00000  Uiso   1.00
H951   H     0.82494   0.87180   0.70144   0.00000  Uiso   1.00
H952   H     0.88092   0.57228   0.79491   0.00000  Uiso   1.00
H953   H     0.67506   0.62820   0.29856   0.00000  Uiso   1.00
H954   H     0.63092   0.82228   0.70510   0.00000  Uiso   1.00
H955   H     0.86908   0.67772   0.29490   0.00000  Uiso   1.00
H956   H     0.67506   0.62820   0.70144   0.00000  Uiso   1.00
H957   H     0.82494   0.87180   0.29856   0.00000  Uiso   1.00
H958   H     0.87180   0.82494   0.29856   0.00000  Uiso   1.00
H959   H     0.62820   0.67506   0.70144   0.00000  Uiso   1.00
H960   H     0.82228   0.63092   0.29490   0.00000  Uiso   1.00
H961   H     0.67772   0.86908   0.70510   0.00000  Uiso   1.00
H962   H     0.62820   0.67506   0.29856   0.00000  Uiso   1.00
H963   H     0.57494   0.62180   0.20144   0.00000  Uiso   1.00
H964   H     0.87180   0.82494   0.70144   0.00000  Uiso   1.00
H965   H     0.67772   0.86908   0.29491   0.00000  Uiso   1.00
H966   H     0.82228   0.63092   0.70510   0.00000  Uiso   1.00
H967   H     0.92506   0.87820   0.79856   0.00000  Uiso   1.00
H968   H     0.88092   0.57228   0.20509   0.00000  Uiso   1.00
H969   H     0.61908   0.92772   0.79491   0.00000  Uiso   1.00
H970   H     0.92506   0.87820   0.20144   0.00000  Uiso   1.00
H971   H     0.57494   0.62180   0.79856   0.00000  Uiso   1.00
H972   H     0.62180   0.57494   0.79856   0.00000  Uiso   1.00
I973   I     0.61005   0.71281   0.44888   0.00000  Uiso   1.00
I974   I     0.63995   0.53719   0.05112   0.00000  Uiso   1.00
I975   I     0.53719   0.63995   0.94888   0.00000  Uiso   1.00
I976   I     0.96281   0.86005   0.05112   0.00000  Uiso   1.00
I977   I     0.63995   0.53719   0.94888   0.00000  Uiso   1.00
I978   I     0.86005   0.96281   0.05112   0.00000  Uiso   1.00
I979   I     0.96281   0.86005   0.94888   0.00000  Uiso   1.00
I980   I     0.53719   0.63995   0.05112   0.00000  Uiso   1.00
I981   I     0.95985   0.82310   0.39009   0.00000  Uiso   1.00
I982   I     0.54015   0.67690   0.60991   0.00000  Uiso   1.00
I983   I     0.67690   0.54015   0.39009   0.00000  Uiso   1.00
I984   I     0.88995   0.78719   0.55112   0.00000  Uiso   1.00
I985   I     0.82310   0.95985   0.60991   0.00000  Uiso   1.00
I986   I     0.54015   0.67690   0.39009   0.00000  Uiso   1.00
I987   I     0.95985   0.82310   0.60991   0.00000  Uiso   1.00
I988   I     0.82310   0.95985   0.39009   0.00000  Uiso   1.00
I989   I     0.67690   0.54015   0.60991   0.00000  Uiso   1.00
I990   I     0.70985   0.57310   0.89009   0.00000  Uiso   1.00
I991   I     0.79015   0.92690   0.10991   0.00000  Uiso   1.00
I992   I     0.92690   0.79015   0.89009   0.00000  Uiso   1.00
I993   I     0.57310   0.70985   0.10991   0.00000  Uiso   1.00
I994   I     0.79015   0.92690   0.89009   0.00000  Uiso   1.00
I995   I     0.78719   0.88995   0.44888   0.00000  Uiso   1.00
I996   I     0.70985   0.57310   0.10991   0.00000  Uiso   1.00
I997   I     0.57310   0.70985   0.89009   0.00000  Uiso   1.00
I998   I     0.92690   0.79015   0.10991   0.00000  Uiso   1.00
I999   I     0.71281   0.61005   0.55112   0.00000  Uiso   1.00
I1000  I     0.88995   0.78719   0.44888   0.00000  Uiso   1.00
I1001  I     0.61005   0.71281   0.55112   0.00000  Uiso   1.00
I1002  I     0.71281   0.61005   0.44888   0.00000  Uiso   1.00
I1003  I     0.78719   0.88995   0.55112   0.00000  Uiso   1.00
I1004  I     0.86005   0.96281   0.94888   0.00000  Uiso   1.00
O1005  O     0.75000   0.50000   0.25000   0.00000  Uiso   1.00
O1006  O     0.75000   0.96964   0.66245   0.00000  Uiso   1.00
O1007  O     0.96964   0.75000   0.33755   0.00000  Uiso   1.00
O1008  O     0.53037   0.75000   0.66245   0.00000  Uiso   1.00
O1009  O     0.50000   0.71964   0.83755   0.00000  Uiso   1.00
O1010  O     0.50000   0.78036   0.16245   0.00000  Uiso   1.00
O1011  O     0.78037   0.50000   0.83755   0.00000  Uiso   1.00
O1012  O     0.71964   0.50000   0.16245   0.00000  Uiso   1.00
O1013  O     0.50000   0.78037   0.83755   0.00000  Uiso   1.00
O1014  O     0.50000   0.71964   0.16245   0.00000  Uiso   1.00
O1015  O     0.71964   0.50000   0.83755   0.00000  Uiso   1.00
O1016  O     0.75000   0.50000   0.75000   0.00000  Uiso   1.00
O1017  O     0.78037   0.50000   0.16245   0.00000  Uiso   1.00
O1018  O     0.70725   0.57308   0.27302   0.00000  Uiso   1.00
O1019  O     0.79276   0.92693   0.72698   0.00000  Uiso   1.00
O1020  O     0.92693   0.70725   0.27302   0.00000  Uiso   1.00
O1021  O     0.57308   0.79276   0.72698   0.00000  Uiso   1.00
O1022  O     0.79276   0.92693   0.27302   0.00000  Uiso   1.00
O1023  O     0.70725   0.57308   0.72698   0.00000  Uiso   1.00
O1024  O     0.57308   0.79276   0.27302   0.00000  Uiso   1.00
O1025  O     0.92693   0.70725   0.72698   0.00000  Uiso   1.00
O1026  O     0.70725   0.92693   0.72698   0.00000  Uiso   1.00
O1027  O     0.50000   0.75000   0.25000   0.00000  Uiso   1.00
O1028  O     0.79276   0.57308   0.27302   0.00000  Uiso   1.00
O1029  O     0.92693   0.79276   0.72698   0.00000  Uiso   1.00
O1030  O     0.57308   0.70725   0.27302   0.00000  Uiso   1.00
O1031  O     0.79276   0.57308   0.72698   0.00000  Uiso   1.00
O1032  O     0.70725   0.92693   0.27302   0.00000  Uiso   1.00
O1033  O     0.57308   0.70725   0.72698   0.00000  Uiso   1.00
O1034  O     0.92693   0.79276   0.27302   0.00000  Uiso   1.00
O1035  O     0.95725   0.82308   0.77302   0.00000  Uiso   1.00
O1036  O     0.54276   0.67693   0.22698   0.00000  Uiso   1.00
O1037  O     0.67693   0.95725   0.77302   0.00000  Uiso   1.00
O1038  O     0.50000   0.75000   0.75000   0.00000  Uiso   1.00
O1039  O     0.82308   0.54276   0.22698   0.00000  Uiso   1.00
O1040  O     0.54276   0.67693   0.77302   0.00000  Uiso   1.00
O1041  O     0.95725   0.82308   0.22698   0.00000  Uiso   1.00
O1042  O     0.82308   0.54276   0.77302   0.00000  Uiso   1.00
O1043  O     0.67693   0.95725   0.22698   0.00000  Uiso   1.00
O1044  O     0.95725   0.67693   0.22698   0.00000  Uiso   1.00
O1045  O     0.54276   0.82308   0.77302   0.00000  Uiso   1.00
O1046  O     0.67693   0.54276   0.22698   0.00000  Uiso   1.00
O1047  O     0.82308   0.95725   0.77302   0.00000  Uiso   1.00
O1048  O     0.54276   0.82308   0.22698   0.00000  Uiso   1.00
O1049  O     0.75000   0.96964   0.33755   0.00000  Uiso   1.00
O1050  O     0.95725   0.67693   0.77302   0.00000  Uiso   1.00
O1051  O     0.82308   0.95725   0.22698   0.00000  Uiso   1.00
O1052  O     0.67693   0.54276   0.77302   0.00000  Uiso   1.00
O1053  O     0.75000   0.53037   0.66245   0.00000  Uiso   1.00
O1054  O     0.53037   0.75000   0.33755   0.00000  Uiso   1.00
O1055  O     0.96964   0.75000   0.66245   0.00000  Uiso   1.00
O1056  O     0.75000   0.53037   0.33755   0.00000  Uiso   1.00
Zn1057 Zn    0.70660   0.50000   0.21735   0.00000  Uiso   1.00
Zn1058 Zn    0.54341   0.75000   0.28265   0.00000  Uiso   1.00
Zn1059 Zn    0.75000   0.95660   0.71735   0.00000  Uiso   1.00
Zn1060 Zn    0.75000   0.54341   0.28265   0.00000  Uiso   1.00
Zn1061 Zn    0.54341   0.75000   0.71735   0.00000  Uiso   1.00
Zn1062 Zn    0.95660   0.75000   0.28265   0.00000  Uiso   1.00
Zn1063 Zn    0.75000   0.54341   0.71735   0.00000  Uiso   1.00
Zn1064 Zn    0.75000   0.95660   0.28265   0.00000  Uiso   1.00
Zn1065 Zn    0.79341   0.50000   0.78265   0.00000  Uiso   1.00
Zn1066 Zn    0.50000   0.70659   0.21735   0.00000  Uiso   1.00
Zn1067 Zn    0.50000   0.79341   0.78265   0.00000  Uiso   1.00
Zn1068 Zn    0.79341   0.50000   0.21735   0.00000  Uiso   1.00
Zn1069 Zn    0.70660   0.50000   0.78265   0.00000  Uiso   1.00
Zn1070 Zn    0.50000   0.79340   0.21735   0.00000  Uiso   1.00
Zn1071 Zn    0.50000   0.70659   0.78265   0.00000  Uiso   1.00
Zn1072 Zn    0.95660   0.75000   0.71735   0.00000  Uiso   1.00
loop_
_geom_bond_atom_site_label_1
_geom_bond_atom_site_label_2
_geom_bond_distance
_geom_bond_site_symmetry_2
_ccdc_geom_bond_type
C1     I177    2.149   .     S
C1     C4      1.407   .     A
C1     C314    1.403   .     A
C2     C14     1.407   .     A
C2     I187    2.149   .     S
C2     C588    1.403   .     A
C3     C38     1.416   .     A
C3     C58     1.416   .     A
C3     C115    1.407   .     A
C4     C59     1.416   .     A
C4     C302    1.416   .     S
C5     C49     1.407   .     A
C5     C61     1.416   .     A
C5     C36     1.416   .     S
C6     C60     1.407   .     A
C6     C62     1.416   .     A
C6     C37     1.416   .     S
C7     C71     1.407   .     A
C7     C63     1.416   .     A
C7     C574    1.416   .     S
C8     C575    1.416   .     A
C8     C35     1.407   .     A
C8     C64     1.416   .     A
C9     C43     1.407   .     A
C9     C40     1.416   .     A
C9     C65     1.416   .     A
C10    C66     1.416   .     A
C10    C44     1.407   .     A
C10    C41     1.416   .     S
C11    C67     1.416   .     A
C11    C45     1.407   .     A
C11    C310    1.416   .     S
C12    C68     1.416   .     A
C12    C126    1.407   .     A
C12    C39     1.416   .     S
C13    I188    2.149   .     S
C13    C15     1.407   .     A
C13    C321    1.403   .     S
C14    C69     1.416   .     A
C14    C576    1.416   .     S
C15    C309    1.416   .     A
C15    C70     1.416   .     A
C16    C72     1.416   .     A
C16    C24     1.407   .     A
C16    C42     1.416   .     A
C17    C88     1.456   .     S
C17    C116    1.402   .     A
C17    C118    1.402   .     A
C18    C114    1.402   .     A
C18    C89     1.456   .     S
C18    C117    1.402   .     A
C19    C113    1.402   .     A
C19    C120    1.402   .     A
C19    C81     1.455   .     S
C20    C112    1.402   .     A
C20    C83     1.455   .     S
C20    C119    1.402   .     A
C21    C122    1.402   .     A
C21    C111    1.402   .     A
C21    C84     1.456   .     S
C22    C85     1.456   .     S
C22    C110    1.402   .     A
C22    C121    1.402   .     A
C23    C86     1.455   .     S
C23    C109    1.402   .     A
C23    C124    1.402   .     A
C24    I189    2.149   .     S
C24    C54     1.403   .     S
C25    C123    1.402   .     A
C25    C87     1.455   .     S
C25    C108    1.402   .     A
C26    C127    1.402   .     A
C26    C107    1.402   .     A
C26    C97     1.455   .     S
C27    C98     1.455   .     S
C27    C106    1.402   .     A
C27    C125    1.402   .     A
C28    C105    1.402   .     A
C28    C129    1.402   .     A
C28    C90     1.456   .     S
C29    C103    1.402   .     A
C29    C128    1.402   .     A
C29    C91     1.456   .     S
C30    C131    1.402   .     A
C30    C92     1.455   .     S
C30    C102    1.402   .     A
C31    C101    1.402   .     A
C31    C130    1.402   .     A
C31    C94     1.455   .     S
C32    C133    1.402   .     A
C32    C100    1.402   .     A
C32    C95     1.456   .     S
C33    C99     1.402   .     A
C33    C132    1.402   .     A
C33    C96     1.456   .     S
C34    C134    1.416   .     A
C34    C272    1.416   1_455 S
C34    C36     1.401   .     S
C35    I190    2.149   .     S
C35    C587    1.403   .     A
C36    C403    1.416   1_455 A
C37    C672    1.416   1_545 A
C37    C38     1.401   .     S
C38    C543    1.416   1_545 S
C39    C544    1.416   1_545 A
C39    C40     1.401   1_556 S
C40    C550    1.416   1_545 S
C40    C39     1.401   1_554 S
C41    C283    1.416   1_455 A
C41    C42     1.401   1_556 S
C42    C279    1.416   1_455 S
C42    C41     1.401   1_554 S
C43    I192    2.149   .     S
C43    C52     1.403   .     S
C44    I193    2.149   .     S
C44    C53     1.403   .     A
C45    C322    1.403   .     A
C45    I194    2.149   .     S
C46    C75     1.456   .     S
C46    C269    1.403   1_455 A
C46    C82     1.403   .     S
C47    C76     1.456   .     S
C47    C361    1.403   1_455 A
C47    C49     1.403   .     S
C48    C640    1.403   1_545 A
C48    C73     1.456   .     S
C48    C60     1.403   .     S
C49    I178    2.149   .     S
C50    C607    1.403   1_545 A
C50    C74     1.456   .     S
C50    C115    1.403   .     S
C51    C79     1.456   .     S
C51    C571    1.403   1_545 A
C51    C126    1.403   .     S
C52    C538    1.403   1_545 A
C52    C80     1.456   .     S
C53    C281    1.403   1_455 S
C53    C77     1.456   .     S
C54    C313    1.403   1_455 A
C54    C78     1.456   .     S
C55    I169    2.153   .     S
C55    C134    1.416   .     A
C55    C61     1.413   .     A
C56    C135    1.416   .     A
C56    I180    2.153   .     S
C56    C59     1.413   .     A
C57    I191    2.153   .     S
C57    C136    1.416   .     A
C57    C63     1.413   .     A
C58    C62     1.413   .     A
C58    I195    2.153   .     S
C59    I196    2.153   .     S
C60    I179    2.149   .     S
C61    I197    2.153   .     S
C62    I198    2.153   .     S
C63    I199    2.153   .     S
C64    I200    2.153   .     S
C64    C69     1.413   1_556 S
C65    I170    2.153   .     S
C65    C68     1.413   1_554 S
C66    I171    2.153   .     S
C66    C72     1.413   1_556 S
C67    I172    2.153   .     S
C67    C70     1.413   1_554 S
C68    I173    2.153   .     S
C68    C65     1.413   1_556 S
C69    I174    2.153   .     S
C69    C64     1.413   1_554 S
C70    I175    2.153   .     S
C70    C67     1.413   1_556 S
C71    I181    2.149   .     S
C71    C586    1.403   .     A
C72    I176    2.153   .     S
C72    C66     1.413   1_554 S
C73    O781    1.279   1_545 A
C73    O252    1.279   .     S
C74    O249    1.279   .     A
C74    O738    1.279   1_545 S
C75    O471    1.279   1_455 A
C75    O250    1.279   .     S
C76    O519    1.279   1_455 A
C76    O204    1.279   .     S
C77    O209    1.279   .     A
C77    O205    1.279   .     A
C78    O206    1.279   .     A
C78    O210    1.279   .     S
C79    O211    1.279   .     A
C79    O207    1.279   .     A
C80    O208    1.279   .     S
C80    O213    1.279   .     S
C81    O242    1.280   .     A
C81    O214    1.280   .     A
C82    C134    1.407   .     A
C82    I182    2.149   .     S
C83    O243    1.280   .     A
C83    O215    1.280   .     A
C84    O240    1.280   .     A
C84    O216    1.280   .     A
C85    O217    1.280   .     A
C85    O241    1.280   .     A
C86    O247    1.280   .     A
C86    O218    1.280   .     A
C87    O248    1.280   .     A
C87    O219    1.280   .     A
C88    O220    1.280   .     A
C88    O244    1.280   .     A
C89    O246    1.280   .     A
C89    O221    1.280   .     A
C90    O222    1.280   .     A
C90    O233    1.280   .     A
C91    O235    1.280   .     A
C91    O224    1.280   .     A
C92    O231    1.280   .     A
C92    O225    1.280   .     A
C93    C315    1.403   .     A
C93    C135    1.407   .     A
C93    I183    2.149   .     S
C94    O232    1.280   .     A
C94    O226    1.280   .     A
C95    O227    1.280   .     A
C95    O238    1.280   .     A
C96    O228    1.280   .     A
C96    O239    1.280   .     A
C97    O229    1.280   .     A
C97    O236    1.280   .     A
C98    O237    1.280   .     A
C98    O230    1.280   .     A
C99    C116    1.386   .     A
C99    H137    1.083   .     S
C100   H148    1.083   .     S
C100   C114    1.386   .     A
C101   C113    1.386   .     A
C101   H159    1.083   .     S
C102   C112    1.386   .     A
C102   H163    1.083   .     S
C103   C111    1.386   .     A
C103   H164    1.083   .     S
C104   C584    1.403   .     A
C104   I184    2.149   .     S
C104   C136    1.407   .     A
C105   C110    1.386   .     A
C105   H165    1.083   .     S
C106   H166    1.083   .     S
C106   C109    1.386   .     A
C107   C108    1.386   .     A
C107   H167    1.083   .     S
C108   H168    1.083   .     S
C109   H138    1.083   .     S
C110   H139    1.083   .     S
C111   H140    1.083   .     S
C112   H141    1.083   .     S
C113   H142    1.083   .     S
C114   H143    1.083   .     S
C115   I185    2.149   .     S
C116   H144    1.083   .     S
C117   C133    1.386   .     A
C117   H145    1.083   .     S
C118   H146    1.083   .     S
C118   C132    1.386   .     A
C119   C131    1.386   .     A
C119   H147    1.083   .     S
C120   C130    1.386   .     A
C120   H149    1.083   .     S
C121   H150    1.083   .     S
C121   C129    1.386   .     A
C122   H151    1.083   .     S
C122   C128    1.386   .     A
C123   C127    1.386   .     A
C123   H152    1.083   .     S
C124   H153    1.083   .     S
C124   C125    1.386   .     A
C125   H154    1.083   .     S
C126   I186    2.149   .     S
C127   H155    1.083   .     S
C128   H156    1.083   .     S
C129   H157    1.083   .     S
C130   H158    1.083   .     S
C131   H160    1.083   .     S
C132   H161    1.083   .     S
C133   H162    1.083   .     S
C135   C304    1.416   .     A
C136   C573    1.416   .     A
O201   Zn264   1.946   .     S
O201   Zn796   1.946   1_545 S
O201   Zn253   1.946   .     S
O201   Zn256   1.946   .     S
O202   Zn255   1.943   .     S
O202   C610    1.279   .     S
O203   Zn258   1.943   .     S
O203   C343    1.279   .     A
O204   Zn257   1.943   .     S
O205   Zn267   1.943   .     S
O206   Zn266   1.943   .     S
O207   Zn261   1.943   .     S
O208   Zn253   1.943   .     S
O209   Zn263   1.943   .     S
O210   Zn262   1.943   .     S
O211   Zn265   1.943   .     S
O212   Zn261   1.946   .     S
O212   Zn265   1.946   .     S
O212   Zn791   1.946   1_545 S
O212   Zn259   1.946   .     S
O213   Zn264   1.943   .     S
O214   Zn256   1.936   .     S
O215   Zn255   1.936   .     S
O216   Zn258   1.938   .     S
O217   Zn257   1.938   .     S
O218   Zn260   1.936   .     S
O219   Zn259   1.936   .     S
O220   Zn254   1.938   .     S
O221   Zn268   1.938   .     S
O222   Zn255   1.938   .     S
O223   Zn266   1.946   .     S
O223   Zn262   1.946   .     S
O223   Zn254   1.946   .     S
O223   Zn526   1.946   1_455 S
O224   Zn256   1.938   .     S
O225   Zn268   1.936   .     S
O226   Zn254   1.936   .     S
O227   Zn259   1.938   .     S
O228   Zn260   1.938   .     S
O229   Zn257   1.936   .     S
O230   Zn258   1.936   .     S
O231   Zn531   1.936   .     S
O232   Zn262   1.936   .     S
O233   Zn801   1.938   .     S
O234   Zn536   1.946   1_455 S
O234   Zn263   1.946   .     S
O234   Zn257   1.946   .     S
O234   Zn267   1.946   .     S
O235   Zn264   1.938   .     S
O236   Zn267   1.936   .     S
O237   Zn534   1.936   .     S
O238   Zn261   1.938   .     S
O239   Zn789   1.938   .     S
O240   Zn530   1.938   .     S
O241   Zn263   1.938   .     S
O242   Zn253   1.936   .     S
O243   Zn797   1.936   .     S
O244   Zn266   1.938   .     S
O245   C609    1.279   .     A
O245   Zn260   1.943   .     S
O246   Zn535   1.938   .     S
O247   Zn800   1.936   .     S
O248   Zn265   1.936   .     S
O249   Zn259   1.943   .     S
O250   Zn254   1.943   .     S
O251   C344    1.279   .     A
O251   Zn268   1.943   .     S
O252   Zn256   1.943   .     S
Zn253  O775    1.938   1_545 S
Zn255  O748    1.946   .     S
Zn258  O491    1.946   .     S
Zn260  O737    1.946   .     S
Zn261  O779    1.936   1_545 S
Zn262  O508    1.938   1_455 S
Zn263  O499    1.936   1_455 S
Zn264  O783    1.936   1_545 S
Zn265  O769    1.938   1_545 S
Zn266  O505    1.936   1_455 S
Zn267  O514    1.938   1_455 S
Zn268  O502    1.946   .     S
C269   I445    2.149   .     S
C269   C272    1.407   .     A
C269   C46     1.403   1_655 A
C270   C282    1.407   .     A
C270   I455    2.149   .     S
C270   C856    1.403   .     A
C271   C306    1.416   .     A
C271   C326    1.416   .     A
C271   C383    1.407   .     A
C272   C327    1.416   .     A
C272   C34     1.416   1_655 S
C273   C317    1.407   .     A
C273   C329    1.416   .     A
C273   C304    1.416   .     S
C274   C328    1.407   .     A
C274   C330    1.416   .     A
C274   C305    1.416   .     S
C275   C339    1.407   .     A
C275   C331    1.416   .     A
C275   C842    1.416   .     S
C276   C843    1.416   .     A
C276   C303    1.407   .     A
C276   C332    1.416   .     A
C277   C311    1.407   .     A
C277   C308    1.416   .     A
C277   C333    1.416   .     A
C278   C334    1.416   .     A
C278   C312    1.407   .     A
C278   C309    1.416   .     S
C279   C335    1.416   .     A
C279   C313    1.407   .     A
C279   C42     1.416   1_655 S
C280   C336    1.416   .     A
C280   C394    1.407   .     A
C280   C307    1.416   .     S
C281   I456    2.149   .     S
C281   C283    1.407   .     A
C281   C53     1.403   1_655 S
C282   C337    1.416   .     A
C282   C844    1.416   .     S
C283   C41     1.416   1_655 A
C283   C338    1.416   .     A
C284   C340    1.416   .     A
C284   C292    1.407   .     A
C284   C310    1.416   .     A
C285   C356    1.456   .     S
C285   C384    1.402   .     A
C285   C386    1.402   .     A
C286   C382    1.402   .     A
C286   C357    1.456   .     S
C286   C385    1.402   .     A
C287   C381    1.402   .     A
C287   C388    1.402   .     A
C287   C349    1.455   .     S
C288   C380    1.402   .     A
C288   C351    1.455   .     S
C288   C387    1.402   .     A
C289   C390    1.402   .     A
C289   C379    1.402   .     A
C289   C352    1.456   .     S
C290   C353    1.456   .     S
C290   C378    1.402   .     A
C290   C389    1.402   .     A
C291   C354    1.455   .     S
C291   C377    1.402   .     A
C291   C392    1.402   .     A
C292   I457    2.149   .     S
C292   C322    1.403   .     S
C293   C391    1.402   .     A
C293   C355    1.455   .     S
C293   C376    1.402   .     A
C294   C395    1.402   .     A
C294   C375    1.402   .     A
C294   C365    1.455   .     S
C295   C366    1.455   .     S
C295   C374    1.402   .     A
C295   C393    1.402   .     A
C296   C373    1.402   .     A
C296   C397    1.402   .     A
C296   C358    1.456   .     S
C297   C371    1.402   .     A
C297   C396    1.402   .     A
C297   C359    1.456   .     S
C298   C399    1.402   .     A
C298   C360    1.455   .     S
C298   C370    1.402   .     A
C299   C369    1.402   .     A
C299   C398    1.402   .     A
C299   C362    1.455   .     S
C300   C401    1.402   .     A
C300   C368    1.402   .     A
C300   C363    1.456   .     S
C301   C367    1.402   .     A
C301   C400    1.402   .     A
C301   C364    1.456   .     S
C302   C402    1.416   .     A
C302   C304    1.401   .     S
C303   I458    2.149   .     S
C303   C855    1.403   .     A
C305   C940    1.416   1_545 A
C305   C306    1.401   .     S
C306   C811    1.416   1_545 S
C307   C812    1.416   1_545 A
C307   C308    1.401   1_556 S
C308   C818    1.416   1_545 S
C308   C307    1.401   1_554 S
C309   C310    1.401   1_556 S
C310   C309    1.401   1_554 S
C311   I460    2.149   .     S
C311   C320    1.403   .     S
C312   I461    2.149   .     S
C312   C321    1.403   .     A
C313   C54     1.403   1_655 A
C313   I462    2.149   .     S
C314   C343    1.456   .     S
C314   C350    1.403   .     S
C315   C344    1.456   .     S
C315   C317    1.403   .     S
C316   C908    1.403   1_545 A
C316   C341    1.456   .     S
C316   C328    1.403   .     S
C317   I446    2.149   .     S
C318   C875    1.403   1_545 A
C318   C342    1.456   .     S
C318   C383    1.403   .     S
C319   C347    1.456   .     S
C319   C839    1.403   1_545 A
C319   C394    1.403   .     S
C320   C806    1.403   1_545 A
C320   C348    1.456   .     S
C321   C345    1.456   .     S
C322   C346    1.456   .     S
C323   I437    2.153   .     S
C323   C402    1.416   .     A
C323   C329    1.413   .     A
C324   C403    1.416   .     A
C324   I448    2.153   .     S
C324   C327    1.413   .     A
C325   I459    2.153   .     S
C325   C404    1.416   .     A
C325   C331    1.413   .     A
C326   C330    1.413   .     A
C326   I463    2.153   .     S
C327   I464    2.153   .     S
C328   I447    2.149   .     S
C329   I465    2.153   .     S
C330   I466    2.153   .     S
C331   I467    2.153   .     S
C332   I468    2.153   .     S
C332   C337    1.413   1_556 S
C333   I438    2.153   .     S
C333   C336    1.413   1_554 S
C334   I439    2.153   .     S
C334   C340    1.413   1_556 S
C335   I440    2.153   .     S
C335   C338    1.413   1_554 S
C336   I441    2.153   .     S
C336   C333    1.413   1_556 S
C337   I442    2.153   .     S
C337   C332    1.413   1_554 S
C338   I443    2.153   .     S
C338   C335    1.413   1_556 S
C339   I449    2.149   .     S
C339   C854    1.403   .     A
C340   I444    2.153   .     S
C340   C334    1.413   1_554 S
C341   O1049   1.279   1_545 A
C341   O520    1.279   .     S
C342   O517    1.279   .     A
C342   O1006   1.279   1_545 S
C343   O518    1.279   .     S
C344   O472    1.279   .     S
C345   O477    1.279   .     A
C345   O473    1.279   .     A
C346   O474    1.279   .     A
C346   O478    1.279   .     S
C347   O479    1.279   .     A
C347   O475    1.279   .     A
C348   O476    1.279   .     S
C348   O481    1.279   .     S
C349   O510    1.280   .     A
C349   O482    1.280   .     A
C350   C402    1.407   .     A
C350   I450    2.149   .     S
C351   O511    1.280   .     A
C351   O483    1.280   .     A
C352   O508    1.280   .     A
C352   O484    1.280   .     A
C353   O485    1.280   .     A
C353   O509    1.280   .     A
C354   O515    1.280   .     A
C354   O486    1.280   .     A
C355   O516    1.280   .     A
C355   O487    1.280   .     A
C356   O488    1.280   .     A
C356   O512    1.280   .     A
C357   O514    1.280   .     A
C357   O489    1.280   .     A
C358   O490    1.280   .     A
C358   O501    1.280   .     A
C359   O503    1.280   .     A
C359   O492    1.280   .     A
C360   O499    1.280   .     A
C360   O493    1.280   .     A
C361   C47     1.403   1_655 A
C361   C403    1.407   .     A
C361   I451    2.149   .     S
C362   O500    1.280   .     A
C362   O494    1.280   .     A
C363   O495    1.280   .     A
C363   O506    1.280   .     A
C364   O496    1.280   .     A
C364   O507    1.280   .     A
C365   O497    1.280   .     A
C365   O504    1.280   .     A
C366   O505    1.280   .     A
C366   O498    1.280   .     A
C367   C384    1.386   .     A
C367   H405    1.083   .     S
C368   H416    1.083   .     S
C368   C382    1.386   .     A
C369   C381    1.386   .     A
C369   H427    1.083   .     S
C370   C380    1.386   .     A
C370   H431    1.083   .     S
C371   C379    1.386   .     A
C371   H432    1.083   .     S
C372   C852    1.403   .     A
C372   I452    2.149   .     S
C372   C404    1.407   .     A
C373   C378    1.386   .     A
C373   H433    1.083   .     S
C374   H434    1.083   .     S
C374   C377    1.386   .     A
C375   C376    1.386   .     A
C375   H435    1.083   .     S
C376   H436    1.083   .     S
C377   H406    1.083   .     S
C378   H407    1.083   .     S
C379   H408    1.083   .     S
C380   H409    1.083   .     S
C381   H410    1.083   .     S
C382   H411    1.083   .     S
C383   I453    2.149   .     S
C384   H412    1.083   .     S
C385   C401    1.386   .     A
C385   H413    1.083   .     S
C386   H414    1.083   .     S
C386   C400    1.386   .     A
C387   C399    1.386   .     A
C387   H415    1.083   .     S
C388   C398    1.386   .     A
C388   H417    1.083   .     S
C389   H418    1.083   .     S
C389   C397    1.386   .     A
C390   H419    1.083   .     S
C390   C396    1.386   .     A
C391   C395    1.386   .     A
C391   H420    1.083   .     S
C392   H421    1.083   .     S
C392   C393    1.386   .     A
C393   H422    1.083   .     S
C394   I454    2.149   .     S
C395   H423    1.083   .     S
C396   H424    1.083   .     S
C397   H425    1.083   .     S
C398   H426    1.083   .     S
C399   H428    1.083   .     S
C400   H429    1.083   .     S
C401   H430    1.083   .     S
C403   C36     1.416   1_655 A
C404   C841    1.416   .     A
O469   Zn532   1.946   .     S
O469   Zn1064  1.946   1_545 S
O469   Zn521   1.946   .     S
O469   Zn524   1.946   .     S
O470   Zn523   1.943   .     S
O470   C878    1.279   .     S
O471   Zn526   1.943   .     S
O471   C75     1.279   1_655 A
O472   Zn525   1.943   .     S
O473   Zn535   1.943   .     S
O474   Zn534   1.943   .     S
O475   Zn529   1.943   .     S
O476   Zn521   1.943   .     S
O477   Zn531   1.943   .     S
O478   Zn530   1.943   .     S
O479   Zn533   1.943   .     S
O480   Zn529   1.946   .     S
O480   Zn533   1.946   .     S
O480   Zn1059  1.946   1_545 S
O480   Zn527   1.946   .     S
O481   Zn532   1.943   .     S
O482   Zn524   1.936   .     S
O483   Zn523   1.936   .     S
O484   Zn526   1.938   .     S
O485   Zn525   1.938   .     S
O486   Zn528   1.936   .     S
O487   Zn527   1.936   .     S
O488   Zn522   1.938   .     S
O489   Zn536   1.938   .     S
O490   Zn523   1.938   .     S
O491   Zn534   1.946   .     S
O491   Zn530   1.946   .     S
O491   Zn522   1.946   .     S
O492   Zn524   1.938   .     S
O493   Zn536   1.936   .     S
O494   Zn522   1.936   .     S
O495   Zn527   1.938   .     S
O496   Zn528   1.938   .     S
O497   Zn525   1.936   .     S
O498   Zn526   1.936   .     S
O499   Zn263   1.936   1_655 S
O500   Zn530   1.936   .     S
O501   Zn1069  1.938   .     S
O502   Zn531   1.946   .     S
O502   Zn525   1.946   .     S
O502   Zn535   1.946   .     S
O503   Zn532   1.938   .     S
O504   Zn535   1.936   .     S
O505   Zn266   1.936   1_655 S
O506   Zn529   1.938   .     S
O507   Zn1057  1.938   .     S
O508   Zn262   1.938   1_655 S
O509   Zn531   1.938   .     S
O510   Zn521   1.936   .     S
O511   Zn1065  1.936   .     S
O512   Zn534   1.938   .     S
O513   C877    1.279   .     A
O513   Zn528   1.943   .     S
O514   Zn267   1.938   1_655 S
O515   Zn1068  1.936   .     S
O516   Zn533   1.936   .     S
O517   Zn527   1.943   .     S
O518   Zn522   1.943   .     S
O519   C76     1.279   1_655 A
O519   Zn536   1.943   .     S
O520   Zn524   1.943   .     S
Zn521  O1043   1.938   1_545 S
Zn523  O1016   1.946   .     S
Zn526  O223    1.946   1_655 S
Zn528  O1005   1.946   .     S
Zn529  O1047   1.936   1_545 S
Zn532  O1051   1.936   1_545 S
Zn533  O1037   1.938   1_545 S
Zn536  O234    1.946   1_655 S
C537   I713    2.149   .     S
C537   C540    1.407   .     A
C537   C850    1.403   .     A
C538   C550    1.407   .     A
C538   I723    2.149   .     S
C538   C52     1.403   1_565 A
C539   C574    1.416   .     A
C539   C594    1.416   .     A
C539   C651    1.407   .     A
C540   C595    1.416   .     A
C540   C838    1.416   .     S
C541   C585    1.407   .     A
C541   C597    1.416   .     A
C541   C572    1.416   .     S
C542   C596    1.407   .     A
C542   C598    1.416   .     A
C542   C573    1.416   .     S
C543   C607    1.407   .     A
C543   C599    1.416   .     A
C543   C38     1.416   1_565 S
C544   C39     1.416   1_565 A
C544   C571    1.407   .     A
C544   C600    1.416   .     A
C545   C579    1.407   .     A
C545   C576    1.416   .     A
C545   C601    1.416   .     A
C546   C602    1.416   .     A
C546   C580    1.407   .     A
C546   C577    1.416   .     S
C547   C603    1.416   .     A
C547   C581    1.407   .     A
C547   C846    1.416   .     S
C548   C604    1.416   .     A
C548   C662    1.407   .     A
C548   C575    1.416   .     S
C549   I724    2.149   .     S
C549   C551    1.407   .     A
C549   C857    1.403   .     S
C550   C605    1.416   .     A
C550   C40     1.416   1_565 S
C551   C845    1.416   .     A
C551   C606    1.416   .     A
C552   C608    1.416   .     A
C552   C560    1.407   .     A
C552   C578    1.416   .     A
C553   C624    1.456   .     S
C553   C652    1.402   .     A
C553   C654    1.402   .     A
C554   C650    1.402   .     A
C554   C625    1.456   .     S
C554   C653    1.402   .     A
C555   C649    1.402   .     A
C555   C656    1.402   .     A
C555   C617    1.455   .     S
C556   C648    1.402   .     A
C556   C619    1.455   .     S
C556   C655    1.402   .     A
C557   C658    1.402   .     A
C557   C647    1.402   .     A
C557   C620    1.456   .     S
C558   C621    1.456   .     S
C558   C646    1.402   .     A
C558   C657    1.402   .     A
C559   C622    1.455   .     S
C559   C645    1.402   .     A
C559   C660    1.402   .     A
C560   I725    2.149   .     S
C560   C590    1.403   .     S
C561   C659    1.402   .     A
C561   C623    1.455   .     S
C561   C644    1.402   .     A
C562   C663    1.402   .     A
C562   C643    1.402   .     A
C562   C633    1.455   .     S
C563   C634    1.455   .     S
C563   C642    1.402   .     A
C563   C661    1.402   .     A
C564   C641    1.402   .     A
C564   C665    1.402   .     A
C564   C626    1.456   .     S
C565   C639    1.402   .     A
C565   C664    1.402   .     A
C565   C627    1.456   .     S
C566   C667    1.402   .     A
C566   C628    1.455   .     S
C566   C638    1.402   .     A
C567   C637    1.402   .     A
C567   C666    1.402   .     A
C567   C630    1.455   .     S
C568   C669    1.402   .     A
C568   C636    1.402   .     A
C568   C631    1.456   .     S
C569   C635    1.402   .     A
C569   C668    1.402   .     A
C569   C632    1.456   .     S
C570   C670    1.416   .     A
C570   C808    1.416   1_455 S
C570   C572    1.401   .     S
C571   I726    2.149   .     S
C571   C51     1.403   1_565 A
C572   C939    1.416   1_455 A
C573   C574    1.401   .     S
C575   C576    1.401   1_556 S
C576   C575    1.401   1_554 S
C577   C819    1.416   1_455 A
C577   C578    1.401   1_556 S
C578   C815    1.416   1_455 S
C578   C577    1.401   1_554 S
C579   I728    2.149   .     S
C579   C588    1.403   .     S
C580   I729    2.149   .     S
C580   C589    1.403   .     A
C581   C858    1.403   .     A
C581   I730    2.149   .     S
C582   C611    1.456   .     S
C582   C805    1.403   1_455 A
C582   C618    1.403   .     S
C583   C612    1.456   .     S
C583   C897    1.403   1_455 A
C583   C585    1.403   .     S
C584   C609    1.456   .     S
C584   C596    1.403   .     S
C585   I714    2.149   .     S
C586   C610    1.456   .     S
C586   C651    1.403   .     S
C587   C615    1.456   .     S
C587   C662    1.403   .     S
C588   C616    1.456   .     S
C589   C817    1.403   1_455 S
C589   C613    1.456   .     S
C590   C849    1.403   1_455 A
C590   C614    1.456   .     S
C591   I705    2.153   .     S
C591   C670    1.416   .     A
C591   C597    1.413   .     A
C592   C671    1.416   .     A
C592   I716    2.153   .     S
C592   C595    1.413   .     A
C593   I727    2.153   .     S
C593   C672    1.416   .     A
C593   C599    1.413   .     A
C594   C598    1.413   .     A
C594   I731    2.153   .     S
C595   I732    2.153   .     S
C596   I715    2.149   .     S
C597   I733    2.153   .     S
C598   I734    2.153   .     S
C599   I735    2.153   .     S
C600   I736    2.153   .     S
C600   C605    1.413   1_556 S
C601   I706    2.153   .     S
C601   C604    1.413   1_554 S
C602   I707    2.153   .     S
C602   C608    1.413   1_556 S
C603   I708    2.153   .     S
C603   C606    1.413   1_554 S
C604   I709    2.153   .     S
C604   C601    1.413   1_556 S
C605   I710    2.153   .     S
C605   C600    1.413   1_554 S
C606   I711    2.153   .     S
C606   C603    1.413   1_556 S
C607   I717    2.149   .     S
C607   C50     1.403   1_565 A
C608   I712    2.153   .     S
C608   C602    1.413   1_554 S
C609   O788    1.279   .     S
C610   O785    1.279   .     A
C611   O1007   1.279   1_455 A
C611   O786    1.279   .     S
C612   O1055   1.279   1_455 A
C612   O740    1.279   .     S
C613   O745    1.279   .     A
C613   O741    1.279   .     A
C614   O742    1.279   .     A
C614   O746    1.279   .     S
C615   O747    1.279   .     A
C615   O743    1.279   .     A
C616   O744    1.279   .     S
C616   O749    1.279   .     S
C617   O778    1.280   .     A
C617   O750    1.280   .     A
C618   C670    1.407   .     A
C618   I718    2.149   .     S
C619   O779    1.280   .     A
C619   O751    1.280   .     A
C620   O776    1.280   .     A
C620   O752    1.280   .     A
C621   O753    1.280   .     A
C621   O777    1.280   .     A
C622   O783    1.280   .     A
C622   O754    1.280   .     A
C623   O784    1.280   .     A
C623   O755    1.280   .     A
C624   O756    1.280   .     A
C624   O780    1.280   .     A
C625   O782    1.280   .     A
C625   O757    1.280   .     A
C626   O758    1.280   .     A
C626   O769    1.280   .     A
C627   O771    1.280   .     A
C627   O760    1.280   .     A
C628   O767    1.280   .     A
C628   O761    1.280   .     A
C629   C851    1.403   .     A
C629   C671    1.407   .     A
C629   I719    2.149   .     S
C630   O768    1.280   .     A
C630   O762    1.280   .     A
C631   O763    1.280   .     A
C631   O774    1.280   .     A
C632   O764    1.280   .     A
C632   O775    1.280   .     A
C633   O765    1.280   .     A
C633   O772    1.280   .     A
C634   O773    1.280   .     A
C634   O766    1.280   .     A
C635   C652    1.386   .     A
C635   H673    1.083   .     S
C636   H684    1.083   .     S
C636   C650    1.386   .     A
C637   C649    1.386   .     A
C637   H695    1.083   .     S
C638   C648    1.386   .     A
C638   H699    1.083   .     S
C639   C647    1.386   .     A
C639   H700    1.083   .     S
C640   C48     1.403   1_565 A
C640   I720    2.149   .     S
C640   C672    1.407   .     A
C641   C646    1.386   .     A
C641   H701    1.083   .     S
C642   H702    1.083   .     S
C642   C645    1.386   .     A
C643   C644    1.386   .     A
C643   H703    1.083   .     S
C644   H704    1.083   .     S
C645   H674    1.083   .     S
C646   H675    1.083   .     S
C647   H676    1.083   .     S
C648   H677    1.083   .     S
C649   H678    1.083   .     S
C650   H679    1.083   .     S
C651   I721    2.149   .     S
C652   H680    1.083   .     S
C653   C669    1.386   .     A
C653   H681    1.083   .     S
C654   H682    1.083   .     S
C654   C668    1.386   .     A
C655   C667    1.386   .     A
C655   H683    1.083   .     S
C656   C666    1.386   .     A
C656   H685    1.083   .     S
C657   H686    1.083   .     S
C657   C665    1.386   .     A
C658   H687    1.083   .     S
C658   C664    1.386   .     A
C659   C663    1.386   .     A
C659   H688    1.083   .     S
C660   H689    1.083   .     S
C660   C661    1.386   .     A
C661   H690    1.083   .     S
C662   I722    2.149   .     S
C663   H691    1.083   .     S
C664   H692    1.083   .     S
C665   H693    1.083   .     S
C666   H694    1.083   .     S
C667   H696    1.083   .     S
C668   H697    1.083   .     S
C669   H698    1.083   .     S
C671   C840    1.416   .     A
C672   C37     1.416   1_565 A
O737   Zn800   1.946   .     S
O737   Zn789   1.946   .     S
O737   Zn792   1.946   .     S
O738   Zn791   1.943   .     S
O738   C74     1.279   1_565 S
O739   Zn794   1.943   .     S
O739   C879    1.279   .     A
O740   Zn793   1.943   .     S
O741   Zn803   1.943   .     S
O742   Zn802   1.943   .     S
O743   Zn797   1.943   .     S
O744   Zn789   1.943   .     S
O745   Zn799   1.943   .     S
O746   Zn798   1.943   .     S
O747   Zn801   1.943   .     S
O748   Zn797   1.946   .     S
O748   Zn801   1.946   .     S
O748   Zn795   1.946   .     S
O749   Zn800   1.943   .     S
O750   Zn792   1.936   .     S
O751   Zn791   1.936   .     S
O752   Zn794   1.938   .     S
O753   Zn793   1.938   .     S
O754   Zn796   1.936   .     S
O755   Zn795   1.936   .     S
O756   Zn790   1.938   .     S
O757   Zn804   1.938   .     S
O758   Zn791   1.938   .     S
O759   Zn802   1.946   .     S
O759   Zn798   1.946   .     S
O759   Zn790   1.946   .     S
O759   Zn1062  1.946   1_455 S
O760   Zn792   1.938   .     S
O761   Zn804   1.936   .     S
O762   Zn790   1.936   .     S
O763   Zn795   1.938   .     S
O764   Zn796   1.938   .     S
O765   Zn793   1.936   .     S
O766   Zn794   1.936   .     S
O767   Zn1067  1.936   .     S
O768   Zn798   1.936   .     S
O769   Zn265   1.938   1_565 S
O770   Zn1072  1.946   1_455 S
O770   Zn799   1.946   .     S
O770   Zn793   1.946   .     S
O770   Zn803   1.946   .     S
O771   Zn800   1.938   .     S
O772   Zn803   1.936   .     S
O773   Zn1070  1.936   .     S
O774   Zn797   1.938   .     S
O775   Zn253   1.938   1_565 S
O776   Zn1066  1.938   .     S
O777   Zn799   1.938   .     S
O778   Zn789   1.936   .     S
O779   Zn261   1.936   1_565 S
O780   Zn802   1.938   .     S
O781   C73     1.279   1_565 A
O781   Zn796   1.943   .     S
O782   Zn1071  1.938   .     S
O783   Zn264   1.936   1_565 S
O784   Zn801   1.936   .     S
O785   Zn795   1.943   .     S
O786   Zn790   1.943   .     S
O787   C880    1.279   .     A
O787   Zn804   1.943   .     S
O788   Zn792   1.943   .     S
Zn791  O212    1.946   1_565 S
Zn794  O1027   1.946   .     S
Zn796  O201    1.946   1_565 S
Zn798  O1044   1.938   1_455 S
Zn799  O1035   1.936   1_455 S
Zn802  O1041   1.936   1_455 S
Zn803  O1050   1.938   1_455 S
Zn804  O1038   1.946   .     S
C805   I981    2.149   .     S
C805   C808    1.407   .     A
C805   C582    1.403   1_655 A
C806   C818    1.407   .     A
C806   I991    2.149   .     S
C806   C320    1.403   1_565 A
C807   C842    1.416   .     A
C807   C862    1.416   .     A
C807   C919    1.407   .     A
C808   C863    1.416   .     A
C808   C570    1.416   1_655 S
C809   C853    1.407   .     A
C809   C865    1.416   .     A
C809   C840    1.416   .     S
C810   C864    1.407   .     A
C810   C866    1.416   .     A
C810   C841    1.416   .     S
C811   C875    1.407   .     A
C811   C867    1.416   .     A
C811   C306    1.416   1_565 S
C812   C307    1.416   1_565 A
C812   C839    1.407   .     A
C812   C868    1.416   .     A
C813   C847    1.407   .     A
C813   C844    1.416   .     A
C813   C869    1.416   .     A
C814   C870    1.416   .     A
C814   C848    1.407   .     A
C814   C845    1.416   .     S
C815   C871    1.416   .     A
C815   C849    1.407   .     A
C815   C578    1.416   1_655 S
C816   C872    1.416   .     A
C816   C930    1.407   .     A
C816   C843    1.416   .     S
C817   I992    2.149   .     S
C817   C819    1.407   .     A
C817   C589    1.403   1_655 S
C818   C873    1.416   .     A
C818   C308    1.416   1_565 S
C819   C577    1.416   1_655 A
C819   C874    1.416   .     A
C820   C876    1.416   .     A
C820   C828    1.407   .     A
C820   C846    1.416   .     A
C821   C892    1.456   .     S
C821   C920    1.402   .     A
C821   C922    1.402   .     A
C822   C918    1.402   .     A
C822   C893    1.456   .     S
C822   C921    1.402   .     A
C823   C917    1.402   .     A
C823   C924    1.402   .     A
C823   C885    1.455   .     S
C824   C916    1.402   .     A
C824   C887    1.455   .     S
C824   C923    1.402   .     A
C825   C926    1.402   .     A
C825   C915    1.402   .     A
C825   C888    1.456   .     S
C826   C889    1.456   .     S
C826   C914    1.402   .     A
C826   C925    1.402   .     A
C827   C890    1.455   .     S
C827   C913    1.402   .     A
C827   C928    1.402   .     A
C828   I993    2.149   .     S
C828   C858    1.403   .     S
C829   C927    1.402   .     A
C829   C891    1.455   .     S
C829   C912    1.402   .     A
C830   C931    1.402   .     A
C830   C911    1.402   .     A
C830   C901    1.455   .     S
C831   C902    1.455   .     S
C831   C910    1.402   .     A
C831   C929    1.402   .     A
C832   C909    1.402   .     A
C832   C933    1.402   .     A
C832   C894    1.456   .     S
C833   C907    1.402   .     A
C833   C932    1.402   .     A
C833   C895    1.456   .     S
C834   C935    1.402   .     A
C834   C896    1.455   .     S
C834   C906    1.402   .     A
C835   C905    1.402   .     A
C835   C934    1.402   .     A
C835   C898    1.455   .     S
C836   C937    1.402   .     A
C836   C904    1.402   .     A
C836   C899    1.456   .     S
C837   C903    1.402   .     A
C837   C936    1.402   .     A
C837   C900    1.456   .     S
C838   C938    1.416   .     A
C838   C840    1.401   .     S
C839   I994    2.149   .     S
C839   C319    1.403   1_565 A
C841   C842    1.401   .     S
C843   C844    1.401   1_556 S
C844   C843    1.401   1_554 S
C845   C846    1.401   1_556 S
C846   C845    1.401   1_554 S
C847   I996    2.149   .     S
C847   C856    1.403   .     S
C848   I997    2.149   .     S
C848   C857    1.403   .     A
C849   C590    1.403   1_655 A
C849   I998    2.149   .     S
C850   C879    1.456   .     S
C850   C886    1.403   .     S
C851   C880    1.456   .     S
C851   C853    1.403   .     S
C852   C877    1.456   .     S
C852   C864    1.403   .     S
C853   I982    2.149   .     S
C854   C878    1.456   .     S
C854   C919    1.403   .     S
C855   C883    1.456   .     S
C855   C930    1.403   .     S
C856   C884    1.456   .     S
C857   C881    1.456   .     S
C858   C882    1.456   .     S
C859   I973    2.153   .     S
C859   C938    1.416   .     A
C859   C865    1.413   .     A
C860   C939    1.416   .     A
C860   I984    2.153   .     S
C860   C863    1.413   .     A
C861   I995    2.153   .     S
C861   C940    1.416   .     A
C861   C867    1.413   .     A
C862   C866    1.413   .     A
C862   I999    2.153   .     S
C863   I1000   2.153   .     S
C864   I983    2.149   .     S
C865   I1001   2.153   .     S
C866   I1002   2.153   .     S
C867   I1003   2.153   .     S
C868   I1004   2.153   .     S
C868   C873    1.413   1_556 S
C869   I974    2.153   .     S
C869   C872    1.413   1_554 S
C870   I975    2.153   .     S
C870   C876    1.413   1_556 S
C871   I976    2.153   .     S
C871   C874    1.413   1_554 S
C872   I977    2.153   .     S
C872   C869    1.413   1_556 S
C873   I978    2.153   .     S
C873   C868    1.413   1_554 S
C874   I979    2.153   .     S
C874   C871    1.413   1_556 S
C875   I985    2.149   .     S
C875   C318    1.403   1_565 A
C876   I980    2.153   .     S
C876   C870    1.413   1_554 S
C877   O1056   1.279   .     S
C878   O1053   1.279   .     A
C879   O1054   1.279   .     S
C880   O1008   1.279   .     S
C881   O1013   1.279   .     A
C881   O1009   1.279   .     A
C882   O1010   1.279   .     A
C882   O1014   1.279   .     S
C883   O1015   1.279   .     A
C883   O1011   1.279   .     A
C884   O1012   1.279   .     S
C884   O1017   1.279   .     S
C885   O1046   1.280   .     A
C885   O1018   1.280   .     A
C886   C938    1.407   .     A
C886   I986    2.149   .     S
C887   O1047   1.280   .     A
C887   O1019   1.280   .     A
C888   O1044   1.280   .     A
C888   O1020   1.280   .     A
C889   O1021   1.280   .     A
C889   O1045   1.280   .     A
C890   O1051   1.280   .     A
C890   O1022   1.280   .     A
C891   O1052   1.280   .     A
C891   O1023   1.280   .     A
C892   O1024   1.280   .     A
C892   O1048   1.280   .     A
C893   O1050   1.280   .     A
C893   O1025   1.280   .     A
C894   O1026   1.280   .     A
C894   O1037   1.280   .     A
C895   O1039   1.280   .     A
C895   O1028   1.280   .     A
C896   O1035   1.280   .     A
C896   O1029   1.280   .     A
C897   C583    1.403   1_655 A
C897   C939    1.407   .     A
C897   I987    2.149   .     S
C898   O1036   1.280   .     A
C898   O1030   1.280   .     A
C899   O1031   1.280   .     A
C899   O1042   1.280   .     A
C900   O1032   1.280   .     A
C900   O1043   1.280   .     A
C901   O1033   1.280   .     A
C901   O1040   1.280   .     A
C902   O1041   1.280   .     A
C902   O1034   1.280   .     A
C903   C920    1.386   .     A
C903   H941    1.083   .     S
C904   H952    1.083   .     S
C904   C918    1.386   .     A
C905   C917    1.386   .     A
C905   H963    1.083   .     S
C906   C916    1.386   .     A
C906   H967    1.083   .     S
C907   C915    1.386   .     A
C907   H968    1.083   .     S
C908   C316    1.403   1_565 A
C908   I988    2.149   .     S
C908   C940    1.407   .     A
C909   C914    1.386   .     A
C909   H969    1.083   .     S
C910   H970    1.083   .     S
C910   C913    1.386   .     A
C911   C912    1.386   .     A
C911   H971    1.083   .     S
C912   H972    1.083   .     S
C913   H942    1.083   .     S
C914   H943    1.083   .     S
C915   H944    1.083   .     S
C916   H945    1.083   .     S
C917   H946    1.083   .     S
C918   H947    1.083   .     S
C919   I989    2.149   .     S
C920   H948    1.083   .     S
C921   C937    1.386   .     A
C921   H949    1.083   .     S
C922   H950    1.083   .     S
C922   C936    1.386   .     A
C923   C935    1.386   .     A
C923   H951    1.083   .     S
C924   C934    1.386   .     A
C924   H953    1.083   .     S
C925   H954    1.083   .     S
C925   C933    1.386   .     A
C926   H955    1.083   .     S
C926   C932    1.386   .     A
C927   C931    1.386   .     A
C927   H956    1.083   .     S
C928   H957    1.083   .     S
C928   C929    1.386   .     A
C929   H958    1.083   .     S
C930   I990    2.149   .     S
C931   H959    1.083   .     S
C932   H960    1.083   .     S
C933   H961    1.083   .     S
C934   H962    1.083   .     S
C935   H964    1.083   .     S
C936   H965    1.083   .     S
C937   H966    1.083   .     S
C939   C572    1.416   1_655 A
C940   C305    1.416   1_565 A
O1005  Zn1068  1.946   .     S
O1005  Zn1057  1.946   .     S
O1005  Zn1060  1.946   .     S
O1006  Zn1059  1.943   .     S
O1006  C342    1.279   1_565 S
O1007  Zn1062  1.943   .     S
O1007  C611    1.279   1_655 A
O1008  Zn1061  1.943   .     S
O1009  Zn1071  1.943   .     S
O1010  Zn1070  1.943   .     S
O1011  Zn1065  1.943   .     S
O1012  Zn1057  1.943   .     S
O1013  Zn1067  1.943   .     S
O1014  Zn1066  1.943   .     S
O1015  Zn1069  1.943   .     S
O1016  Zn1065  1.946   .     S
O1016  Zn1069  1.946   .     S
O1016  Zn1063  1.946   .     S
O1017  Zn1068  1.943   .     S
O1018  Zn1060  1.936   .     S
O1019  Zn1059  1.936   .     S
O1020  Zn1062  1.938   .     S
O1021  Zn1061  1.938   .     S
O1022  Zn1064  1.936   .     S
O1023  Zn1063  1.936   .     S
O1024  Zn1058  1.938   .     S
O1025  Zn1072  1.938   .     S
O1026  Zn1059  1.938   .     S
O1027  Zn1070  1.946   .     S
O1027  Zn1066  1.946   .     S
O1027  Zn1058  1.946   .     S
O1028  Zn1060  1.938   .     S
O1029  Zn1072  1.936   .     S
O1030  Zn1058  1.936   .     S
O1031  Zn1063  1.938   .     S
O1032  Zn1064  1.938   .     S
O1033  Zn1061  1.936   .     S
O1034  Zn1062  1.936   .     S
O1035  Zn799   1.936   1_655 S
O1036  Zn1066  1.936   .     S
O1037  Zn533   1.938   1_565 S
O1038  Zn1067  1.946   .     S
O1038  Zn1061  1.946   .     S
O1038  Zn1071  1.946   .     S
O1039  Zn1068  1.938   .     S
O1040  Zn1071  1.936   .     S
O1041  Zn802   1.936   1_655 S
O1042  Zn1065  1.938   .     S
O1043  Zn521   1.938   1_565 S
O1044  Zn798   1.938   1_655 S
O1045  Zn1067  1.938   .     S
O1046  Zn1057  1.936   .     S
O1047  Zn529   1.936   1_565 S
O1048  Zn1070  1.938   .     S
O1049  C341    1.279   1_565 A
O1049  Zn1064  1.943   .     S
O1050  Zn803   1.938   1_655 S
O1051  Zn532   1.936   1_565 S
O1052  Zn1069  1.936   .     S
O1053  Zn1063  1.943   .     S
O1054  Zn1058  1.943   .     S
O1055  C612    1.279   1_655 A
O1055  Zn1072  1.943   .     S
O1056  Zn1060  1.943   .     S
Zn1059 O480    1.946   1_565 S
Zn1062 O759    1.946   1_655 S
Zn1064 O469    1.946   1_565 S
Zn1072 O770    1.946   1_655 S
